@<TRIPOS>MOLECULE
*****
 68 70 0 0 0
SMALL
GASTEIGER

@<TRIPOS>ATOM
      1 C           8.6908   -2.4756   -0.3268 C.3     1  UNL1       -0.0524
      2 C           7.4446   -1.6779    0.0380 C.3     1  UNL1       -0.0038
      3 N           7.8197   -0.3443    0.3084 N.3     1  UNL1       -0.2996
      4 C           8.5789   -0.0937    1.4452 C.3     1  UNL1       -0.0038
      5 C           8.9703    1.3072    1.7271 C.3     1  UNL1       -0.0524
      6 C           7.2163    0.6896   -0.4148 C.3     1  UNL1        0.0331
      7 C           5.7481    0.9243   -0.1473 C.3     1  UNL1        0.1022
      8 O           4.9691   -0.2049   -0.4378 O.3     1  UNL1       -0.4907
      9 C           3.6026   -0.1484   -0.2516 C.ar    1  UNL1        0.1206
     10 C           2.7911   -1.2323   -0.5210 C.ar    1  UNL1       -0.0197
     11 C           1.4248   -1.1249   -0.3184 C.ar    1  UNL1       -0.0551
     12 C           0.8372    0.0350    0.1467 C.ar    1  UNL1       -0.0471
     13 C          -0.6573    0.1056    0.3469 C.3     1  UNL1       -0.0270
     14 C          -1.2187    0.5817   -0.9584 C.3     1  UNL1       -0.0376
     15 C          -2.7145    0.7297   -0.9832 C.3     1  UNL1        0.0420
     16 C          -3.3479   -0.5878   -0.6958 C.3     1  UNL1       -0.0097
     17 C          -4.8122   -0.6092   -0.6880 C.ar    1  UNL1        0.0384
     18 C          -5.5133   -0.7045    0.4916 C.ar    1  UNL1       -0.0411
     19 C          -6.9032   -0.7335    0.5088 C.ar    1  UNL1        0.0179
     20 C          -7.6192   -0.8297    1.7082 C.ar    1  UNL1       -0.0508
     21 C          -8.9962   -0.8514    1.6250 C.ar    1  UNL1       -0.0581
     22 C          -9.6704   -0.7825    0.4231 C.ar    1  UNL1       -0.0469
     23 C         -11.1697   -0.8110    0.4100 C.3     1  UNL1       -0.0396
     24 C          -8.9310   -0.6892   -0.7243 C.ar    1  UNL1       -0.0157
     25 C          -7.5522   -0.6633   -0.7036 C.ar    1  UNL1        0.1393
     26 O          -6.8639   -0.5733   -1.8144 O.2     1  UNL1       -0.4220
     27 C          -5.5536   -0.5443   -1.8530 C.ar    1  UNL1        0.3405
     28 O          -4.9667   -0.4552   -2.9839 O.2     1  UNL1       -0.2449
     29 C          -3.2000    1.8438   -0.1676 C.2     1  UNL1        0.2388
     30 O          -3.9701    1.6220    0.7931 O.2     1  UNL1       -0.2734
     31 N          -2.8491    3.2016   -0.3956 N.am    1  UNL1       -0.1973
     32 O          -3.3043    4.2156    0.3625 O.3     1  UNL1       -0.2952
     33 C           1.6453    1.1104    0.4138 C.ar    1  UNL1       -0.0551
     34 C           3.0227    1.0079    0.2117 C.ar    1  UNL1       -0.0197
     35 H           9.4208   -2.5095    0.4882 H       1  UNL1        0.0242
     36 H           8.4263   -3.4919   -0.7102 H       1  UNL1        0.0242
     37 H           9.1660   -1.9296   -1.1618 H       1  UNL1        0.0242
     38 H           7.0411   -2.1870    0.9590 H       1  UNL1        0.0424
     39 H           6.7463   -1.7775   -0.8019 H       1  UNL1        0.0424
     40 H           9.5178   -0.7150    1.4301 H       1  UNL1        0.0424
     41 H           8.0213   -0.4680    2.3521 H       1  UNL1        0.0424
     42 H           9.6792    1.3112    2.5817 H       1  UNL1        0.0242
     43 H           8.0740    1.8909    2.0921 H       1  UNL1        0.0242
     44 H           9.4886    1.8185    0.8984 H       1  UNL1        0.0242
     45 H           7.7362    1.6449   -0.2956 H       1  UNL1        0.0460
     46 H           7.2863    0.4424   -1.5156 H       1  UNL1        0.0460
     47 H           5.5665    1.3094    0.8771 H       1  UNL1        0.0709
     48 H           5.4180    1.7279   -0.8448 H       1  UNL1        0.0709
     49 H           3.2491   -2.1447   -0.8866 H       1  UNL1        0.0654
     50 H           0.7660   -1.9585   -0.5212 H       1  UNL1        0.0621
     51 H          -0.9688   -0.9474    0.5384 H       1  UNL1        0.0313
     52 H          -0.9104    0.7723    1.1860 H       1  UNL1        0.0313
     53 H          -0.9757   -0.2140   -1.7226 H       1  UNL1        0.0276
     54 H          -0.7017    1.4950   -1.3124 H       1  UNL1        0.0276
     55 H          -2.9463    1.0314   -2.0588 H       1  UNL1        0.0398
     56 H          -2.9912   -0.8997    0.3312 H       1  UNL1        0.0323
     57 H          -2.9028   -1.3380   -1.3870 H       1  UNL1        0.0323
     58 H          -5.0375   -0.7704    1.4766 H       1  UNL1        0.0629
     59 H          -7.0639   -0.8821    2.6348 H       1  UNL1        0.0625
     60 H          -9.5630   -0.9251    2.5415 H       1  UNL1        0.0620
     61 H         -11.5820   -0.5748    1.4046 H       1  UNL1        0.0278
     62 H         -11.5447   -1.7837    0.0962 H       1  UNL1        0.0278
     63 H         -11.4914    0.0350   -0.2554 H       1  UNL1        0.0278
     64 H          -9.4485   -0.6337   -1.6788 H       1  UNL1        0.0657
     65 H          -2.2115    3.4272   -1.1848 H       1  UNL1        0.1822
     66 H          -3.0963    4.1276    1.3242 H       1  UNL1        0.2414
     67 H           1.2240    2.0295    0.7775 H       1  UNL1        0.0621
     68 H           3.6599    1.8501    0.4200 H       1  UNL1        0.0654
@<TRIPOS>BOND
     1     1     2    1
     2     2     3    1
     3     3     4    1
     4     4     5    1
     5     3     6    1
     6     6     7    1
     7     7     8    1
     8     8     9    1
     9     9    10   ar
    10    10    11   ar
    11    11    12   ar
    12    12    13    1
    13    13    14    1
    14    14    15    1
    15    15    16    1
    16    16    17    1
    17    17    18   ar
    18    18    19   ar
    19    19    20   ar
    20    20    21   ar
    21    21    22   ar
    22    22    23    1
    23    22    24   ar
    24    24    25   ar
    25    25    26   ar
    26    26    27   ar
    27    27    28    2
    28    15    29    1
    29    29    30    2
    30    29    31   am
    31    31    32    1
    32    12    33   ar
    33    33    34   ar
    34    34     9   ar
    35    27    17   ar
    36    25    19   ar
    37     1    35    1
    38     1    36    1
    39     1    37    1
    40     2    38    1
    41     2    39    1
    42     4    40    1
    43     4    41    1
    44     5    42    1
    45     5    43    1
    46     5    44    1
    47     6    45    1
    48     6    46    1
    49     7    47    1
    50     7    48    1
    51    10    49    1
    52    11    50    1
    53    13    51    1
    54    13    52    1
    55    14    53    1
    56    14    54    1
    57    15    55    1
    58    16    56    1
    59    16    57    1
    60    18    58    1
    61    20    59    1
    62    21    60    1
    63    23    61    1
    64    23    62    1
    65    23    63    1
    66    24    64    1
    67    31    65    1
    68    32    66    1
    69    33    67    1
    70    34    68    1
