
     RDKit          3D

 51 55  0  0  0  0  0  0  0  0999 V2000
   -1.4676   -2.4507   -1.0444 C   0  0  0  0  0  0  0  0  0  0  0  0
   -2.1925   -1.7156    0.0574 C   0  0  2  0  0  0  0  0  0  0  0  0
   -3.6923   -1.9805   -0.0022 C   0  0  0  0  0  0  0  0  0  0  0  0
   -4.3862   -1.5991    1.2532 C   0  0  0  0  0  0  0  0  0  0  0  0
   -5.3820   -2.3650    1.4990 O   0  0  0  0  0  0  0  0  0  0  0  0
   -4.1369   -0.5644    2.1898 N   0  0  0  0  0  0  0  0  0  0  0  0
   -3.2120    0.5045    2.0612 C   0  0  0  0  0  0  0  0  0  0  0  0
   -3.3731    1.5078    2.9917 C   0  0  0  0  0  0  0  0  0  0  0  0
   -2.5281    2.6012    2.9653 C   0  0  0  0  0  0  0  0  0  0  0  0
   -1.5320    2.6838    2.0137 C   0  0  0  0  0  0  0  0  0  0  0  0
   -1.3365    1.6886    1.0552 C   0  0  0  0  0  0  0  0  0  0  0  0
   -0.2454    1.8205    0.0954 C   0  0  0  0  0  0  0  0  0  0  0  0
   -0.1111    2.9890   -0.6667 C   0  0  0  0  0  0  0  0  0  0  0  0
    0.9080    3.1851   -1.5679 C   0  0  0  0  0  0  0  0  0  0  0  0
    1.8647    2.2124   -1.7627 C   0  0  0  0  0  0  0  0  0  0  0  0
    1.7446    1.0547   -1.0177 C   0  0  0  0  0  0  0  0  0  0  0  0
    0.7222    0.8590   -0.1141 C   0  0  0  0  0  0  0  0  0  0  0  0
    2.8244    0.2623   -1.4095 C   0  0  0  0  0  0  0  0  0  0  0  0
    3.0562   -1.0570   -0.8466 C   0  0  0  0  0  0  0  0  0  0  0  0
    3.3828   -2.1772   -1.5694 C   0  0  0  0  0  0  0  0  0  0  0  0
    3.5076   -3.1642   -0.6991 N   0  0  0  0  0  0  0  0  0  0  0  0
    3.2824   -2.7481    0.5312 N   0  0  0  0  0  0  0  0  0  0  0  0
    3.3353   -3.5785    1.7457 C   0  0  0  0  0  0  0  0  0  0  0  0
    2.9986   -1.4393    0.4706 C   0  0  0  0  0  0  0  0  0  0  0  0
    3.5008    0.9514   -2.3223 N   0  0  0  0  0  0  0  0  0  0  0  0
    2.9481    2.1301   -2.5571 N   0  0  0  0  0  0  0  0  0  0  0  0
    3.4064    3.1666   -3.4962 C   0  0  0  0  0  0  0  0  0  0  0  0
   -2.1881    0.6151    1.1017 C   0  0  0  0  0  0  0  0  0  0  0  0
   -1.8931   -0.3012    0.0560 N   0  0  0  0  0  0  0  0  0  0  0  0
   -2.1031   -2.4967   -1.9637 H   0  0  0  0  0  0  0  0  0  0  0  0
   -0.5157   -1.9917   -1.3166 H   0  0  0  0  0  0  0  0  0  0  0  0
   -1.2834   -3.5162   -0.7629 H   0  0  0  0  0  0  0  0  0  0  0  0
   -1.8497   -2.1621    1.0098 H   0  0  0  0  0  0  0  0  0  0  0  0
   -4.1039   -1.4579   -0.8867 H   0  0  0  0  0  0  0  0  0  0  0  0
   -3.7887   -3.0799   -0.1095 H   0  0  0  0  0  0  0  0  0  0  0  0
   -4.6770   -0.5734    3.0655 H   0  0  0  0  0  0  0  0  0  0  0  0
   -4.1665    1.4150    3.7297 H   0  0  0  0  0  0  0  0  0  0  0  0
   -2.6392    3.4105    3.6960 H   0  0  0  0  0  0  0  0  0  0  0  0
   -0.8535    3.5475    1.9816 H   0  0  0  0  0  0  0  0  0  0  0  0
   -0.8582    3.7423   -0.5111 H   0  0  0  0  0  0  0  0  0  0  0  0
    1.0178    4.0839   -2.1592 H   0  0  0  0  0  0  0  0  0  0  0  0
    0.6654   -0.0671    0.4514 H   0  0  0  0  0  0  0  0  0  0  0  0
    3.5181   -2.2667   -2.6382 H   0  0  0  0  0  0  0  0  0  0  0  0
    2.3837   -4.1457    1.7964 H   0  0  0  0  0  0  0  0  0  0  0  0
    3.4523   -2.8924    2.5923 H   0  0  0  0  0  0  0  0  0  0  0  0
    4.1916   -4.2735    1.6226 H   0  0  0  0  0  0  0  0  0  0  0  0
    2.7690   -0.8282    1.3416 H   0  0  0  0  0  0  0  0  0  0  0  0
    4.0183    2.7453   -4.2932 H   0  0  0  0  0  0  0  0  0  0  0  0
    3.9713    3.9622   -2.9715 H   0  0  0  0  0  0  0  0  0  0  0  0
    2.4679    3.6233   -3.9014 H   0  0  0  0  0  0  0  0  0  0  0  0
   -1.4218    0.1301   -0.7840 H   0  0  0  0  0  0  0  0  0  0  0  0
  1  2  1  0
  2  3  1  0
  3  4  1  0
  4  5  2  0
  4  6  1  0
  6  7  1  0
  7  8  2  0
  8  9  1  0
  9 10  2  0
 10 11  1  0
 11 12  1  0
 12 13  2  0
 13 14  1  0
 14 15  2  0
 15 16  1  0
 16 17  2  0
 16 18  1  0
 18 19  1  0
 19 20  1  0
 20 21  2  0
 21 22  1  0
 22 23  1  0
 22 24  1  0
 18 25  2  0
 25 26  1  0
 26 27  1  0
 11 28  2  0
 28 29  1  0
 29  2  1  0
 28  7  1  0
 17 12  1  0
 24 19  2  0
 26 15  1  0
  1 30  1  0
  1 31  1  0
  1 32  1  0
  2 33  1  1
  3 34  1  0
  3 35  1  0
  6 36  1  0
  8 37  1  0
  9 38  1  0
 10 39  1  0
 13 40  1  0
 14 41  1  0
 17 42  1  0
 20 43  1  0
 23 44  1  0
 23 45  1  0
 23 46  1  0
 24 47  1  0
 27 48  1  0
 27 49  1  0
 27 50  1  0
 29 51  1  0
M  END
$$$$
