@<TRIPOS>MOLECULE
*****
 51 55 0 0 0
SMALL
GASTEIGER

@<TRIPOS>ATOM
      1 C          -1.4676   -2.4507   -1.0444 C.3     1  UNL1       -0.0463
      2 C          -2.1925   -1.7156    0.0574 C.3     1  UNL1        0.0261
      3 C          -3.6923   -1.9805   -0.0022 C.3     1  UNL1        0.0423
      4 C          -4.3862   -1.5991    1.2532 C.2     1  UNL1        0.2190
      5 O          -5.3820   -2.3650    1.4990 O.2     1  UNL1       -0.2754
      6 N          -4.1369   -0.5644    2.1898 N.am    1  UNL1       -0.2839
      7 C          -3.2120    0.5045    2.0612 C.ar    1  UNL1        0.0551
      8 C          -3.3731    1.5078    2.9917 C.ar    1  UNL1       -0.0386
      9 C          -2.5281    2.6012    2.9653 C.ar    1  UNL1       -0.0593
     10 C          -1.5320    2.6838    2.0137 C.ar    1  UNL1       -0.0522
     11 C          -1.3365    1.6886    1.0552 C.ar    1  UNL1        0.0048
     12 C          -0.2454    1.8205    0.0954 C.ar    1  UNL1       -0.0153
     13 C          -0.1111    2.9890   -0.6667 C.ar    1  UNL1       -0.0519
     14 C           0.9080    3.1851   -1.5679 C.ar    1  UNL1       -0.0355
     15 C           1.8647    2.2124   -1.7627 C.ar    1  UNL1        0.0692
     16 C           1.7446    1.0547   -1.0177 C.ar    1  UNL1        0.0283
     17 C           0.7222    0.8590   -0.1141 C.ar    1  UNL1       -0.0427
     18 C           2.8244    0.2623   -1.4095 C.ar    1  UNL1        0.1034
     19 C           3.0562   -1.0570   -0.8466 C.ar    1  UNL1        0.0401
     20 C           3.3828   -2.1772   -1.5694 C.ar    1  UNL1        0.0586
     21 N           3.5076   -3.1642   -0.6991 N.ar    1  UNL1       -0.1792
     22 N           3.2824   -2.7481    0.5312 N.ar    1  UNL1       -0.2738
     23 C           3.3353   -3.5785    1.7457 C.3     1  UNL1        0.0302
     24 C           2.9986   -1.4393    0.4706 C.ar    1  UNL1        0.0344
     25 N           3.5008    0.9514   -2.3223 N.ar    1  UNL1       -0.1702
     26 N           2.9481    2.1301   -2.5571 N.ar    1  UNL1       -0.2662
     27 C           3.4064    3.1666   -3.4962 C.3     1  UNL1        0.0309
     28 C          -2.1881    0.6151    1.1017 C.ar    1  UNL1        0.0567
     29 N          -1.8931   -0.3012    0.0560 N.pl3   1  UNL1       -0.3389
     30 H          -2.1031   -2.4967   -1.9637 H       1  UNL1        0.0248
     31 H          -0.5157   -1.9917   -1.3166 H       1  UNL1        0.0248
     32 H          -1.2834   -3.5162   -0.7629 H       1  UNL1        0.0248
     33 H          -1.8497   -2.1621    1.0098 H       1  UNL1        0.0499
     34 H          -4.1039   -1.4579   -0.8867 H       1  UNL1        0.0376
     35 H          -3.7887   -3.0799   -0.1095 H       1  UNL1        0.0376
     36 H          -4.6770   -0.5734    3.0655 H       1  UNL1        0.1549
     37 H          -4.1665    1.4150    3.7297 H       1  UNL1        0.0637
     38 H          -2.6392    3.4105    3.6960 H       1  UNL1        0.0618
     39 H          -0.8535    3.5475    1.9816 H       1  UNL1        0.0624
     40 H          -0.8582    3.7423   -0.5111 H       1  UNL1        0.0624
     41 H           1.0178    4.0839   -2.1592 H       1  UNL1        0.0639
     42 H           0.6654   -0.0671    0.4514 H       1  UNL1        0.0631
     43 H           3.5181   -2.2667   -2.6382 H       1  UNL1        0.0854
     44 H           2.3837   -4.1457    1.7964 H       1  UNL1        0.0473
     45 H           3.4523   -2.8924    2.5923 H       1  UNL1        0.0473
     46 H           4.1916   -4.2735    1.6226 H       1  UNL1        0.0473
     47 H           2.7690   -0.8282    1.3416 H       1  UNL1        0.0833
     48 H           4.0183    2.7453   -4.2932 H       1  UNL1        0.0473
     49 H           3.9713    3.9622   -2.9715 H       1  UNL1        0.0473
     50 H           2.4679    3.6233   -3.9014 H       1  UNL1        0.0473
     51 H          -1.4218    0.1301   -0.7840 H       1  UNL1        0.1464
@<TRIPOS>BOND
     1     1     2    1
     2     2     3    1
     3     3     4    1
     4     4     5    2
     5     4     6   am
     6     6     7    1
     7     7     8   ar
     8     8     9   ar
     9     9    10   ar
    10    10    11   ar
    11    11    12    1
    12    12    13   ar
    13    13    14   ar
    14    14    15   ar
    15    15    16   ar
    16    16    17   ar
    17    16    18   ar
    18    18    19    1
    19    19    20   ar
    20    20    21   ar
    21    21    22   ar
    22    22    23    1
    23    22    24   ar
    24    18    25   ar
    25    25    26   ar
    26    26    27    1
    27    11    28   ar
    28    28    29    1
    29    29     2    1
    30    28     7   ar
    31    17    12   ar
    32    24    19   ar
    33    26    15   ar
    34     1    30    1
    35     1    31    1
    36     1    32    1
    37     2    33    1
    38     3    34    1
    39     3    35    1
    40     6    36    1
    41     8    37    1
    42     9    38    1
    43    10    39    1
    44    13    40    1
    45    14    41    1
    46    17    42    1
    47    20    43    1
    48    23    44    1
    49    23    45    1
    50    23    46    1
    51    24    47    1
    52    27    48    1
    53    27    49    1
    54    27    50    1
    55    29    51    1
