@<TRIPOS>MOLECULE
*****
 73 75 0 0 0
SMALL
GASTEIGER

@<TRIPOS>ATOM
      1 C          -5.0724   -4.7198    0.9364 C.3     1  UNL1       -0.0653
      2 C          -5.2432   -4.6342    2.4022 C.3     1  UNL1       -0.0558
      3 C          -5.3669   -3.2519    2.9333 C.3     1  UNL1       -0.0512
      4 C          -4.2317   -2.3385    2.7436 C.3     1  UNL1       -0.0270
      5 C          -3.8667   -1.8599    1.3904 C.3     1  UNL1        0.0937
      6 N          -2.6637   -1.0129    1.5796 N.am    1  UNL1       -0.2710
      7 C          -1.6277   -1.0330    0.5988 C.2     1  UNL1        0.4012
      8 O          -1.7389   -1.7442   -0.4218 O.2     1  UNL1       -0.2265
      9 O          -0.4783   -0.2862    0.7328 O.3     1  UNL1       -0.4448
     10 C           0.5825   -0.2902   -0.2587 C.3     1  UNL1        0.1272
     11 C           1.7594   -0.9074    0.3991 C.3     1  UNL1        0.0618
     12 N           2.9678   -1.0256   -0.3373 N.ar    1  UNL1       -0.3327
     13 C           3.3291   -2.0050   -1.1661 C.ar    1  UNL1        0.0967
     14 N           4.5626   -1.7419   -1.6117 N.ar    1  UNL1       -0.2358
     15 C           4.9941   -0.5923   -1.0672 C.ar    1  UNL1        0.0887
     16 C           6.2716    0.0819   -1.2647 C.ar    1  UNL1        0.0018
     17 C           6.5907    1.2690   -0.6295 C.ar    1  UNL1       -0.0520
     18 C           7.7906    1.9015   -0.8170 C.ar    1  UNL1       -0.0495
     19 C           8.7465    1.3770   -1.6611 C.ar    1  UNL1        0.0548
     20 C          10.0618    2.0940   -1.8383 C.3     1  UNL1        0.4174
     21 F          10.7707    1.4372   -2.7946 F       1  UNL1       -0.1659
     22 F           9.8554    3.4205   -2.1366 F       1  UNL1       -0.1659
     23 F          10.7885    2.0518   -0.6476 F       1  UNL1       -0.1659
     24 C           8.4609    0.1958   -2.3125 C.ar    1  UNL1       -0.0495
     25 C           7.2178   -0.4364   -2.1006 C.ar    1  UNL1       -0.0520
     26 C           3.9747   -0.1576   -0.2679 C.ar    1  UNL1        0.0320
     27 C           0.6996    1.1102   -0.7382 C.3     1  UNL1        0.0011
     28 C           1.7273    1.3570   -1.8021 C.3     1  UNL1       -0.0566
     29 C          -0.6699    1.4655   -1.3449 C.3     1  UNL1       -0.0566
     30 C           0.8841    2.0928    0.4162 C.3     1  UNL1       -0.0566
     31 C          -4.9243   -0.9060    0.9120 C.2     1  UNL1        0.2376
     32 O          -6.0882   -1.3239    0.6713 O.2     1  UNL1       -0.2852
     33 C          -4.6946    0.5086    0.7007 C.2     1  UNL1        0.2867
     34 O          -3.5494    0.9489    0.9043 O.2     1  UNL1       -0.2666
     35 N          -5.7115    1.3930    0.2775 N.am    1  UNL1       -0.2643
     36 C          -5.4953    2.7696    0.0761 C.ar    1  UNL1        0.1205
     37 C          -6.4809    3.6791   -0.3546 C.ar    1  UNL1       -0.0023
     38 C          -5.8778    4.9167   -0.4121 C.ar    1  UNL1        0.0510
     39 N          -4.6145    4.7900   -0.0459 N.ar    1  UNL1       -0.1807
     40 N          -4.4002    3.4967    0.2434 N.ar    1  UNL1       -0.2639
     41 H          -4.0170   -4.8422    0.5983 H       1  UNL1        0.0230
     42 H          -5.5811   -3.9219    0.4054 H       1  UNL1        0.0230
     43 H          -5.5405   -5.7320    0.6214 H       1  UNL1        0.0230
     44 H          -6.1639   -5.2231    2.6954 H       1  UNL1        0.0263
     45 H          -4.3496   -5.1206    2.9366 H       1  UNL1        0.0263
     46 H          -6.3357   -2.8036    2.4953 H       1  UNL1        0.0266
     47 H          -5.5794   -3.3608    4.0479 H       1  UNL1        0.0266
     48 H          -4.3481   -1.4121    3.3872 H       1  UNL1        0.0287
     49 H          -3.2953   -2.8089    3.2133 H       1  UNL1        0.0287
     50 H          -3.7107   -2.5657    0.5905 H       1  UNL1        0.0583
     51 H          -2.5656   -0.4203    2.4291 H       1  UNL1        0.1527
     52 H           0.2236   -0.9364   -1.1174 H       1  UNL1        0.0758
     53 H           1.8980   -0.3701    1.3905 H       1  UNL1        0.0529
     54 H           1.4433   -1.9478    0.7238 H       1  UNL1        0.0529
     55 H           2.7503   -2.8911   -1.4647 H       1  UNL1        0.1029
     56 H           5.8412    1.6854    0.0412 H       1  UNL1        0.0624
     57 H           8.0375    2.8431   -0.3078 H       1  UNL1        0.0623
     58 H           9.1760   -0.2478   -2.9782 H       1  UNL1        0.0623
     59 H           7.0065   -1.3648   -2.6171 H       1  UNL1        0.0624
     60 H           4.0272    0.7610    0.3185 H       1  UNL1        0.0831
     61 H           2.0796    0.4590   -2.3111 H       1  UNL1        0.0236
     62 H           2.5176    2.0192   -1.3919 H       1  UNL1        0.0236
     63 H           1.2879    1.9885   -2.6405 H       1  UNL1        0.0236
     64 H          -1.0521    0.6696   -2.0024 H       1  UNL1        0.0236
     65 H          -0.4722    2.3795   -1.9683 H       1  UNL1        0.0236
     66 H          -1.3219    1.7063   -0.4836 H       1  UNL1        0.0236
     67 H           0.3273    3.0383    0.2600 H       1  UNL1        0.0236
     68 H           0.5055    1.6622    1.3727 H       1  UNL1        0.0236
     69 H           1.9704    2.3672    0.4864 H       1  UNL1        0.0236
     70 H          -6.6614    0.9506    0.1166 H       1  UNL1        0.1566
     71 H          -7.4889    3.3858   -0.5748 H       1  UNL1        0.0667
     72 H          -6.3935    5.8259   -0.7139 H       1  UNL1        0.0848
     73 H          -3.4546    3.1795    0.5554 H       1  UNL1        0.1903
@<TRIPOS>BOND
     1     1     2    1
     2     2     3    1
     3     3     4    1
     4     4     5    1
     5     5     6    1
     6     6     7   am
     7     7     8    2
     8     7     9    1
     9     9    10    1
    10    10    11    1
    11    11    12    1
    12    12    13   ar
    13    13    14   ar
    14    14    15   ar
    15    15    16    1
    16    16    17   ar
    17    17    18   ar
    18    18    19   ar
    19    19    20    1
    20    20    21    1
    21    20    22    1
    22    20    23    1
    23    19    24   ar
    24    24    25   ar
    25    15    26   ar
    26    10    27    1
    27    27    28    1
    28    27    29    1
    29    27    30    1
    30     5    31    1
    31    31    32    2
    32    31    33    1
    33    33    34    2
    34    33    35   am
    35    35    36    1
    36    36    37   ar
    37    37    38   ar
    38    38    39   ar
    39    39    40   ar
    40    26    12   ar
    41    40    36   ar
    42    25    16   ar
    43     1    41    1
    44     1    42    1
    45     1    43    1
    46     2    44    1
    47     2    45    1
    48     3    46    1
    49     3    47    1
    50     4    48    1
    51     4    49    1
    52     5    50    1
    53     6    51    1
    54    10    52    1
    55    11    53    1
    56    11    54    1
    57    13    55    1
    58    17    56    1
    59    18    57    1
    60    24    58    1
    61    25    59    1
    62    26    60    1
    63    28    61    1
    64    28    62    1
    65    28    63    1
    66    29    64    1
    67    29    65    1
    68    29    66    1
    69    30    67    1
    70    30    68    1
    71    30    69    1
    72    35    70    1
    73    37    71    1
    74    38    72    1
    75    40    73    1
