@<TRIPOS>MOLECULE
*****
 35 37 0 0 0
SMALL
GASTEIGER

@<TRIPOS>ATOM
      1 O           5.5245   -1.1791    0.6053 O.2     1  UNL1       -0.2510
      2 C           4.9607   -0.2749   -0.0885 C.2     1  UNL1        0.3064
      3 O           5.7349    0.8282   -0.4342 O.3     1  UNL1       -0.4806
      4 C           3.5600   -0.3527   -0.5250 C.3     1  UNL1        0.0627
      5 C           2.6116    0.1048    0.5844 C.3     1  UNL1        0.0334
      6 N           1.2324    0.0202    0.1432 N.ar    1  UNL1       -0.3458
      7 C           0.4957    0.9449   -0.4668 C.ar    1  UNL1        0.0106
      8 C          -0.7875    0.4813   -0.7264 C.ar    1  UNL1       -0.0025
      9 C          -1.8398    1.2789   -1.3870 C.3     1  UNL1        0.0511
     10 N          -2.8239    1.8052   -0.4509 N.ar    1  UNL1       -0.3324
     11 C          -3.9731    1.2500   -0.0363 C.ar    1  UNL1        0.0244
     12 C          -4.6305    2.0811    0.8706 C.ar    1  UNL1        0.0454
     13 N          -3.8399    3.1574    0.9900 N.ar    1  UNL1       -0.2441
     14 C          -2.7623    2.9989    0.2047 C.ar    1  UNL1        0.0962
     15 C          -0.8157   -0.8049   -0.2383 C.ar    1  UNL1        0.0061
     16 C          -1.8320   -1.7316   -0.2291 C.ar    1  UNL1       -0.0339
     17 C          -1.5815   -2.9724    0.3362 C.ar    1  UNL1        0.0417
     18 CL         -2.8252   -4.1856    0.3792 Cl      1  UNL1       -0.0835
     19 C          -0.3434   -3.2598    0.8716 C.ar    1  UNL1       -0.0414
     20 C           0.6646   -2.3035    0.8477 C.ar    1  UNL1       -0.0362
     21 C           0.4311   -1.0604    0.2876 C.ar    1  UNL1        0.0495
     22 H           6.4570    1.1768    0.1841 H       1  UNL1        0.2951
     23 H           3.2850   -1.3442   -0.9046 H       1  UNL1        0.0395
     24 H           3.4258    0.3486   -1.3818 H       1  UNL1        0.0395
     25 H           2.8018   -0.5939    1.4376 H       1  UNL1        0.0497
     26 H           2.8694    1.1503    0.8611 H       1  UNL1        0.0497
     27 H           0.8972    1.9333   -0.7118 H       1  UNL1        0.0812
     28 H          -1.3620    2.1599   -1.8617 H       1  UNL1        0.0542
     29 H          -2.3342    0.7017   -2.2008 H       1  UNL1        0.0542
     30 H          -4.3723    0.2784   -0.3474 H       1  UNL1        0.0825
     31 H          -5.5893    1.8625    1.3597 H       1  UNL1        0.0845
     32 H          -1.9580    3.7128    0.1046 H       1  UNL1        0.1029
     33 H          -2.7879   -1.4735   -0.6587 H       1  UNL1        0.0639
     34 H          -0.1392   -4.2266    1.3163 H       1  UNL1        0.0633
     35 H           1.6459   -2.5123    1.2654 H       1  UNL1        0.0639
@<TRIPOS>BOND
     1     1     2    2
     2     2     3    1
     3     2     4    1
     4     4     5    1
     5     5     6    1
     6     6     7   ar
     7     7     8   ar
     8     8     9    1
     9     9    10    1
    10    10    11   ar
    11    11    12   ar
    12    12    13   ar
    13    13    14   ar
    14     8    15   ar
    15    15    16   ar
    16    16    17   ar
    17    17    18    1
    18    17    19   ar
    19    19    20   ar
    20    20    21   ar
    21    21     6   ar
    22    14    10   ar
    23    21    15   ar
    24     3    22    1
    25     4    23    1
    26     4    24    1
    27     5    25    1
    28     5    26    1
    29     7    27    1
    30     9    28    1
    31     9    29    1
    32    11    30    1
    33    12    31    1
    34    14    32    1
    35    16    33    1
    36    19    34    1
    37    20    35    1
