@<TRIPOS>MOLECULE
*****
 14 13 0 0 0
SMALL
GASTEIGER

@<TRIPOS>ATOM
      1 O           2.6194    0.8641    0.1658 O.3     1  UNL1       -0.4806
      2 C           1.4252    0.1521    0.3976 C.2     1  UNL1        0.3052
      3 O           1.2251   -0.2491    1.5998 O.2     1  UNL1       -0.2510
      4 C           0.6230    0.0141   -0.8547 C.3     1  UNL1        0.0548
      5 C          -0.6455   -0.7800   -0.5838 C.3     1  UNL1        0.0548
      6 C          -1.4808   -0.1084    0.4575 C.2     1  UNL1        0.3052
      7 O          -2.3835    0.9342    0.3023 O.3     1  UNL1       -0.4806
      8 O          -1.4884   -0.4082    1.7042 O.2     1  UNL1       -0.2510
      9 H           3.3540    0.9268    0.8408 H       1  UNL1        0.2951
     10 H           1.2435   -0.5511   -1.5695 H       1  UNL1        0.0383
     11 H           0.4236    1.0265   -1.2696 H       1  UNL1        0.0383
     12 H          -0.3216   -1.7374   -0.1281 H       1  UNL1        0.0383
     13 H          -1.1969   -0.9281   -1.5335 H       1  UNL1        0.0383
     14 H          -3.3970    0.8446    0.4711 H       1  UNL1        0.2951
@<TRIPOS>BOND
     1     1     2    1
     2     2     3    2
     3     2     4    1
     4     4     5    1
     5     5     6    1
     6     6     7    1
     7     6     8    2
     8     1     9    1
     9     4    10    1
    10     4    11    1
    11     5    12    1
    12     5    13    1
    13     7    14    1
