
     RDKit          3D

 14 13  0  0  0  0  0  0  0  0999 V2000
    2.6194    0.8641    0.1658 O   0  0  0  0  0  0  0  0  0  0  0  0
    1.4252    0.1521    0.3976 C   0  0  0  0  0  0  0  0  0  0  0  0
    1.2251   -0.2491    1.5998 O   0  0  0  0  0  0  0  0  0  0  0  0
    0.6230    0.0141   -0.8547 C   0  0  0  0  0  0  0  0  0  0  0  0
   -0.6455   -0.7800   -0.5838 C   0  0  0  0  0  0  0  0  0  0  0  0
   -1.4808   -0.1084    0.4575 C   0  0  0  0  0  0  0  0  0  0  0  0
   -2.3835    0.9342    0.3023 O   0  0  0  0  0  0  0  0  0  0  0  0
   -1.4884   -0.4082    1.7042 O   0  0  0  0  0  0  0  0  0  0  0  0
    3.3540    0.9268    0.8408 H   0  0  0  0  0  0  0  0  0  0  0  0
    1.2435   -0.5511   -1.5695 H   0  0  0  0  0  0  0  0  0  0  0  0
    0.4236    1.0265   -1.2696 H   0  0  0  0  0  0  0  0  0  0  0  0
   -0.3216   -1.7374   -0.1281 H   0  0  0  0  0  0  0  0  0  0  0  0
   -1.1969   -0.9281   -1.5335 H   0  0  0  0  0  0  0  0  0  0  0  0
   -3.3970    0.8446    0.4711 H   0  0  0  0  0  0  0  0  0  0  0  0
  1  2  1  0
  2  3  2  0
  2  4  1  0
  4  5  1  0
  5  6  1  0
  6  7  1  0
  6  8  2  0
  1  9  1  0
  4 10  1  0
  4 11  1  0
  5 12  1  0
  5 13  1  0
  7 14  1  0
M  END
$$$$
