
     RDKit          3D

 86 92  0  0  0  0  0  0  0  0999 V2000
    1.7730   -2.5556   -1.3156 O   0  0  0  0  0  0  0  0  0  0  0  0
    2.7319   -2.0407   -0.7159 C   0  0  0  0  0  0  0  0  0  0  0  0
    4.1397   -2.2345   -1.2335 C   0  0  0  0  0  0  0  0  0  0  0  0
    5.0972   -1.5633   -0.3812 N   0  0  0  0  0  0  0  0  0  0  0  0
    5.4340   -0.2682   -0.6707 C   0  0  0  0  0  0  0  0  0  0  0  0
    4.8849    0.2547   -1.6709 O   0  0  0  0  0  0  0  0  0  0  0  0
    6.3262    0.4639    0.0711 C   0  0  0  0  0  0  0  0  0  0  0  0
    6.7057    1.8716   -0.2327 C   0  0  0  0  0  0  0  0  0  0  0  0
    7.6629    1.9420   -1.3571 C   0  0  0  0  0  0  0  0  0  0  0  0
    9.0279    1.7729   -1.1447 C   0  0  0  0  0  0  0  0  0  0  0  0
    9.9421    1.8423   -2.1781 C   0  0  0  0  0  0  0  0  0  0  0  0
    9.4799    2.0854   -3.4463 C   0  0  0  0  0  0  0  0  0  0  0  0
    8.1319    2.2576   -3.6889 C   0  0  0  0  0  0  0  0  0  0  0  0
    7.2303    2.1836   -2.6335 C   0  0  0  0  0  0  0  0  0  0  0  0
    6.8805   -0.1757    1.1440 N   0  0  0  0  0  0  0  0  0  0  0  0
    6.5832   -1.4451    1.4705 C   0  0  0  0  0  0  0  0  0  0  0  0
    7.1553   -2.0732    2.5642 C   0  0  0  0  0  0  0  0  0  0  0  0
    6.8288   -3.3735    2.8743 C   0  0  0  0  0  0  0  0  0  0  0  0
    5.9161   -4.0714    2.0875 C   0  0  0  0  0  0  0  0  0  0  0  0
    5.3364   -3.4575    0.9919 C   0  0  0  0  0  0  0  0  0  0  0  0
    5.6659   -2.1575    0.6853 C   0  0  0  0  0  0  0  0  0  0  0  0
    2.5068   -1.2782    0.4440 N   0  0  0  0  0  0  0  0  0  0  0  0
    1.3285   -0.9738    1.0904 N   0  0  0  0  0  0  0  0  0  0  0  0
    0.0098   -1.3416    0.7867 C   0  0  0  0  0  0  0  0  0  0  0  0
   -0.2399   -2.0483   -0.1939 O   0  0  0  0  0  0  0  0  0  0  0  0
   -1.1513   -0.9010    1.6292 C   0  0  0  0  0  0  0  0  0  0  0  0
   -1.1382    0.5622    1.8771 C   0  0  0  0  0  0  0  0  0  0  0  0
   -2.2560    1.0118    2.7282 C   0  0  0  0  0  0  0  0  0  0  0  0
   -2.1554    0.9758    4.1287 C   0  0  0  0  0  0  0  0  0  0  0  0
   -3.1510    1.4003    4.9648 C   0  0  0  0  0  0  0  0  0  0  0  0
   -4.3222    1.8932    4.4376 C   0  0  0  0  0  0  0  0  0  0  0  0
   -4.4622    1.9462    3.0701 C   0  0  0  0  0  0  0  0  0  0  0  0
   -3.4390    1.5101    2.2504 C   0  0  0  0  0  0  0  0  0  0  0  0
   -2.3717   -1.4562    1.1022 N   0  0  0  0  0  0  0  0  0  0  0  0
   -3.0498   -0.9987   -0.0551 C   0  0  0  0  0  0  0  0  0  0  0  0
   -2.6046   -0.0294   -0.7076 O   0  0  0  0  0  0  0  0  0  0  0  0
   -4.2121   -1.6292   -0.4718 O   0  0  0  0  0  0  0  0  0  0  0  0
   -4.9345   -1.2168   -1.6185 C   0  0  0  0  0  0  0  0  0  0  0  0
   -5.5017    0.1696   -1.4798 C   0  0  0  0  0  0  0  0  0  0  0  0
   -6.4599    0.2814   -0.3706 C   0  0  0  0  0  0  0  0  0  0  0  0
   -6.3623    0.0351    1.0074 C   0  0  0  0  0  0  0  0  0  0  0  0
   -7.4216    0.2327    1.8645 C   0  0  0  0  0  0  0  0  0  0  0  0
   -8.6086    0.6892    1.3192 C   0  0  0  0  0  0  0  0  0  0  0  0
   -8.7306    0.9376   -0.0300 C   0  0  0  0  0  0  0  0  0  0  0  0
   -7.6439    0.7309   -0.8860 C   0  0  0  0  0  0  0  0  0  0  0  0
   -7.5204    0.8870   -2.3334 C   0  0  0  0  0  0  0  0  0  0  0  0
   -8.4487    1.2949   -3.2943 C   0  0  0  0  0  0  0  0  0  0  0  0
   -8.0606    1.3269   -4.5968 C   0  0  0  0  0  0  0  0  0  0  0  0
   -6.7830    0.9702   -4.9964 C   0  0  0  0  0  0  0  0  0  0  0  0
   -5.8718    0.5701   -4.0514 C   0  0  0  0  0  0  0  0  0  0  0  0
   -6.2506    0.5291   -2.6937 C   0  0  0  0  0  0  0  0  0  0  0  0
    4.1256   -1.6893   -2.2244 H   0  0  0  0  0  0  0  0  0  0  0  0
    4.3697   -3.2648   -1.4878 H   0  0  0  0  0  0  0  0  0  0  0  0
    7.1389    2.3061    0.7079 H   0  0  0  0  0  0  0  0  0  0  0  0
    5.7757    2.4431   -0.4373 H   0  0  0  0  0  0  0  0  0  0  0  0
    9.3221    1.5836   -0.1125 H   0  0  0  0  0  0  0  0  0  0  0  0
   10.9810    1.7041   -1.9530 H   0  0  0  0  0  0  0  0  0  0  0  0
   10.2070    2.1392   -4.2606 H   0  0  0  0  0  0  0  0  0  0  0  0
    7.8273    2.4461   -4.7050 H   0  0  0  0  0  0  0  0  0  0  0  0
    6.1879    2.3253   -2.8372 H   0  0  0  0  0  0  0  0  0  0  0  0
    7.8567   -1.5035    3.1496 H   0  0  0  0  0  0  0  0  0  0  0  0
    7.2629   -3.8838    3.7249 H   0  0  0  0  0  0  0  0  0  0  0  0
    5.6356   -5.0922    2.3003 H   0  0  0  0  0  0  0  0  0  0  0  0
    4.6263   -3.9624    0.3635 H   0  0  0  0  0  0  0  0  0  0  0  0
    3.3991   -0.8664    0.8997 H   0  0  0  0  0  0  0  0  0  0  0  0
    1.3844   -0.3549    1.9810 H   0  0  0  0  0  0  0  0  0  0  0  0
   -0.9849   -1.3838    2.6365 H   0  0  0  0  0  0  0  0  0  0  0  0
   -0.2121    0.7890    2.4527 H   0  0  0  0  0  0  0  0  0  0  0  0
   -1.0466    1.1720    0.9513 H   0  0  0  0  0  0  0  0  0  0  0  0
   -1.2431    0.5921    4.5693 H   0  0  0  0  0  0  0  0  0  0  0  0
   -3.0356    1.3562    6.0532 H   0  0  0  0  0  0  0  0  0  0  0  0
   -5.1518    2.2464    5.0350 H   0  0  0  0  0  0  0  0  0  0  0  0
   -5.3634    2.3256    2.6218 H   0  0  0  0  0  0  0  0  0  0  0  0
   -3.6051    1.5809    1.2058 H   0  0  0  0  0  0  0  0  0  0  0  0
   -2.8368   -2.2814    1.5934 H   0  0  0  0  0  0  0  0  0  0  0  0
   -5.7971   -1.9072   -1.7159 H   0  0  0  0  0  0  0  0  0  0  0  0
   -4.3505   -1.2906   -2.5493 H   0  0  0  0  0  0  0  0  0  0  0  0
   -4.6516    0.9190   -1.3539 H   0  0  0  0  0  0  0  0  0  0  0  0
   -5.4374   -0.3308    1.4267 H   0  0  0  0  0  0  0  0  0  0  0  0
   -7.3530    0.0446    2.9304 H   0  0  0  0  0  0  0  0  0  0  0  0
   -9.4630    0.8532    1.9835 H   0  0  0  0  0  0  0  0  0  0  0  0
   -9.6442    1.2926   -0.4759 H   0  0  0  0  0  0  0  0  0  0  0  0
   -9.4382    1.5658   -2.9411 H   0  0  0  0  0  0  0  0  0  0  0  0
   -8.7770    1.6413   -5.3363 H   0  0  0  0  0  0  0  0  0  0  0  0
   -6.4853    1.0005   -6.0471 H   0  0  0  0  0  0  0  0  0  0  0  0
   -4.8508    0.2751   -4.2895 H   0  0  0  0  0  0  0  0  0  0  0  0
  1  2  2  0
  2  3  1  0
  3  4  1  0
  4  5  1  0
  5  6  2  0
  5  7  1  0
  7  8  1  0
  8  9  1  0
  9 10  2  0
 10 11  1  0
 11 12  2  0
 12 13  1  0
 13 14  2  0
  7 15  2  0
 15 16  1  0
 16 17  2  0
 17 18  1  0
 18 19  2  0
 19 20  1  0
 20 21  2  0
  2 22  1  0
 22 23  1  0
 23 24  1  0
 24 25  2  0
 24 26  1  0
 26 27  1  0
 27 28  1  0
 28 29  2  0
 29 30  1  0
 30 31  2  0
 31 32  1  0
 32 33  2  0
 26 34  1  0
 34 35  1  0
 35 36  2  0
 35 37  1  0
 37 38  1  0
 38 39  1  0
 39 40  1  0
 40 41  2  0
 41 42  1  0
 42 43  2  0
 43 44  1  0
 44 45  2  0
 45 46  1  0
 46 47  2  0
 47 48  1  0
 48 49  2  0
 49 50  1  0
 50 51  2  0
 21  4  1  0
 33 28  1  0
 51 39  1  0
 14  9  1  0
 21 16  1  0
 45 40  1  0
 51 46  1  0
  3 52  1  0
  3 53  1  0
  8 54  1  0
  8 55  1  0
 10 56  1  0
 11 57  1  0
 12 58  1  0
 13 59  1  0
 14 60  1  0
 17 61  1  0
 18 62  1  0
 19 63  1  0
 20 64  1  0
 22 65  1  0
 23 66  1  0
 26 67  1  0
 27 68  1  0
 27 69  1  0
 29 70  1  0
 30 71  1  0
 31 72  1  0
 32 73  1  0
 33 74  1  0
 34 75  1  0
 38 76  1  0
 38 77  1  0
 39 78  1  0
 41 79  1  0
 42 80  1  0
 43 81  1  0
 44 82  1  0
 47 83  1  0
 48 84  1  0
 49 85  1  0
 50 86  1  0
M  END
$$$$
