@<TRIPOS>MOLECULE
*****
 86 92 0 0 0
SMALL
GASTEIGER

@<TRIPOS>ATOM
      1 O           1.7730   -2.5556   -1.3156 O.2     1  UNL1       -0.2723
      2 C           2.7319   -2.0407   -0.7159 C.2     1  UNL1        0.2490
      3 C           4.1397   -2.2345   -1.2335 C.3     1  UNL1        0.1044
      4 N           5.0972   -1.5633   -0.3812 N.ar    1  UNL1       -0.2963
      5 C           5.4340   -0.2682   -0.6707 C.ar    1  UNL1        0.2739
      6 O           4.8849    0.2547   -1.6709 O.2     1  UNL1       -0.2657
      7 C           6.3262    0.4639    0.0711 C.ar    1  UNL1        0.1105
      8 C           6.7057    1.8716   -0.2327 C.3     1  UNL1        0.0201
      9 C           7.6629    1.9420   -1.3571 C.ar    1  UNL1       -0.0414
     10 C           9.0279    1.7729   -1.1447 C.ar    1  UNL1       -0.0582
     11 C           9.9421    1.8423   -2.1781 C.ar    1  UNL1       -0.0615
     12 C           9.4799    2.0854   -3.4463 C.ar    1  UNL1       -0.0617
     13 C           8.1319    2.2576   -3.6889 C.ar    1  UNL1       -0.0615
     14 C           7.2303    2.1836   -2.6335 C.ar    1  UNL1       -0.0582
     15 N           6.8805   -0.1757    1.1440 N.ar    1  UNL1       -0.2444
     16 C           6.5832   -1.4451    1.4705 C.ar    1  UNL1        0.0879
     17 C           7.1553   -2.0732    2.5642 C.ar    1  UNL1       -0.0343
     18 C           6.8288   -3.3735    2.8743 C.ar    1  UNL1       -0.0596
     19 C           5.9161   -4.0714    2.0875 C.ar    1  UNL1       -0.0597
     20 C           5.3364   -3.4575    0.9919 C.ar    1  UNL1       -0.0360
     21 C           5.6659   -2.1575    0.6853 C.ar    1  UNL1        0.0708
     22 N           2.5068   -1.2782    0.4440 N.am    1  UNL1       -0.2329
     23 N           1.3285   -0.9738    1.0904 N.am    1  UNL1       -0.2328
     24 C           0.0098   -1.3416    0.7867 C.2     1  UNL1        0.2498
     25 O          -0.2399   -2.0483   -0.1939 O.2     1  UNL1       -0.2722
     26 C          -1.1513   -0.9010    1.6292 C.3     1  UNL1        0.1078
     27 C          -1.1382    0.5622    1.8771 C.3     1  UNL1       -0.0005
     28 C          -2.2560    1.0118    2.7282 C.ar    1  UNL1       -0.0451
     29 C          -2.1554    0.9758    4.1287 C.ar    1  UNL1       -0.0585
     30 C          -3.1510    1.4003    4.9648 C.ar    1  UNL1       -0.0615
     31 C          -4.3222    1.8932    4.4376 C.ar    1  UNL1       -0.0617
     32 C          -4.4622    1.9462    3.0701 C.ar    1  UNL1       -0.0615
     33 C          -3.4390    1.5101    2.2504 C.ar    1  UNL1       -0.0585
     34 N          -2.3717   -1.4562    1.1022 N.am    1  UNL1       -0.2695
     35 C          -3.0498   -0.9987   -0.0551 C.2     1  UNL1        0.4009
     36 O          -2.6046   -0.0294   -0.7076 O.2     1  UNL1       -0.2265
     37 O          -4.2121   -1.6292   -0.4718 O.3     1  UNL1       -0.4494
     38 C          -4.9345   -1.2168   -1.6185 C.3     1  UNL1        0.1048
     39 C          -5.5017    0.1696   -1.4798 C.3     1  UNL1        0.0446
     40 C          -6.4599    0.2814   -0.3706 C.ar    1  UNL1       -0.0290
     41 C          -6.3623    0.0351    1.0074 C.ar    1  UNL1       -0.0573
     42 C          -7.4216    0.2327    1.8645 C.ar    1  UNL1       -0.0614
     43 C          -8.6086    0.6892    1.3192 C.ar    1  UNL1       -0.0612
     44 C          -8.7306    0.9376   -0.0300 C.ar    1  UNL1       -0.0537
     45 C          -7.6439    0.7309   -0.8860 C.ar    1  UNL1       -0.0137
     46 C          -7.5204    0.8870   -2.3334 C.ar    1  UNL1       -0.0137
     47 C          -8.4487    1.2949   -3.2943 C.ar    1  UNL1       -0.0537
     48 C          -8.0606    1.3269   -4.5968 C.ar    1  UNL1       -0.0612
     49 C          -6.7830    0.9702   -4.9964 C.ar    1  UNL1       -0.0614
     50 C          -5.8718    0.5701   -4.0514 C.ar    1  UNL1       -0.0573
     51 C          -6.2506    0.5291   -2.6937 C.ar    1  UNL1       -0.0290
     52 H           4.1256   -1.6893   -2.2244 H       1  UNL1        0.0589
     53 H           4.3697   -3.2648   -1.4878 H       1  UNL1        0.0589
     54 H           7.1389    2.3061    0.7079 H       1  UNL1        0.0378
     55 H           5.7757    2.4431   -0.4373 H       1  UNL1        0.0378
     56 H           9.3221    1.5836   -0.1125 H       1  UNL1        0.0620
     57 H          10.9810    1.7041   -1.9530 H       1  UNL1        0.0618
     58 H          10.2070    2.1392   -4.2606 H       1  UNL1        0.0618
     59 H           7.8273    2.4461   -4.7050 H       1  UNL1        0.0618
     60 H           6.1879    2.3253   -2.8372 H       1  UNL1        0.0620
     61 H           7.8567   -1.5035    3.1496 H       1  UNL1        0.0639
     62 H           7.2629   -3.8838    3.7249 H       1  UNL1        0.0618
     63 H           5.6356   -5.0922    2.3003 H       1  UNL1        0.0618
     64 H           4.6263   -3.9624    0.3635 H       1  UNL1        0.0639
     65 H           3.3991   -0.8664    0.8997 H       1  UNL1        0.1728
     66 H           1.3844   -0.3549    1.9810 H       1  UNL1        0.1728
     67 H          -0.9849   -1.3838    2.6365 H       1  UNL1        0.0599
     68 H          -0.2121    0.7890    2.4527 H       1  UNL1        0.0336
     69 H          -1.0466    1.1720    0.9513 H       1  UNL1        0.0336
     70 H          -1.2431    0.5921    4.5693 H       1  UNL1        0.0620
     71 H          -3.0356    1.3562    6.0532 H       1  UNL1        0.0618
     72 H          -5.1518    2.2464    5.0350 H       1  UNL1        0.0618
     73 H          -5.3634    2.3256    2.6218 H       1  UNL1        0.0618
     74 H          -3.6051    1.5809    1.2058 H       1  UNL1        0.0620
     75 H          -2.8368   -2.2814    1.5934 H       1  UNL1        0.1528
     76 H          -5.7971   -1.9072   -1.7159 H       1  UNL1        0.0707
     77 H          -4.3505   -1.2906   -2.5493 H       1  UNL1        0.0707
     78 H          -4.6516    0.9190   -1.3539 H       1  UNL1        0.0431
     79 H          -5.4374   -0.3308    1.4267 H       1  UNL1        0.0621
     80 H          -7.3530    0.0446    2.9304 H       1  UNL1        0.0618
     81 H          -9.4630    0.8532    1.9835 H       1  UNL1        0.0618
     82 H          -9.6442    1.2926   -0.4759 H       1  UNL1        0.0624
     83 H          -9.4382    1.5658   -2.9411 H       1  UNL1        0.0624
     84 H          -8.7770    1.6413   -5.3363 H       1  UNL1        0.0618
     85 H          -6.4853    1.0005   -6.0471 H       1  UNL1        0.0618
     86 H          -4.8508    0.2751   -4.2895 H       1  UNL1        0.0621
@<TRIPOS>BOND
     1     1     2    2
     2     2     3    1
     3     3     4    1
     4     4     5   ar
     5     5     6    2
     6     5     7   ar
     7     7     8    1
     8     8     9    1
     9     9    10   ar
    10    10    11   ar
    11    11    12   ar
    12    12    13   ar
    13    13    14   ar
    14     7    15   ar
    15    15    16   ar
    16    16    17   ar
    17    17    18   ar
    18    18    19   ar
    19    19    20   ar
    20    20    21   ar
    21     2    22   am
    22    22    23    1
    23    23    24   am
    24    24    25    2
    25    24    26    1
    26    26    27    1
    27    27    28    1
    28    28    29   ar
    29    29    30   ar
    30    30    31   ar
    31    31    32   ar
    32    32    33   ar
    33    26    34    1
    34    34    35   am
    35    35    36    2
    36    35    37    1
    37    37    38    1
    38    38    39    1
    39    39    40    1
    40    40    41   ar
    41    41    42   ar
    42    42    43   ar
    43    43    44   ar
    44    44    45   ar
    45    45    46    1
    46    46    47   ar
    47    47    48   ar
    48    48    49   ar
    49    49    50   ar
    50    50    51   ar
    51    21     4   ar
    52    33    28   ar
    53    51    39    1
    54    14     9   ar
    55    21    16   ar
    56    45    40   ar
    57    51    46   ar
    58     3    52    1
    59     3    53    1
    60     8    54    1
    61     8    55    1
    62    10    56    1
    63    11    57    1
    64    12    58    1
    65    13    59    1
    66    14    60    1
    67    17    61    1
    68    18    62    1
    69    19    63    1
    70    20    64    1
    71    22    65    1
    72    23    66    1
    73    26    67    1
    74    27    68    1
    75    27    69    1
    76    29    70    1
    77    30    71    1
    78    31    72    1
    79    32    73    1
    80    33    74    1
    81    34    75    1
    82    38    76    1
    83    38    77    1
    84    39    78    1
    85    41    79    1
    86    42    80    1
    87    43    81    1
    88    44    82    1
    89    47    83    1
    90    48    84    1
    91    49    85    1
    92    50    86    1
