@<TRIPOS>MOLECULE
*****
 34 35 0 0 0
SMALL
GASTEIGER

@<TRIPOS>ATOM
      1 N           6.3183    1.2644    0.8526 N.3     1  UNL1       -0.2035
      2 S           5.7247   -0.3090    0.4672 S.O2    1  UNL1        0.0559
      3 O           5.8506   -1.2097    1.6755 O.2     1  UNL1       -0.1533
      4 O           6.5094   -0.8232   -0.7062 O.2     1  UNL1       -0.1533
      5 C           4.0485   -0.1807   -0.0430 C.ar    1  UNL1        0.1050
      6 C           3.6804    0.0213   -1.3517 C.ar    1  UNL1       -0.0346
      7 C           2.3478    0.1179   -1.7202 C.ar    1  UNL1       -0.0478
      8 C           1.3524    0.0111   -0.7646 C.ar    1  UNL1        0.0368
      9 C           1.7041   -0.1920    0.5547 C.ar    1  UNL1       -0.0478
     10 C           3.0381   -0.2843    0.8935 C.ar    1  UNL1       -0.0346
     11 C          -0.0295    0.1235   -1.2219 C.2     1  UNL1        0.2443
     12 O          -0.2300    0.3180   -2.4472 O.2     1  UNL1       -0.2702
     13 N          -1.1466    0.0232   -0.3457 N.am    1  UNL1       -0.3070
     14 C          -2.3824    0.1758   -1.0869 C.3     1  UNL1        0.0426
     15 C          -3.5904    0.0841   -0.2623 C.ar    1  UNL1        0.0399
     16 C          -3.8829   -1.2258    0.0895 C.ar    1  UNL1        0.1308
     17 F          -3.1604   -2.3373   -0.2654 F       1  UNL1       -0.2051
     18 C          -4.9897   -1.5443    0.8725 C.ar    1  UNL1       -0.0259
     19 C          -5.7932   -0.4977    1.2898 C.ar    1  UNL1       -0.0563
     20 C          -5.5309    0.8322    0.9560 C.ar    1  UNL1       -0.0259
     21 C          -4.4245    1.0886    0.1807 C.ar    1  UNL1        0.1308
     22 F          -4.0537    2.3310   -0.2154 F       1  UNL1       -0.2051
     23 H           6.0547    1.9247    0.0951 H       1  UNL1        0.1442
     24 H           5.8153    1.5853    1.7165 H       1  UNL1        0.1442
     25 H           4.4538    0.1066   -2.1120 H       1  UNL1        0.0637
     26 H           2.1352    0.2776   -2.7702 H       1  UNL1        0.0626
     27 H           0.9346   -0.2757    1.3014 H       1  UNL1        0.0626
     28 H           3.2368   -0.4445    1.9459 H       1  UNL1        0.0637
     29 H          -0.9979   -0.1393    0.6742 H       1  UNL1        0.1493
     30 H          -2.4819   -0.5314   -1.9350 H       1  UNL1        0.0513
     31 H          -2.3929    1.2061   -1.5472 H       1  UNL1        0.0513
     32 H          -5.2658   -2.5381    1.1758 H       1  UNL1        0.0646
     33 H          -6.6939   -0.6143    1.9100 H       1  UNL1        0.0619
     34 H          -6.1580    1.6556    1.2810 H       1  UNL1        0.0646
@<TRIPOS>BOND
     1     1     2    1
     2     2     3    2
     3     2     4    2
     4     2     5    1
     5     5     6   ar
     6     6     7   ar
     7     7     8   ar
     8     8     9   ar
     9     9    10   ar
    10     8    11    1
    11    11    12    2
    12    11    13   am
    13    13    14    1
    14    14    15    1
    15    15    16   ar
    16    16    17    1
    17    16    18   ar
    18    18    19   ar
    19    19    20   ar
    20    20    21   ar
    21    21    22    1
    22    10     5   ar
    23    21    15   ar
    24     1    23    1
    25     1    24    1
    26     6    25    1
    27     7    26    1
    28     9    27    1
    29    10    28    1
    30    13    29    1
    31    14    30    1
    32    14    31    1
    33    18    32    1
    34    19    33    1
    35    20    34    1
