
     RDKit          3D

 34 35  0  0  0  0  0  0  0  0999 V2000
    6.3183    1.2644    0.8526 N   0  0  0  0  0  0  0  0  0  0  0  0
    5.7247   -0.3090    0.4672 S   0  0  0  0  0  0  0  0  0  0  0  0
    5.8506   -1.2097    1.6755 O   0  0  0  0  0  0  0  0  0  0  0  0
    6.5094   -0.8232   -0.7062 O   0  0  0  0  0  0  0  0  0  0  0  0
    4.0485   -0.1807   -0.0430 C   0  0  0  0  0  0  0  0  0  0  0  0
    3.6804    0.0213   -1.3517 C   0  0  0  0  0  0  0  0  0  0  0  0
    2.3478    0.1179   -1.7202 C   0  0  0  0  0  0  0  0  0  0  0  0
    1.3524    0.0111   -0.7646 C   0  0  0  0  0  0  0  0  0  0  0  0
    1.7041   -0.1920    0.5547 C   0  0  0  0  0  0  0  0  0  0  0  0
    3.0381   -0.2843    0.8935 C   0  0  0  0  0  0  0  0  0  0  0  0
   -0.0295    0.1235   -1.2219 C   0  0  0  0  0  0  0  0  0  0  0  0
   -0.2300    0.3180   -2.4472 O   0  0  0  0  0  0  0  0  0  0  0  0
   -1.1466    0.0232   -0.3457 N   0  0  0  0  0  0  0  0  0  0  0  0
   -2.3824    0.1758   -1.0869 C   0  0  0  0  0  0  0  0  0  0  0  0
   -3.5904    0.0841   -0.2623 C   0  0  0  0  0  0  0  0  0  0  0  0
   -3.8829   -1.2258    0.0895 C   0  0  0  0  0  0  0  0  0  0  0  0
   -3.1604   -2.3373   -0.2654 F   0  0  0  0  0  0  0  0  0  0  0  0
   -4.9897   -1.5443    0.8725 C   0  0  0  0  0  0  0  0  0  0  0  0
   -5.7932   -0.4977    1.2898 C   0  0  0  0  0  0  0  0  0  0  0  0
   -5.5309    0.8322    0.9560 C   0  0  0  0  0  0  0  0  0  0  0  0
   -4.4245    1.0886    0.1807 C   0  0  0  0  0  0  0  0  0  0  0  0
   -4.0537    2.3310   -0.2154 F   0  0  0  0  0  0  0  0  0  0  0  0
    6.0547    1.9247    0.0951 H   0  0  0  0  0  0  0  0  0  0  0  0
    5.8153    1.5853    1.7165 H   0  0  0  0  0  0  0  0  0  0  0  0
    4.4538    0.1066   -2.1120 H   0  0  0  0  0  0  0  0  0  0  0  0
    2.1352    0.2776   -2.7702 H   0  0  0  0  0  0  0  0  0  0  0  0
    0.9346   -0.2757    1.3014 H   0  0  0  0  0  0  0  0  0  0  0  0
    3.2368   -0.4445    1.9459 H   0  0  0  0  0  0  0  0  0  0  0  0
   -0.9979   -0.1393    0.6742 H   0  0  0  0  0  0  0  0  0  0  0  0
   -2.4819   -0.5314   -1.9350 H   0  0  0  0  0  0  0  0  0  0  0  0
   -2.3929    1.2061   -1.5472 H   0  0  0  0  0  0  0  0  0  0  0  0
   -5.2658   -2.5381    1.1758 H   0  0  0  0  0  0  0  0  0  0  0  0
   -6.6939   -0.6143    1.9100 H   0  0  0  0  0  0  0  0  0  0  0  0
   -6.1580    1.6556    1.2810 H   0  0  0  0  0  0  0  0  0  0  0  0
  1  2  1  0
  2  3  2  0
  2  4  2  0
  2  5  1  0
  5  6  2  0
  6  7  1  0
  7  8  2  0
  8  9  1  0
  9 10  2  0
  8 11  1  0
 11 12  2  0
 11 13  1  0
 13 14  1  0
 14 15  1  0
 15 16  2  0
 16 17  1  0
 16 18  1  0
 18 19  2  0
 19 20  1  0
 20 21  2  0
 21 22  1  0
 10  5  1  0
 21 15  1  0
  1 23  1  0
  1 24  1  0
  6 25  1  0
  7 26  1  0
  9 27  1  0
 10 28  1  0
 13 29  1  0
 14 30  1  0
 14 31  1  0
 18 32  1  0
 19 33  1  0
 20 34  1  0
M  END
$$$$
