
     RDKit          3D

 44 44  0  0  0  0  0  0  0  0999 V2000
    0.6099   -1.5128    1.9328 C   0  0  0  0  0  0  0  0  0  0  0  0
    1.0584   -1.1538    0.5006 C   0  0  0  0  0  0  0  0  0  0  0  0
    2.3122   -1.4323    0.2934 C   0  0  0  0  0  0  0  0  0  0  0  0
    3.1840   -1.3085   -0.8299 C   0  0  0  0  0  0  0  0  0  0  0  0
    2.6955   -1.4009   -2.2113 C   0  0  0  0  0  0  0  0  0  0  0  0
    4.2790   -0.2921   -0.6458 C   0  0  0  0  0  0  0  0  0  0  0  0
    4.1281    0.7190    0.1816 C   0  0  0  0  0  0  0  0  0  0  0  0
    5.1691    1.6984    0.3664 C   0  0  0  0  0  0  0  0  0  0  0  0
    4.9783    2.6834    1.1945 O   0  0  0  0  0  0  0  0  0  0  0  0
    6.4233    1.6976   -0.2835 N   0  0  0  0  0  0  0  0  0  0  0  0
    7.3446    2.6504   -0.0546 O   0  0  0  0  0  0  0  0  0  0  0  0
    0.1580   -0.4185   -0.3167 C   0  0  0  0  0  0  0  0  0  0  0  0
    0.6500    0.1566   -1.3811 O   0  0  0  0  0  0  0  0  0  0  0  0
   -1.2624   -0.2025   -0.1407 C   0  0  0  0  0  0  0  0  0  0  0  0
   -1.8959    0.7386   -0.9941 C   0  0  0  0  0  0  0  0  0  0  0  0
   -3.2264    0.9947   -0.9504 C   0  0  0  0  0  0  0  0  0  0  0  0
   -4.0174    0.3210   -0.0411 C   0  0  0  0  0  0  0  0  0  0  0  0
   -5.4105    0.5989   -0.0063 N   0  0  0  0  0  0  0  0  0  0  0  0
   -6.2928   -0.0904    0.9232 C   0  0  0  0  0  0  0  0  0  0  0  0
   -5.9599    1.5822   -0.9127 C   0  0  0  0  0  0  0  0  0  0  0  0
   -3.4700   -0.6034    0.8150 C   0  0  0  0  0  0  0  0  0  0  0  0
   -2.0876   -0.8277    0.7220 C   0  0  0  0  0  0  0  0  0  0  0  0
    0.1960   -2.5029    1.8799 H   0  0  0  0  0  0  0  0  0  0  0  0
    1.5519   -1.5650    2.5845 H   0  0  0  0  0  0  0  0  0  0  0  0
    0.0111   -0.7402    2.3699 H   0  0  0  0  0  0  0  0  0  0  0  0
    2.8166   -1.8680    1.2423 H   0  0  0  0  0  0  0  0  0  0  0  0
    3.8501   -2.3122   -0.7234 H   0  0  0  0  0  0  0  0  0  0  0  0
    1.7555   -1.9366   -2.3849 H   0  0  0  0  0  0  0  0  0  0  0  0
    3.5199   -1.9515   -2.8369 H   0  0  0  0  0  0  0  0  0  0  0  0
    2.6721   -0.4306   -2.7348 H   0  0  0  0  0  0  0  0  0  0  0  0
    5.1827   -0.4249   -1.2159 H   0  0  0  0  0  0  0  0  0  0  0  0
    3.2111    0.8099    0.7283 H   0  0  0  0  0  0  0  0  0  0  0  0
    6.6382    0.9420   -0.9542 H   0  0  0  0  0  0  0  0  0  0  0  0
    8.0110    2.4082    0.6099 H   0  0  0  0  0  0  0  0  0  0  0  0
   -1.2948    1.2762   -1.7098 H   0  0  0  0  0  0  0  0  0  0  0  0
   -3.7166    1.7098   -1.6039 H   0  0  0  0  0  0  0  0  0  0  0  0
   -6.0093   -1.1434    1.0551 H   0  0  0  0  0  0  0  0  0  0  0  0
   -7.3413   -0.1373    0.4932 H   0  0  0  0  0  0  0  0  0  0  0  0
   -6.2905    0.3919    1.9202 H   0  0  0  0  0  0  0  0  0  0  0  0
   -5.3794    2.5151   -0.7988 H   0  0  0  0  0  0  0  0  0  0  0  0
   -5.9260    1.2469   -1.9725 H   0  0  0  0  0  0  0  0  0  0  0  0
   -7.0009    1.8210   -0.6152 H   0  0  0  0  0  0  0  0  0  0  0  0
   -4.0816   -1.1174    1.5197 H   0  0  0  0  0  0  0  0  0  0  0  0
   -1.7435   -1.5890    1.3911 H   0  0  0  0  0  0  0  0  0  0  0  0
  1  2  1  0
  2  3  2  3
  3  4  1  0
  4  5  1  0
  4  6  1  0
  6  7  2  3
  7  8  1  0
  8  9  2  0
  8 10  1  0
 10 11  1  0
  2 12  1  0
 12 13  2  0
 12 14  1  0
 14 15  2  0
 15 16  1  0
 16 17  2  0
 17 18  1  0
 18 19  1  0
 18 20  1  0
 17 21  1  0
 21 22  2  0
 22 14  1  0
  1 23  1  0
  1 24  1  0
  1 25  1  0
  3 26  1  0
  4 27  1  0
  5 28  1  0
  5 29  1  0
  5 30  1  0
  6 31  1  0
  7 32  1  0
 10 33  1  0
 11 34  1  0
 15 35  1  0
 16 36  1  0
 19 37  1  0
 19 38  1  0
 19 39  1  0
 20 40  1  0
 20 41  1  0
 20 42  1  0
 21 43  1  0
 22 44  1  0
M  END
$$$$
