@<TRIPOS>MOLECULE
*****
 44 44 0 0 0
SMALL
GASTEIGER

@<TRIPOS>ATOM
      1 C           0.6099   -1.5128    1.9328 C.3     1  UNL1       -0.0363
      2 C           1.0584   -1.1538    0.5006 C.2     1  UNL1       -0.0066
      3 C           2.3122   -1.4323    0.2934 C.2     1  UNL1       -0.0709
      4 C           3.1840   -1.3085   -0.8299 C.3     1  UNL1       -0.0066
      5 C           2.6955   -1.4009   -2.2113 C.3     1  UNL1       -0.0554
      6 C           4.2790   -0.2921   -0.6458 C.2     1  UNL1       -0.0725
      7 C           4.1281    0.7190    0.1816 C.2     1  UNL1       -0.0012
      8 C           5.1691    1.6984    0.3664 C.2     1  UNL1        0.2591
      9 O           4.9783    2.6834    1.1945 O.2     1  UNL1       -0.2688
     10 N           6.4233    1.6976   -0.2835 N.am    1  UNL1       -0.1940
     11 O           7.3446    2.6504   -0.0546 O.3     1  UNL1       -0.2949
     12 C           0.1580   -0.4185   -0.3167 C.2     1  UNL1        0.1887
     13 O           0.6500    0.1566   -1.3811 O.2     1  UNL1       -0.2870
     14 C          -1.2624   -0.2025   -0.1407 C.ar    1  UNL1        0.0220
     15 C          -1.8959    0.7386   -0.9941 C.ar    1  UNL1       -0.0492
     16 C          -3.2264    0.9947   -0.9504 C.ar    1  UNL1       -0.0400
     17 C          -4.0174    0.3210   -0.0411 C.ar    1  UNL1        0.0292
     18 N          -5.4105    0.5989   -0.0063 N.pl3   1  UNL1       -0.3360
     19 C          -6.2928   -0.0904    0.9232 C.3     1  UNL1        0.0004
     20 C          -5.9599    1.5822   -0.9127 C.3     1  UNL1        0.0004
     21 C          -3.4700   -0.6034    0.8150 C.ar    1  UNL1       -0.0400
     22 C          -2.0876   -0.8277    0.7220 C.ar    1  UNL1       -0.0492
     23 H           0.1960   -2.5029    1.8799 H       1  UNL1        0.0279
     24 H           1.5519   -1.5650    2.5845 H       1  UNL1        0.0279
     25 H           0.0111   -0.7402    2.3699 H       1  UNL1        0.0279
     26 H           2.8166   -1.8680    1.2423 H       1  UNL1        0.0582
     27 H           3.8501   -2.3122   -0.7234 H       1  UNL1        0.0383
     28 H           1.7555   -1.9366   -2.3849 H       1  UNL1        0.0238
     29 H           3.5199   -1.9515   -2.8369 H       1  UNL1        0.0238
     30 H           2.6721   -0.4306   -2.7348 H       1  UNL1        0.0238
     31 H           5.1827   -0.4249   -1.2159 H       1  UNL1        0.0579
     32 H           3.2111    0.8099    0.7283 H       1  UNL1        0.0667
     33 H           6.6382    0.9420   -0.9542 H       1  UNL1        0.1825
     34 H           8.0110    2.4082    0.6099 H       1  UNL1        0.2414
     35 H          -1.2948    1.2762   -1.7098 H       1  UNL1        0.0625
     36 H          -3.7166    1.7098   -1.6039 H       1  UNL1        0.0636
     37 H          -6.0093   -1.1434    1.0551 H       1  UNL1        0.0428
     38 H          -7.3413   -0.1373    0.4932 H       1  UNL1        0.0428
     39 H          -6.2905    0.3919    1.9202 H       1  UNL1        0.0428
     40 H          -5.3794    2.5151   -0.7988 H       1  UNL1        0.0428
     41 H          -5.9260    1.2469   -1.9725 H       1  UNL1        0.0428
     42 H          -7.0009    1.8210   -0.6152 H       1  UNL1        0.0428
     43 H          -4.0816   -1.1174    1.5197 H       1  UNL1        0.0636
     44 H          -1.7435   -1.5890    1.3911 H       1  UNL1        0.0625
@<TRIPOS>BOND
     1     1     2    1
     2     2     3    2
     3     3     4    1
     4     4     5    1
     5     4     6    1
     6     6     7    2
     7     7     8    1
     8     8     9    2
     9     8    10   am
    10    10    11    1
    11     2    12    1
    12    12    13    2
    13    12    14    1
    14    14    15   ar
    15    15    16   ar
    16    16    17   ar
    17    17    18    1
    18    18    19    1
    19    18    20    1
    20    17    21   ar
    21    21    22   ar
    22    22    14   ar
    23     1    23    1
    24     1    24    1
    25     1    25    1
    26     3    26    1
    27     4    27    1
    28     5    28    1
    29     5    29    1
    30     5    30    1
    31     6    31    1
    32     7    32    1
    33    10    33    1
    34    11    34    1
    35    15    35    1
    36    16    36    1
    37    19    37    1
    38    19    38    1
    39    19    39    1
    40    20    40    1
    41    20    41    1
    42    20    42    1
    43    21    43    1
    44    22    44    1
