
     RDKit          3D

 59 63  0  0  0  0  0  0  0  0999 V2000
   -5.6243    5.1508    0.2981 C   0  0  0  0  0  0  0  0  0  0  0  0
   -4.8839    4.2121    1.0524 O   0  0  0  0  0  0  0  0  0  0  0  0
   -4.1709    3.2151    0.4111 C   0  0  0  0  0  0  0  0  0  0  0  0
   -3.4469    2.2970    1.1452 C   0  0  0  0  0  0  0  0  0  0  0  0
   -2.7362    1.3031    0.5028 C   0  0  0  0  0  0  0  0  0  0  0  0
   -2.7424    1.2179   -0.8719 C   0  0  0  0  0  0  0  0  0  0  0  0
   -2.1411    0.3536   -1.7601 C   0  0  0  0  0  0  0  0  0  0  0  0
   -1.3061   -0.7378   -1.3916 N   0  0  0  0  0  0  0  0  0  0  0  0
   -0.0095   -0.8656   -1.7147 C   0  0  0  0  0  0  0  0  0  0  0  0
    0.6277    0.0034   -2.4062 O   0  0  0  0  0  0  0  0  0  0  0  0
    0.5116   -1.9976   -1.2270 N   0  0  0  0  0  0  0  0  0  0  0  0
    1.8872   -2.3872   -1.4260 C   0  0  0  0  0  0  0  0  0  0  0  0
    2.7729   -1.8589   -0.3344 C   0  0  0  0  0  0  0  0  0  0  0  0
    2.9826   -2.6310    0.7894 C   0  0  0  0  0  0  0  0  0  0  0  0
    3.7980   -2.1138    1.7654 C   0  0  0  0  0  0  0  0  0  0  0  0
    4.3771   -0.8592    1.6027 C   0  0  0  0  0  0  0  0  0  0  0  0
    5.4073   -0.2770    2.9046 Cl  0  0  0  0  0  0  0  0  0  0  0  0
    4.1773   -0.0802    0.4901 C   0  0  0  0  0  0  0  0  0  0  0  0
    4.6940    1.1349    0.2526 O   0  0  0  0  0  0  0  0  0  0  0  0
    5.4963    2.0567    0.8146 C   0  0  2  0  0  0  0  0  0  0  0  0
    4.6723    3.3591    0.9629 C   0  0  0  0  0  0  0  0  0  0  0  0
    6.6958    2.3982   -0.0215 C   0  0  0  0  0  0  0  0  0  0  0  0
    6.9363    1.8848   -1.1302 O   0  0  0  0  0  0  0  0  0  0  0  0
    7.5736    3.3384    0.4828 O   0  0  0  0  0  0  0  0  0  0  0  0
    3.3321   -0.6371   -0.5014 C   0  0  0  0  0  0  0  0  0  0  0  0
   -0.4970   -2.5938   -0.5784 C   0  0  0  0  0  0  0  0  0  0  0  0
   -0.5172   -3.7888    0.1091 C   0  0  0  0  0  0  0  0  0  0  0  0
   -1.6956   -4.1943    0.6996 C   0  0  0  0  0  0  0  0  0  0  0  0
   -2.8254   -3.4201    0.6027 C   0  0  0  0  0  0  0  0  0  0  0  0
   -3.9735   -3.8950    1.2237 O   0  0  0  0  0  0  0  0  0  0  0  0
   -4.8322   -4.7175    0.4623 C   0  0  0  0  0  0  0  0  0  0  0  0
   -5.8988   -5.0642    1.2870 F   0  0  0  0  0  0  0  0  0  0  0  0
   -4.2224   -5.8236   -0.0495 F   0  0  0  0  0  0  0  0  0  0  0  0
   -5.3557   -3.9987   -0.5967 F   0  0  0  0  0  0  0  0  0  0  0  0
   -2.8377   -2.2235   -0.0759 C   0  0  0  0  0  0  0  0  0  0  0  0
   -1.6335   -1.8229   -0.6716 C   0  0  0  0  0  0  0  0  0  0  0  0
   -2.5202    0.7776   -2.9788 N   0  0  0  0  0  0  0  0  0  0  0  0
   -3.2957    1.8221   -2.8667 O   0  0  0  0  0  0  0  0  0  0  0  0
   -3.4710    2.1419   -1.6099 C   0  0  0  0  0  0  0  0  0  0  0  0
   -4.1775    3.1305   -0.9650 C   0  0  0  0  0  0  0  0  0  0  0  0
   -6.2457    4.6268   -0.4839 H   0  0  0  0  0  0  0  0  0  0  0  0
   -4.9473    5.8203   -0.2858 H   0  0  0  0  0  0  0  0  0  0  0  0
   -6.3401    5.7146    0.9119 H   0  0  0  0  0  0  0  0  0  0  0  0
   -3.4178    2.3313    2.2199 H   0  0  0  0  0  0  0  0  0  0  0  0
   -2.1615    0.5724    1.0565 H   0  0  0  0  0  0  0  0  0  0  0  0
    1.9133   -3.5116   -1.4262 H   0  0  0  0  0  0  0  0  0  0  0  0
    2.2491   -1.9864   -2.3975 H   0  0  0  0  0  0  0  0  0  0  0  0
    2.5181   -3.5862    0.8680 H   0  0  0  0  0  0  0  0  0  0  0  0
    3.9716   -2.7058    2.6503 H   0  0  0  0  0  0  0  0  0  0  0  0
    5.9093    1.8048    1.8044 H   0  0  0  0  0  0  0  0  0  0  0  0
    3.5874    3.1129    1.0579 H   0  0  0  0  0  0  0  0  0  0  0  0
    4.8468    3.9365    0.0559 H   0  0  0  0  0  0  0  0  0  0  0  0
    5.0495    3.8948    1.8394 H   0  0  0  0  0  0  0  0  0  0  0  0
    8.4955    3.5056    0.0990 H   0  0  0  0  0  0  0  0  0  0  0  0
    3.1705   -0.0321   -1.3790 H   0  0  0  0  0  0  0  0  0  0  0  0
    0.3790   -4.3861    0.1744 H   0  0  0  0  0  0  0  0  0  0  0  0
   -1.6675   -5.1378    1.2291 H   0  0  0  0  0  0  0  0  0  0  0  0
   -3.7100   -1.6074   -0.1613 H   0  0  0  0  0  0  0  0  0  0  0  0
   -4.7276    3.8238   -1.5849 H   0  0  0  0  0  0  0  0  0  0  0  0
  1  2  1  0
  2  3  1  0
  3  4  2  0
  4  5  1  0
  5  6  2  0
  6  7  1  0
  7  8  1  0
  8  9  1  0
  9 10  2  0
  9 11  1  0
 11 12  1  0
 12 13  1  0
 13 14  2  0
 14 15  1  0
 15 16  2  0
 16 17  1  0
 16 18  1  0
 18 19  1  0
 19 20  1  0
 20 21  1  0
 20 22  1  0
 22 23  2  0
 22 24  1  0
 18 25  2  0
 11 26  1  0
 26 27  2  0
 27 28  1  0
 28 29  2  0
 29 30  1  0
 30 31  1  0
 31 32  1  0
 31 33  1  0
 31 34  1  0
 29 35  1  0
 35 36  2  0
  7 37  2  0
 37 38  1  0
 38 39  1  0
 39 40  2  0
 40  3  1  0
 39  6  1  0
 36  8  1  0
 25 13  1  0
 36 26  1  0
  1 41  1  0
  1 42  1  0
  1 43  1  0
  4 44  1  0
  5 45  1  0
 12 46  1  0
 12 47  1  0
 14 48  1  0
 15 49  1  0
 20 50  1  1
 21 51  1  0
 21 52  1  0
 21 53  1  0
 24 54  1  0
 25 55  1  0
 27 56  1  0
 28 57  1  0
 35 58  1  0
 40 59  1  0
M  END
$$$$
