@<TRIPOS>MOLECULE
*****
 59 63 0 0 0
SMALL
GASTEIGER

@<TRIPOS>ATOM
      1 C          -5.6243    5.1508    0.2981 C.3     1  UNL1        0.0788
      2 O          -4.8839    4.2121    1.0524 O.3     1  UNL1       -0.4950
      3 C          -4.1709    3.2151    0.4111 C.ar    1  UNL1        0.1237
      4 C          -3.4469    2.2970    1.1452 C.ar    1  UNL1       -0.0190
      5 C          -2.7362    1.3031    0.5028 C.ar    1  UNL1       -0.0439
      6 C          -2.7424    1.2179   -0.8719 C.ar    1  UNL1        0.0662
      7 C          -2.1411    0.3536   -1.7601 C.ar    1  UNL1        0.1922
      8 N          -1.3061   -0.7378   -1.3916 N.ar    1  UNL1       -0.2412
      9 C          -0.0095   -0.8656   -1.7147 C.ar    1  UNL1        0.3362
     10 O           0.6277    0.0034   -2.4062 O.2     1  UNL1       -0.2459
     11 N           0.5116   -1.9976   -1.2270 N.ar    1  UNL1       -0.2874
     12 C           1.8872   -2.3872   -1.4260 C.3     1  UNL1        0.0533
     13 C           2.7729   -1.8589   -0.3344 C.ar    1  UNL1       -0.0241
     14 C           2.9826   -2.6310    0.7894 C.ar    1  UNL1       -0.0553
     15 C           3.7980   -2.1138    1.7654 C.ar    1  UNL1       -0.0395
     16 C           4.3771   -0.8592    1.6027 C.ar    1  UNL1        0.0826
     17 CL          5.4073   -0.2770    2.9046 Cl      1  UNL1       -0.0798
     18 C           4.1773   -0.0802    0.4901 C.ar    1  UNL1        0.1402
     19 O           4.6940    1.1349    0.2526 O.3     1  UNL1       -0.4765
     20 C           5.4963    2.0567    0.8146 C.3     1  UNL1        0.1931
     21 C           4.6723    3.3591    0.9629 C.3     1  UNL1       -0.0172
     22 C           6.6958    2.3982   -0.0215 C.2     1  UNL1        0.3456
     23 O           6.9363    1.8848   -1.1302 O.2     1  UNL1       -0.2468
     24 O           7.5736    3.3384    0.4828 O.3     1  UNL1       -0.4781
     25 C           3.3321   -0.6371   -0.5014 C.ar    1  UNL1       -0.0136
     26 C          -0.4970   -2.5938   -0.5784 C.ar    1  UNL1        0.0709
     27 C          -0.5172   -3.7888    0.1091 C.ar    1  UNL1       -0.0325
     28 C          -1.6956   -4.1943    0.6996 C.ar    1  UNL1       -0.0175
     29 C          -2.8254   -3.4201    0.6027 C.ar    1  UNL1        0.1321
     30 O          -3.9735   -3.8950    1.2237 O.3     1  UNL1       -0.4057
     31 C          -4.8322   -4.7175    0.4623 C.3     1  UNL1        0.5752
     32 F          -5.8988   -5.0642    1.2870 F       1  UNL1       -0.1328
     33 F          -4.2224   -5.8236   -0.0495 F       1  UNL1       -0.1328
     34 F          -5.3557   -3.9987   -0.5967 F       1  UNL1       -0.1328
     35 C          -2.8377   -2.2235   -0.0759 C.ar    1  UNL1        0.0065
     36 C          -1.6335   -1.8229   -0.6716 C.ar    1  UNL1        0.0800
     37 N          -2.5202    0.7776   -2.9788 N.ar    1  UNL1       -0.0587
     38 O          -3.2957    1.8221   -2.8667 O.2     1  UNL1       -0.3525
     39 C          -3.4710    2.1419   -1.6099 C.ar    1  UNL1        0.1728
     40 C          -4.1775    3.1305   -0.9650 C.ar    1  UNL1        0.0257
     41 H          -6.2457    4.6268   -0.4839 H       1  UNL1        0.0660
     42 H          -4.9473    5.8203   -0.2858 H       1  UNL1        0.0660
     43 H          -6.3401    5.7146    0.9119 H       1  UNL1        0.0660
     44 H          -3.4178    2.3313    2.2199 H       1  UNL1        0.0654
     45 H          -2.1615    0.5724    1.0565 H       1  UNL1        0.0627
     46 H           1.9133   -3.5116   -1.4262 H       1  UNL1        0.0543
     47 H           2.2491   -1.9864   -2.3975 H       1  UNL1        0.0543
     48 H           2.5181   -3.5862    0.8680 H       1  UNL1        0.0621
     49 H           3.9716   -2.7058    2.6503 H       1  UNL1        0.0633
     50 H           5.9093    1.8048    1.8044 H       1  UNL1        0.0849
     51 H           3.5874    3.1129    1.0579 H       1  UNL1        0.0271
     52 H           4.8468    3.9365    0.0559 H       1  UNL1        0.0271
     53 H           5.0495    3.8948    1.8394 H       1  UNL1        0.0271
     54 H           8.4955    3.5056    0.0990 H       1  UNL1        0.2952
     55 H           3.1705   -0.0321   -1.3790 H       1  UNL1        0.0658
     56 H           0.3790   -4.3861    0.1744 H       1  UNL1        0.0640
     57 H          -1.6675   -5.1378    1.2291 H       1  UNL1        0.0655
     58 H          -3.7100   -1.6074   -0.1613 H       1  UNL1        0.0676
     59 H          -4.7276    3.8238   -1.5849 H       1  UNL1        0.0692
@<TRIPOS>BOND
     1     1     2    1
     2     2     3    1
     3     3     4   ar
     4     4     5   ar
     5     5     6   ar
     6     6     7   ar
     7     7     8    1
     8     8     9   ar
     9     9    10    2
    10     9    11   ar
    11    11    12    1
    12    12    13    1
    13    13    14   ar
    14    14    15   ar
    15    15    16   ar
    16    16    17    1
    17    16    18   ar
    18    18    19    1
    19    19    20    1
    20    20    21    1
    21    20    22    1
    22    22    23    2
    23    22    24    1
    24    18    25   ar
    25    11    26   ar
    26    26    27   ar
    27    27    28   ar
    28    28    29   ar
    29    29    30    1
    30    30    31    1
    31    31    32    1
    32    31    33    1
    33    31    34    1
    34    29    35   ar
    35    35    36   ar
    36     7    37   ar
    37    37    38   ar
    38    38    39   ar
    39    39    40   ar
    40    40     3   ar
    41    39     6   ar
    42    36     8   ar
    43    25    13   ar
    44    36    26   ar
    45     1    41    1
    46     1    42    1
    47     1    43    1
    48     4    44    1
    49     5    45    1
    50    12    46    1
    51    12    47    1
    52    14    48    1
    53    15    49    1
    54    20    50    1
    55    21    51    1
    56    21    52    1
    57    21    53    1
    58    24    54    1
    59    25    55    1
    60    27    56    1
    61    28    57    1
    62    35    58    1
    63    40    59    1
