@<TRIPOS>MOLECULE
*****
 63 62 0 0 0
SMALL
GASTEIGER

@<TRIPOS>ATOM
      1 C          -2.2255    4.2080   -1.0786 C.3     0  UNK0        0.0122
      2 C          -2.5400    3.1029   -0.0993 C.2     0  UNK0        0.2105
      3 O          -2.4549    3.3015    1.1382 O.2     0  UNK0       -0.2761
      4 N          -2.9364    1.8221   -0.5477 N.am    1  LEU1       -0.3042
      5 CA         -3.2349    0.7681    0.4621 C.3     1  LEU1        0.0996
      6 CB         -4.6209    0.3498    0.1642 C.3     1  LEU1       -0.0236
      7 CG         -5.2890   -0.6833    0.9715 C.3     1  LEU1       -0.0446
      8 CD1        -4.7232   -2.0495    1.0111 C.3     1  LEU1       -0.0626
      9 CD2        -5.4916   -0.2437    2.4232 C.3     1  LEU1       -0.0626
     10 C          -2.1621   -0.2112    0.3041 C.2     1  LEU1        0.2340
     11 O          -1.9955   -1.2047    1.0761 O.2     1  LEU1       -0.2738
     12 N          -1.1852   -0.1411   -0.7496 N.am    2  VAL2       -0.3022
     13 CA         -0.1197   -1.1345   -0.8881 C.3     2  VAL2        0.1017
     14 C           1.1985   -0.4954   -0.7519 C.2     2  VAL2        0.2341
     15 O           1.2728    0.7838   -0.6501 O.2     2  VAL2       -0.2738
     16 N           2.4525   -1.1427   -0.7146 N.am    3  LYS3       -0.3044
     17 CA          3.7101   -0.4244   -0.5789 C.3     3  LYS3        0.0785
     18 C           4.5369   -0.7443   -1.7542 C.2     3  LYS3        0.1404
     19 O           4.1303   -1.4867   -2.6114 O.2     3  LYS3       -0.2991
     20 CB          4.4574   -0.8512    0.6645 C.3     3  LYS3       -0.0278
     21 CG          5.7510   -0.1376    0.8387 C.3     3  LYS3       -0.0498
     22 CD          5.6323    1.3429    0.9553 C.3     3  LYS3       -0.0406
     23 CE          4.7908    1.7785    2.1322 C.3     3  LYS3       -0.0069
     24 NZ          4.7224    3.2263    2.1789 N.3     3  LYS3       -0.3300
     25 CB         -0.3347   -1.8363   -2.1975 C.3     2  VAL2       -0.0197
     26 CG1         0.6576   -2.9117   -2.5243 C.3     2  VAL2       -0.0605
     27 CG2        -1.7338   -2.3934   -2.3104 C.3     2  VAL2       -0.0605
     28 H          -1.5178    4.9305   -0.6485 H       0  UNK0        0.0322
     29 H          -3.2080    4.6424   -1.3480 H       0  UNK0        0.0322
     30 H          -1.7663    3.7929   -2.0004 H       0  UNK0        0.0322
     31 H          -3.0357    1.5743   -1.5453 H       1  LEU1        0.1494
     32 HA         -3.1232    1.2396    1.4600 H       1  LEU1        0.0594
     33 HB1        -5.3205    1.2531    0.1289 H       1  LEU1        0.0290
     34 HB2        -4.6369    0.0246   -0.9332 H       1  LEU1        0.0290
     35 HG         -6.3609   -0.7630    0.5820 H       1  LEU1        0.0296
     36 HD11       -4.1737   -2.3856    0.1222 H       1  LEU1        0.0232
     37 HD12       -5.6261   -2.7621    1.0455 H       1  LEU1        0.0232
     38 HD13       -4.2171   -2.3155    1.9846 H       1  LEU1        0.0232
     39 HD21       -5.9039    0.7681    2.4591 H       1  LEU1        0.0232
     40 HD22       -4.5617   -0.3829    3.0057 H       1  LEU1        0.0232
     41 HD23       -6.2551   -0.9347    2.8469 H       1  LEU1        0.0232
     42 H          -1.2526    0.6420   -1.4192 H       2  VAL2        0.1495
     43 HA         -0.2469   -1.8665   -0.0735 H       2  VAL2        0.0597
     44 H           2.4898   -2.1798   -0.7760 H       3  LYS3        0.1494
     45 HA          3.5076    0.6648   -0.5151 H       3  LYS3        0.0574
     46 H           5.5162   -0.3101   -1.8494 H       3  LYS3        0.1046
     47 HB1         4.6716   -1.9351    0.5566 H       3  LYS3        0.0287
     48 HB2         3.8404   -0.7211    1.5833 H       3  LYS3        0.0287
     49 HG1         6.4693   -0.3750    0.0342 H       3  LYS3        0.0266
     50 HG2         6.2164   -0.5129    1.7814 H       3  LYS3        0.0266
     51 HD1         6.6581    1.7506    1.1291 H       3  LYS3        0.0277
     52 HD2         5.2444    1.8393    0.0535 H       3  LYS3        0.0277
     53 HE1         3.7839    1.3309    2.1323 H       3  LYS3        0.0422
     54 HE2         5.2724    1.4595    3.1028 H       3  LYS3        0.0422
     55 HZ1         3.7474    3.5365    2.1130 H       3  LYS3        0.1182
     56 HZ2         5.3143    3.6184    1.4139 H       3  LYS3        0.1182
     57 HB         -0.2525   -1.0819   -3.0362 H       2  VAL2        0.0318
     58 HG11        0.8010   -3.5730   -1.6314 H       2  VAL2        0.0233
     59 HG12        0.1880   -3.5048   -3.3614 H       2  VAL2        0.0233
     60 HG13        1.5979   -2.4966   -2.9297 H       2  VAL2        0.0233
     61 HG21       -1.7301   -3.0706   -3.2012 H       2  VAL2        0.0233
     62 HG22       -2.4332   -1.5773   -2.5563 H       2  VAL2        0.0233
     63 HG23       -1.9616   -2.9115   -1.3708 H       2  VAL2        0.0233
@<TRIPOS>BOND
     1     1     2    1
     2     2     3    2
     3     2     4   am
     4     4     5    1
     5     5     6    1
     6     6     7    1
     7     7     8    1
     8     7     9    1
     9     5    10    1
    10    10    11    2
    11    10    12   am
    12    12    13    1
    13    13    14    1
    14    14    15    2
    15    14    16   am
    16    16    17    1
    17    17    18    1
    18    18    19    2
    19    17    20    1
    20    20    21    1
    21    21    22    1
    22    22    23    1
    23    23    24    1
    24    13    25    1
    25    25    26    1
    26    25    27    1
    27     1    28    1
    28     1    29    1
    29     1    30    1
    30     4    31    1
    31     5    32    1
    32     6    33    1
    33     6    34    1
    34     7    35    1
    35     8    36    1
    36     8    37    1
    37     8    38    1
    38     9    39    1
    39     9    40    1
    40     9    41    1
    41    12    42    1
    42    13    43    1
    43    16    44    1
    44    17    45    1
    45    18    46    1
    46    20    47    1
    47    20    48    1
    48    21    49    1
    49    21    50    1
    50    22    51    1
    51    22    52    1
    52    23    53    1
    53    23    54    1
    54    24    55    1
    55    24    56    1
    56    25    57    1
    57    26    58    1
    58    26    59    1
    59    26    60    1
    60    27    61    1
    61    27    62    1
    62    27    63    1
