@<TRIPOS>MOLECULE
*****
 28 30 0 0 0
SMALL
GASTEIGER

@<TRIPOS>ATOM
      1 F          -3.5454    3.1903    0.7342 F       1  UNL1       -0.2055
      2 C          -2.8149    2.0661    0.5762 C.ar    1  UNL1        0.1234
      3 C          -2.1034    1.8375   -0.5775 C.ar    1  UNL1       -0.0258
      4 C          -1.3647    0.6821   -0.7150 C.ar    1  UNL1       -0.0499
      5 C          -1.2990   -0.2813    0.2663 C.ar    1  UNL1        0.0006
      6 C          -0.5153   -1.4954    0.1069 C.ar    1  UNL1        0.0738
      7 N          -1.0113   -2.7464    0.0910 N.ar    1  UNL1       -0.3439
      8 C           0.0398   -3.5696   -0.0760 C.ar    1  UNL1        0.0945
      9 N           1.1631   -2.8350   -0.1612 N.ar    1  UNL1       -0.2353
     10 C           0.8703   -1.5224   -0.0521 C.ar    1  UNL1        0.0965
     11 C           1.7343   -0.3661   -0.0837 C.ar    1  UNL1        0.0053
     12 C           1.8435    0.4580    1.0072 C.ar    1  UNL1       -0.0343
     13 C           2.6678    1.5619    0.9771 C.ar    1  UNL1        0.0282
     14 N           3.3589    1.8086   -0.1445 N.ar    1  UNL1       -0.2632
     15 C           3.2905    1.0398   -1.2362 C.ar    1  UNL1        0.0282
     16 C           2.4547   -0.0850   -1.2144 C.ar    1  UNL1       -0.0343
     17 C          -2.0173   -0.0404    1.4192 C.ar    1  UNL1       -0.0499
     18 C          -2.7683    1.1226    1.5726 C.ar    1  UNL1       -0.0258
     19 H          -2.1521    2.5934   -1.3556 H       1  UNL1        0.0646
     20 H          -0.8145    0.5521   -1.6599 H       1  UNL1        0.0625
     21 H          -2.0352   -3.0085    0.1923 H       1  UNL1        0.1668
     22 H          -0.0150   -4.6586   -0.1330 H       1  UNL1        0.1027
     23 H           1.2895    0.2516    1.8902 H       1  UNL1        0.0639
     24 H           2.7803    2.2319    1.8132 H       1  UNL1        0.0830
     25 H           3.8808    1.3158   -2.0909 H       1  UNL1        0.0830
     26 H           2.4361   -0.6704   -2.1197 H       1  UNL1        0.0639
     27 H          -2.0236   -0.7433    2.2424 H       1  UNL1        0.0625
     28 H          -3.3296    1.3107    2.4751 H       1  UNL1        0.0646
@<TRIPOS>BOND
     1     1     2    1
     2     2     3   ar
     3     3     4   ar
     4     4     5   ar
     5     5     6    1
     6     6     7   ar
     7     7     8   ar
     8     8     9   ar
     9     9    10   ar
    10    10    11    1
    11    11    12   ar
    12    12    13   ar
    13    13    14   ar
    14    14    15   ar
    15    15    16   ar
    16     5    17   ar
    17    17    18   ar
    18    18     2   ar
    19    10     6   ar
    20    16    11   ar
    21     3    19    1
    22     4    20    1
    23     7    21    1
    24     8    22    1
    25    12    23    1
    26    13    24    1
    27    15    25    1
    28    16    26    1
    29    17    27    1
    30    18    28    1
