@<TRIPOS>MOLECULE
*****
 73 78 0 0 0
SMALL
GASTEIGER

@<TRIPOS>ATOM
      1 C          -3.2600    6.2869   -2.6518 C.3     1  UNL1        0.0804
      2 O          -2.7134    5.0163   -2.4042 O.3     1  UNL1       -0.4795
      3 C          -2.0974    4.6857   -1.2162 C.ar    1  UNL1        0.2191
      4 C          -1.5832    3.4035   -1.0555 C.ar    1  UNL1        0.0404
      5 C          -0.9602    3.0252    0.1101 C.ar    1  UNL1        0.1364
      6 N          -0.4321    1.7399    0.3073 N.am    1  UNL1       -0.2240
      7 C           0.9252    1.4183   -0.0778 C.2     1  UNL1        0.3219
      8 O           1.6453    2.0253   -0.9118 O.2     1  UNL1       -0.2512
      9 N           1.3504    0.2644    0.6544 N.am    1  UNL1       -0.1920
     10 C           2.6289   -0.3456    0.5329 C.ar    1  UNL1        0.0455
     11 C           3.6767    0.0601    1.3291 C.ar    1  UNL1       -0.0392
     12 C           4.9288   -0.5508    1.1956 C.ar    1  UNL1       -0.0522
     13 C           5.1420   -1.5557    0.2810 C.ar    1  UNL1       -0.0150
     14 C           6.4780   -2.1480    0.1933 C.ar    1  UNL1        0.0174
     15 C           7.2185   -2.4989    1.3030 C.ar    1  UNL1       -0.0505
     16 C           8.4790   -3.0554    1.2089 C.ar    1  UNL1       -0.0470
     17 C           9.0544   -3.2849   -0.0274 C.ar    1  UNL1        0.0616
     18 C          10.3838   -3.8699   -0.1270 C.2     1  UNL1        0.3369
     19 O          10.8624   -4.0611   -1.2689 O.2     1  UNL1       -0.2451
     20 O          11.1264   -4.2168    0.9738 O.3     1  UNL1       -0.4771
     21 C           8.3180   -2.9357   -1.1371 C.ar    1  UNL1       -0.0119
     22 C           7.0588   -2.3798   -1.0446 C.ar    1  UNL1        0.1318
     23 F           6.3352   -2.0367   -2.1427 F       1  UNL1       -0.2048
     24 C           4.0997   -1.9465   -0.4983 C.ar    1  UNL1       -0.0522
     25 C           2.8619   -1.3560   -0.3797 C.ar    1  UNL1       -0.0392
     26 C           0.2418   -0.0901    1.4693 C.2     1  UNL1        0.2516
     27 O           0.3172   -0.8024    2.4928 O.2     1  UNL1       -0.2724
     28 C          -1.0025    0.5358    0.8837 C.3     1  UNL1        0.1240
     29 C          -1.5398   -0.4292   -0.1042 C.3     1  UNL1       -0.0095
     30 C          -2.8975   -0.0635   -0.5555 C.3     1  UNL1        0.0017
     31 N          -3.8209    0.2856    0.4455 N.3     1  UNL1       -0.2965
     32 C          -5.1311    0.6448    0.0717 C.3     1  UNL1        0.0415
     33 C          -5.8828   -0.3746   -0.6511 C.ar    1  UNL1        0.0581
     34 N          -6.0663   -0.2631   -1.9731 N.ar    1  UNL1       -0.2583
     35 C          -6.7518   -1.1929   -2.6355 C.ar    1  UNL1        0.0279
     36 C          -7.2896   -2.2823   -2.0119 C.ar    1  UNL1       -0.0433
     37 C          -7.1271   -2.4395   -0.6551 C.ar    1  UNL1       -0.0557
     38 C          -6.4070   -1.4552    0.0165 C.ar    1  UNL1       -0.0279
     39 C          -6.2082   -1.5863    1.4796 C.3     1  UNL1       -0.0380
     40 C          -3.3834    0.4669    1.7517 C.3     1  UNL1        0.0017
     41 C          -1.9597    0.7771    1.9802 C.3     1  UNL1       -0.0095
     42 N          -0.8633    3.9350    1.0910 N.ar    1  UNL1       -0.2200
     43 C          -1.3636    5.1878    0.9388 C.ar    1  UNL1        0.1219
     44 N          -1.9728    5.5538   -0.2040 N.ar    1  UNL1       -0.2013
     45 H          -4.3559    6.2272   -2.3857 H       1  UNL1        0.0660
     46 H          -3.1033    6.5099   -3.7198 H       1  UNL1        0.0660
     47 H          -2.7854    7.0474   -1.9939 H       1  UNL1        0.0660
     48 H          -1.6656    2.6865   -1.8537 H       1  UNL1        0.0705
     49 H           3.4976    0.8483    2.0424 H       1  UNL1        0.0636
     50 H           5.7539   -0.2389    1.8152 H       1  UNL1        0.0624
     51 H           6.7653   -2.3180    2.2699 H       1  UNL1        0.0625
     52 H           9.0412   -3.3226    2.0823 H       1  UNL1        0.0626
     53 H          11.8609   -4.9315    0.9588 H       1  UNL1        0.2954
     54 H           8.7680   -3.1153   -2.1037 H       1  UNL1        0.0654
     55 H           4.2150   -2.7310   -1.2312 H       1  UNL1        0.0624
     56 H           2.0298   -1.6574   -0.9917 H       1  UNL1        0.0636
     57 H          -1.4393   -1.4682    0.2680 H       1  UNL1        0.0303
     58 H          -0.8617   -0.3867   -1.0074 H       1  UNL1        0.0303
     59 H          -2.8743    0.7058   -1.3450 H       1  UNL1        0.0427
     60 H          -3.3160   -0.9769   -1.0830 H       1  UNL1        0.0427
     61 H          -5.0556    1.5667   -0.5811 H       1  UNL1        0.0491
     62 H          -5.6644    1.0345    0.9886 H       1  UNL1        0.0491
     63 H          -6.8699   -1.0517   -3.7044 H       1  UNL1        0.0829
     64 H          -7.8377   -3.0118   -2.5868 H       1  UNL1        0.0633
     65 H          -7.5381   -3.2891   -0.1250 H       1  UNL1        0.0621
     66 H          -5.3030   -2.2001    1.7187 H       1  UNL1        0.0278
     67 H          -7.0680   -2.1854    1.8748 H       1  UNL1        0.0278
     68 H          -6.2157   -0.6265    2.0020 H       1  UNL1        0.0278
     69 H          -3.6442   -0.4657    2.3387 H       1  UNL1        0.0427
     70 H          -4.0123    1.2562    2.2613 H       1  UNL1        0.0427
     71 H          -1.6029    0.2328    2.9046 H       1  UNL1        0.0303
     72 H          -1.8607    1.8626    2.2934 H       1  UNL1        0.0303
     73 H          -1.2765    5.9075    1.7393 H       1  UNL1        0.1049
@<TRIPOS>BOND
     1     1     2    1
     2     2     3    1
     3     3     4   ar
     4     4     5   ar
     5     5     6    1
     6     6     7   am
     7     7     8    2
     8     7     9   am
     9     9    10    1
    10    10    11   ar
    11    11    12   ar
    12    12    13   ar
    13    13    14    1
    14    14    15   ar
    15    15    16   ar
    16    16    17   ar
    17    17    18    1
    18    18    19    2
    19    18    20    1
    20    17    21   ar
    21    21    22   ar
    22    22    23    1
    23    13    24   ar
    24    24    25   ar
    25     9    26   am
    26    26    27    2
    27    26    28    1
    28    28    29    1
    29    29    30    1
    30    30    31    1
    31    31    32    1
    32    32    33    1
    33    33    34   ar
    34    34    35   ar
    35    35    36   ar
    36    36    37   ar
    37    37    38   ar
    38    38    39    1
    39    31    40    1
    40    40    41    1
    41     5    42   ar
    42    42    43   ar
    43    43    44   ar
    44    44     3   ar
    45    28     6    1
    46    38    33   ar
    47    25    10   ar
    48    41    28    1
    49    22    14   ar
    50     1    45    1
    51     1    46    1
    52     1    47    1
    53     4    48    1
    54    11    49    1
    55    12    50    1
    56    15    51    1
    57    16    52    1
    58    20    53    1
    59    21    54    1
    60    24    55    1
    61    25    56    1
    62    29    57    1
    63    29    58    1
    64    30    59    1
    65    30    60    1
    66    32    61    1
    67    32    62    1
    68    35    63    1
    69    36    64    1
    70    37    65    1
    71    39    66    1
    72    39    67    1
    73    39    68    1
    74    40    69    1
    75    40    70    1
    76    41    71    1
    77    41    72    1
    78    43    73    1
