@<TRIPOS>MOLECULE
*****
 72 77 0 0 0
SMALL
GASTEIGER

@<TRIPOS>ATOM
      1 C          -8.7796   -0.3120    1.4133 C.3     1  UNL1        0.0032
      2 N          -7.5369    0.4009    1.1212 N.am    1  UNL1       -0.3024
      3 C          -7.5446    1.5429    0.2155 C.3     1  UNL1        0.0032
      4 C          -6.3534   -0.0546    1.7631 C.2     1  UNL1        0.2627
      5 O          -6.4583   -1.0273    2.5459 O.2     1  UNL1       -0.2684
      6 C          -5.1185    0.6219    1.4807 C.ar    1  UNL1        0.1070
      7 C          -4.7964    1.8452    2.0854 C.ar    1  UNL1       -0.0209
      8 C          -3.5629    2.1753    1.5769 C.ar    1  UNL1        0.0378
      9 C          -2.7301    3.2693    1.7943 C.ar    1  UNL1        0.0419
     10 N          -1.5544    3.3523    1.1564 N.ar    1  UNL1       -0.2219
     11 C          -1.1394    2.3806    0.2838 C.ar    1  UNL1        0.2224
     12 N           0.0921    2.4999   -0.3933 N.pl3   1  UNL1       -0.2685
     13 C           1.0105    1.4250   -0.3912 C.ar    1  UNL1        0.1250
     14 C           0.8204    0.2276    0.2593 C.ar    1  UNL1       -0.0208
     15 C           1.7188   -0.8180    0.2509 C.ar    1  UNL1       -0.0449
     16 C           2.8939   -0.6761   -0.4494 C.ar    1  UNL1        0.0551
     17 C           3.9202   -1.7168   -0.5373 C.2     1  UNL1        0.2481
     18 O           3.6303   -2.7852   -1.1073 O.2     1  UNL1       -0.2699
     19 N           5.1835   -1.4518    0.0280 N.am    1  UNL1       -0.2967
     20 C           6.2756   -2.4088   -0.0182 C.3     1  UNL1        0.0213
     21 C           7.5294   -1.6056   -0.3864 C.3     1  UNL1        0.0137
     22 C           8.3522   -1.2638    0.8106 C.3     1  UNL1        0.0025
     23 N           8.6893    0.1306    0.8625 N.3     1  UNL1       -0.3152
     24 C           7.5570    1.0102    0.9240 C.3     1  UNL1        0.0025
     25 C           6.4996    0.5703   -0.0558 C.3     1  UNL1        0.0137
     26 C           5.4546   -0.1903    0.7008 C.3     1  UNL1        0.0213
     27 C           7.1570   -0.3145   -1.1064 C.3     1  UNL1        0.0660
     28 O           8.3513    0.2973   -1.4840 O.3     1  UNL1       -0.3910
     29 C           3.0818    0.5412   -1.1079 C.ar    1  UNL1        0.0418
     30 N           2.1924    1.5265   -1.0771 N.ar    1  UNL1       -0.2394
     31 N          -1.9782    1.3507    0.1117 N.ar    1  UNL1       -0.1962
     32 C          -3.1660    1.2155    0.7227 C.ar    1  UNL1        0.1466
     33 N          -4.1483    0.2340    0.6609 N.ar    1  UNL1       -0.3180
     34 C          -3.9362   -0.8755   -0.1884 C.3     1  UNL1        0.0366
     35 C          -3.8821   -0.4783   -1.6673 C.3     1  UNL1       -0.0320
     36 C          -5.3283   -0.4969   -2.0535 C.3     1  UNL1       -0.0511
     37 C          -5.8994   -1.6572   -1.2679 C.3     1  UNL1       -0.0511
     38 C          -4.8610   -1.9993   -0.2121 C.3     1  UNL1       -0.0320
     39 H          -9.1751    0.1057    2.3598 H       1  UNL1        0.0428
     40 H          -9.4790   -0.1920    0.5563 H       1  UNL1        0.0428
     41 H          -8.5505   -1.3990    1.5687 H       1  UNL1        0.0428
     42 H          -6.5299    1.9311    0.1094 H       1  UNL1        0.0428
     43 H          -8.1992    2.3445    0.6196 H       1  UNL1        0.0428
     44 H          -7.8969    1.1804   -0.7674 H       1  UNL1        0.0428
     45 H          -5.3799    2.4115    2.7950 H       1  UNL1        0.0647
     46 H          -3.0678    4.0386    2.4915 H       1  UNL1        0.0838
     47 H           0.3138    3.3808   -0.8852 H       1  UNL1        0.1564
     48 H          -0.1057    0.1014    0.8219 H       1  UNL1        0.0652
     49 H           1.5452   -1.7501    0.7676 H       1  UNL1        0.0627
     50 H           6.4175   -2.7915    1.0121 H       1  UNL1        0.0468
     51 H           6.0950   -3.2155   -0.7566 H       1  UNL1        0.0468
     52 H           8.0960   -2.2361   -1.0969 H       1  UNL1        0.0353
     53 H           7.9201   -1.6445    1.7773 H       1  UNL1        0.0428
     54 H           9.3346   -1.8139    0.7366 H       1  UNL1        0.0428
     55 H           9.3723    0.3239    1.6258 H       1  UNL1        0.1220
     56 H           7.1937    1.0472    1.9730 H       1  UNL1        0.0428
     57 H           7.9067    2.0238    0.6560 H       1  UNL1        0.0428
     58 H           6.0357    1.4473   -0.5932 H       1  UNL1        0.0353
     59 H           4.5234    0.3894    0.8917 H       1  UNL1        0.0468
     60 H           5.8204   -0.4775    1.7265 H       1  UNL1        0.0468
     61 H           6.4733   -0.4788   -1.9480 H       1  UNL1        0.0600
     62 H           8.8960   -0.3009   -2.0181 H       1  UNL1        0.2098
     63 H           4.0189    0.6544   -1.6664 H       1  UNL1        0.0838
     64 H          -2.8883   -1.2731    0.0055 H       1  UNL1        0.0528
     65 H          -3.3228   -1.2936   -2.1816 H       1  UNL1        0.0285
     66 H          -3.3756    0.4745   -1.8284 H       1  UNL1        0.0285
     67 H          -5.3779   -0.6716   -3.1657 H       1  UNL1        0.0266
     68 H          -5.7771    0.4804   -1.7873 H       1  UNL1        0.0266
     69 H          -6.8960   -1.4741   -0.8515 H       1  UNL1        0.0266
     70 H          -6.0402   -2.4942   -2.0152 H       1  UNL1        0.0266
     71 H          -5.2411   -2.4311    0.6975 H       1  UNL1        0.0285
     72 H          -4.2956   -2.8821   -0.6939 H       1  UNL1        0.0285
@<TRIPOS>BOND
     1     1     2    1
     2     2     3    1
     3     2     4   am
     4     4     5    2
     5     4     6    1
     6     6     7   ar
     7     7     8   ar
     8     8     9   ar
     9     9    10   ar
    10    10    11   ar
    11    11    12    1
    12    12    13    1
    13    13    14   ar
    14    14    15   ar
    15    15    16   ar
    16    16    17    1
    17    17    18    2
    18    17    19   am
    19    19    20    1
    20    20    21    1
    21    21    22    1
    22    22    23    1
    23    23    24    1
    24    24    25    1
    25    25    26    1
    26    25    27    1
    27    27    28    1
    28    16    29   ar
    29    29    30   ar
    30    11    31   ar
    31    31    32   ar
    32    32    33   ar
    33    33    34    1
    34    34    35    1
    35    35    36    1
    36    36    37    1
    37    37    38    1
    38    33     6   ar
    39    38    34    1
    40    32     8   ar
    41    30    13   ar
    42    26    19    1
    43    27    21    1
    44     1    39    1
    45     1    40    1
    46     1    41    1
    47     3    42    1
    48     3    43    1
    49     3    44    1
    50     7    45    1
    51     9    46    1
    52    12    47    1
    53    14    48    1
    54    15    49    1
    55    20    50    1
    56    20    51    1
    57    21    52    1
    58    22    53    1
    59    22    54    1
    60    23    55    1
    61    24    56    1
    62    24    57    1
    63    25    58    1
    64    26    59    1
    65    26    60    1
    66    27    61    1
    67    28    62    1
    68    29    63    1
    69    34    64    1
    70    35    65    1
    71    35    66    1
    72    36    67    1
    73    36    68    1
    74    37    69    1
    75    37    70    1
    76    38    71    1
    77    38    72    1
