
     RDKit          3D

 72 77  0  0  0  0  0  0  0  0999 V2000
   -8.7796   -0.3120    1.4133 C   0  0  0  0  0  0  0  0  0  0  0  0
   -7.5369    0.4009    1.1212 N   0  0  0  0  0  0  0  0  0  0  0  0
   -7.5446    1.5429    0.2155 C   0  0  0  0  0  0  0  0  0  0  0  0
   -6.3534   -0.0546    1.7631 C   0  0  0  0  0  0  0  0  0  0  0  0
   -6.4583   -1.0273    2.5459 O   0  0  0  0  0  0  0  0  0  0  0  0
   -5.1185    0.6219    1.4807 C   0  0  0  0  0  0  0  0  0  0  0  0
   -4.7964    1.8452    2.0854 C   0  0  0  0  0  0  0  0  0  0  0  0
   -3.5629    2.1753    1.5769 C   0  0  0  0  0  0  0  0  0  0  0  0
   -2.7301    3.2693    1.7943 C   0  0  0  0  0  0  0  0  0  0  0  0
   -1.5544    3.3523    1.1564 N   0  0  0  0  0  0  0  0  0  0  0  0
   -1.1394    2.3806    0.2838 C   0  0  0  0  0  0  0  0  0  0  0  0
    0.0921    2.4999   -0.3933 N   0  0  0  0  0  0  0  0  0  0  0  0
    1.0105    1.4250   -0.3912 C   0  0  0  0  0  0  0  0  0  0  0  0
    0.8204    0.2276    0.2593 C   0  0  0  0  0  0  0  0  0  0  0  0
    1.7188   -0.8180    0.2509 C   0  0  0  0  0  0  0  0  0  0  0  0
    2.8939   -0.6761   -0.4494 C   0  0  0  0  0  0  0  0  0  0  0  0
    3.9202   -1.7168   -0.5373 C   0  0  0  0  0  0  0  0  0  0  0  0
    3.6303   -2.7852   -1.1073 O   0  0  0  0  0  0  0  0  0  0  0  0
    5.1835   -1.4518    0.0280 N   0  0  0  0  0  0  0  0  0  0  0  0
    6.2756   -2.4088   -0.0182 C   0  0  0  0  0  0  0  0  0  0  0  0
    7.5294   -1.6056   -0.3864 C   0  0  2  0  0  0  0  0  0  0  0  0
    8.3522   -1.2638    0.8106 C   0  0  0  0  0  0  0  0  0  0  0  0
    8.6893    0.1306    0.8625 N   0  0  0  0  0  0  0  0  0  0  0  0
    7.5570    1.0102    0.9240 C   0  0  0  0  0  0  0  0  0  0  0  0
    6.4996    0.5703   -0.0558 C   0  0  2  0  0  0  0  0  0  0  0  0
    5.4546   -0.1903    0.7008 C   0  0  0  0  0  0  0  0  0  0  0  0
    7.1570   -0.3145   -1.1064 C   0  0  0  0  0  0  0  0  0  0  0  0
    8.3513    0.2973   -1.4840 O   0  0  0  0  0  0  0  0  0  0  0  0
    3.0818    0.5412   -1.1079 C   0  0  0  0  0  0  0  0  0  0  0  0
    2.1924    1.5265   -1.0771 N   0  0  0  0  0  0  0  0  0  0  0  0
   -1.9782    1.3507    0.1117 N   0  0  0  0  0  0  0  0  0  0  0  0
   -3.1660    1.2155    0.7227 C   0  0  0  0  0  0  0  0  0  0  0  0
   -4.1483    0.2340    0.6609 N   0  0  0  0  0  0  0  0  0  0  0  0
   -3.9362   -0.8755   -0.1884 C   0  0  0  0  0  0  0  0  0  0  0  0
   -3.8821   -0.4783   -1.6673 C   0  0  0  0  0  0  0  0  0  0  0  0
   -5.3283   -0.4969   -2.0535 C   0  0  0  0  0  0  0  0  0  0  0  0
   -5.8994   -1.6572   -1.2679 C   0  0  0  0  0  0  0  0  0  0  0  0
   -4.8610   -1.9993   -0.2121 C   0  0  0  0  0  0  0  0  0  0  0  0
   -9.1751    0.1057    2.3598 H   0  0  0  0  0  0  0  0  0  0  0  0
   -9.4790   -0.1920    0.5563 H   0  0  0  0  0  0  0  0  0  0  0  0
   -8.5505   -1.3990    1.5687 H   0  0  0  0  0  0  0  0  0  0  0  0
   -6.5299    1.9311    0.1094 H   0  0  0  0  0  0  0  0  0  0  0  0
   -8.1992    2.3445    0.6196 H   0  0  0  0  0  0  0  0  0  0  0  0
   -7.8969    1.1804   -0.7674 H   0  0  0  0  0  0  0  0  0  0  0  0
   -5.3799    2.4115    2.7950 H   0  0  0  0  0  0  0  0  0  0  0  0
   -3.0678    4.0386    2.4915 H   0  0  0  0  0  0  0  0  0  0  0  0
    0.3138    3.3808   -0.8852 H   0  0  0  0  0  0  0  0  0  0  0  0
   -0.1057    0.1014    0.8219 H   0  0  0  0  0  0  0  0  0  0  0  0
    1.5452   -1.7501    0.7676 H   0  0  0  0  0  0  0  0  0  0  0  0
    6.4175   -2.7915    1.0121 H   0  0  0  0  0  0  0  0  0  0  0  0
    6.0950   -3.2155   -0.7566 H   0  0  0  0  0  0  0  0  0  0  0  0
    8.0960   -2.2361   -1.0969 H   0  0  0  0  0  0  0  0  0  0  0  0
    7.9201   -1.6445    1.7773 H   0  0  0  0  0  0  0  0  0  0  0  0
    9.3346   -1.8139    0.7366 H   0  0  0  0  0  0  0  0  0  0  0  0
    9.3723    0.3239    1.6258 H   0  0  0  0  0  0  0  0  0  0  0  0
    7.1937    1.0472    1.9730 H   0  0  0  0  0  0  0  0  0  0  0  0
    7.9067    2.0238    0.6560 H   0  0  0  0  0  0  0  0  0  0  0  0
    6.0357    1.4473   -0.5932 H   0  0  0  0  0  0  0  0  0  0  0  0
    4.5234    0.3894    0.8917 H   0  0  0  0  0  0  0  0  0  0  0  0
    5.8204   -0.4775    1.7265 H   0  0  0  0  0  0  0  0  0  0  0  0
    6.4733   -0.4788   -1.9480 H   0  0  0  0  0  0  0  0  0  0  0  0
    8.8960   -0.3009   -2.0181 H   0  0  0  0  0  0  0  0  0  0  0  0
    4.0189    0.6544   -1.6664 H   0  0  0  0  0  0  0  0  0  0  0  0
   -2.8883   -1.2731    0.0055 H   0  0  0  0  0  0  0  0  0  0  0  0
   -3.3228   -1.2936   -2.1816 H   0  0  0  0  0  0  0  0  0  0  0  0
   -3.3756    0.4745   -1.8284 H   0  0  0  0  0  0  0  0  0  0  0  0
   -5.3779   -0.6716   -3.1657 H   0  0  0  0  0  0  0  0  0  0  0  0
   -5.7771    0.4804   -1.7873 H   0  0  0  0  0  0  0  0  0  0  0  0
   -6.8960   -1.4741   -0.8515 H   0  0  0  0  0  0  0  0  0  0  0  0
   -6.0402   -2.4942   -2.0152 H   0  0  0  0  0  0  0  0  0  0  0  0
   -5.2411   -2.4311    0.6975 H   0  0  0  0  0  0  0  0  0  0  0  0
   -4.2956   -2.8821   -0.6939 H   0  0  0  0  0  0  0  0  0  0  0  0
  1  2  1  0
  2  3  1  0
  2  4  1  0
  4  5  2  0
  4  6  1  0
  6  7  2  0
  7  8  1  0
  8  9  2  0
  9 10  1  0
 10 11  2  0
 11 12  1  0
 12 13  1  0
 13 14  2  0
 14 15  1  0
 15 16  2  0
 16 17  1  0
 17 18  2  0
 17 19  1  0
 19 20  1  0
 20 21  1  0
 21 22  1  0
 22 23  1  0
 23 24  1  0
 24 25  1  0
 25 26  1  0
 25 27  1  0
 27 28  1  0
 16 29  1  0
 29 30  2  0
 11 31  1  0
 31 32  2  0
 32 33  1  0
 33 34  1  0
 34 35  1  0
 35 36  1  0
 36 37  1  0
 37 38  1  0
 33  6  1  0
 38 34  1  0
 32  8  1  0
 30 13  1  0
 26 19  1  0
 27 21  1  0
  1 39  1  0
  1 40  1  0
  1 41  1  0
  3 42  1  0
  3 43  1  0
  3 44  1  0
  7 45  1  0
  9 46  1  0
 12 47  1  0
 14 48  1  0
 15 49  1  0
 20 50  1  0
 20 51  1  0
 21 52  1  6
 22 53  1  0
 22 54  1  0
 23 55  1  0
 24 56  1  0
 24 57  1  0
 25 58  1  6
 26 59  1  0
 26 60  1  0
 27 61  1  0
 28 62  1  0
 29 63  1  0
 34 64  1  0
 35 65  1  0
 35 66  1  0
 36 67  1  0
 36 68  1  0
 37 69  1  0
 37 70  1  0
 38 71  1  0
 38 72  1  0
M  END
$$$$
