@<TRIPOS>MOLECULE
*****
 80 81 0 0 0
SMALL
GASTEIGER

@<TRIPOS>ATOM
      1 C          -2.9006    0.1722    1.3754 C.3     1  UNL1        0.1328
      2 C          -1.8939   -0.0492    2.4609 C.3     1  UNL1        0.0035
      3 C          -2.6037    0.0721    3.7579 C.ar    1  UNL1       -0.0449
      4 C          -3.1776   -1.0484    4.3983 C.ar    1  UNL1       -0.0585
      5 C          -3.8252   -0.7959    5.6119 C.ar    1  UNL1       -0.0615
      6 C          -3.9196    0.4341    6.1753 C.ar    1  UNL1       -0.0617
      7 C          -3.3443    1.4716    5.5072 C.ar    1  UNL1       -0.0615
      8 C          -2.6789    1.3610    4.3084 C.ar    1  UNL1       -0.0585
      9 N          -3.9893   -0.6990    1.2979 N.2     1  UNL1       -0.2416
     10 C          -4.1202   -1.6785    0.5271 C.2     1  UNL1        0.1837
     11 O          -3.2229   -2.1370   -0.4302 O.2     1  UNL1       -0.4956
     12 C          -5.4136   -2.3385    0.7589 C.3     1  UNL1        0.0330
     13 C          -6.2821   -2.1936   -0.4649 C.3     1  UNL1        0.0531
     14 C          -5.7287   -2.7987   -1.6809 C.2     1  UNL1        0.3052
     15 O          -6.5978   -2.6152   -2.7629 O.3     1  UNL1       -0.4806
     16 O          -4.7138   -3.4476   -2.1100 O.2     1  UNL1       -0.2510
     17 C          -2.2896    0.3512    0.0097 C.2     1  UNL1        0.2089
     18 O          -2.9184    0.4555   -1.2219 O.2     1  UNL1       -0.4942
     19 N          -1.0253    0.3988    0.1515 N.2     1  UNL1       -0.2397
     20 C          -0.1390    0.5637   -0.9431 C.3     1  UNL1        0.1329
     21 C           0.0696    2.0795   -1.0727 C.3     1  UNL1        0.0035
     22 C           0.9755    2.4677   -2.1436 C.ar    1  UNL1       -0.0439
     23 C           0.7476    2.7271   -3.4616 C.ar    1  UNL1       -0.0409
     24 C           1.7291    3.0930   -4.3358 C.ar    1  UNL1        0.1006
     25 C           1.3823    3.3474   -5.7204 C.2     1  UNL1        0.3404
     26 O           0.0577    3.2013   -6.1582 O.3     1  UNL1       -0.4770
     27 O           2.1182    3.6983   -6.6452 O.2     1  UNL1       -0.2450
     28 C           3.0293    3.2161   -3.8972 C.ar    1  UNL1        0.1353
     29 O           3.9808    3.6008   -4.8650 O.3     1  UNL1       -0.4800
     30 C           5.3202    3.7189   -4.4710 C.3     1  UNL1        0.1857
     31 C           5.8908    2.4389   -4.0349 C.2     1  UNL1        0.3427
     32 O           6.5776    1.3009   -3.5830 O.3     1  UNL1       -0.4783
     33 O           5.2564    1.3215   -4.0594 O.2     1  UNL1       -0.2472
     34 C           3.3427    2.9709   -2.5765 C.ar    1  UNL1       -0.0188
     35 C           2.3078    2.6023   -1.7324 C.ar    1  UNL1       -0.0550
     36 C           1.2303   -0.0048   -0.6508 C.2     1  UNL1        0.2082
     37 O           2.3064   -0.1331   -1.5513 O.2     1  UNL1       -0.4942
     38 N           1.4571   -0.4215    0.5461 N.2     1  UNL1       -0.2530
     39 C           2.6399   -0.9908    1.0785 C.3     1  UNL1        0.0431
     40 C           2.8016   -2.4715    0.9424 C.3     1  UNL1       -0.0333
     41 C           4.0661   -3.0140    1.5210 C.3     1  UNL1       -0.0516
     42 C           4.2099   -2.7542    3.0011 C.3     1  UNL1       -0.0559
     43 C           3.0758   -3.3880    3.7787 C.3     1  UNL1       -0.0653
     44 H          -3.3385    1.2107    1.6256 H       1  UNL1        0.0646
     45 H          -1.2922   -0.9710    2.3591 H       1  UNL1        0.0339
     46 H          -1.1740    0.8174    2.3673 H       1  UNL1        0.0339
     47 H          -3.0660   -2.0011    3.8961 H       1  UNL1        0.0620
     48 H          -4.2168   -1.7440    5.9838 H       1  UNL1        0.0618
     49 H          -4.4539    0.4462    7.1123 H       1  UNL1        0.0618
     50 H          -3.4296    2.4547    5.9773 H       1  UNL1        0.0618
     51 H          -2.2350    2.1819    3.8033 H       1  UNL1        0.0620
     52 H          -2.2127   -2.0734   -0.2675 H       1  UNL1        0.2934
     53 H          -5.1887   -3.4511    0.8150 H       1  UNL1        0.0365
     54 H          -5.9376   -2.0562    1.6795 H       1  UNL1        0.0365
     55 H          -7.2933   -2.6014   -0.2303 H       1  UNL1        0.0382
     56 H          -6.4849   -1.1043   -0.6862 H       1  UNL1        0.0382
     57 H          -6.3751   -2.7704   -3.7262 H       1  UNL1        0.2951
     58 H          -2.4445    0.8315   -2.0418 H       1  UNL1        0.2935
     59 H          -0.5425    0.1312   -1.8537 H       1  UNL1        0.0646
     60 H          -0.9370    2.5585   -1.2721 H       1  UNL1        0.0339
     61 H           0.3598    2.4838   -0.0835 H       1  UNL1        0.0339
     62 H          -0.3166    2.6090   -3.7273 H       1  UNL1        0.0630
     63 H          -0.1924    2.9727   -7.1064 H       1  UNL1        0.2954
     64 H           5.4312    4.4108   -3.5834 H       1  UNL1        0.0815
     65 H           5.9468    4.2141   -5.2529 H       1  UNL1        0.0815
     66 H           7.5270    1.4184   -3.2288 H       1  UNL1        0.2952
     67 H           4.3530    3.0744   -2.2303 H       1  UNL1        0.0654
     68 H           2.6357    2.4344   -0.7099 H       1  UNL1        0.0621
     69 H           3.2756   -0.1803   -1.2670 H       1  UNL1        0.2935
     70 H           3.5148   -0.4143    0.7390 H       1  UNL1        0.0509
     71 H           2.5966   -0.7764    2.1926 H       1  UNL1        0.0509
     72 H           1.9512   -3.0094    1.4097 H       1  UNL1        0.0283
     73 H           2.7822   -2.7295   -0.1399 H       1  UNL1        0.0283
     74 H           4.9843   -2.6874    1.0329 H       1  UNL1        0.0266
     75 H           4.0440   -4.1180    1.4149 H       1  UNL1        0.0266
     76 H           5.1419   -3.3111    3.2942 H       1  UNL1        0.0263
     77 H           4.4054   -1.7169    3.2646 H       1  UNL1        0.0263
     78 H           2.5362   -4.0728    3.0655 H       1  UNL1        0.0230
     79 H           3.4659   -3.9622    4.6262 H       1  UNL1        0.0230
     80 H           2.3918   -2.5834    4.1132 H       1  UNL1        0.0230
@<TRIPOS>BOND
     1     1     2    1
     2     2     3    1
     3     3     4   ar
     4     4     5   ar
     5     5     6   ar
     6     6     7   ar
     7     7     8   ar
     8     1     9    1
     9     9    10    2
    10    10    11    1
    11    10    12    1
    12    12    13    1
    13    13    14    1
    14    14    15    1
    15    14    16    2
    16     1    17    1
    17    17    18    1
    18    17    19    2
    19    19    20    1
    20    20    21    1
    21    21    22    1
    22    22    23   ar
    23    23    24   ar
    24    24    25    1
    25    25    26    1
    26    25    27    2
    27    24    28   ar
    28    28    29    1
    29    29    30    1
    30    30    31    1
    31    31    32    1
    32    31    33    2
    33    28    34   ar
    34    34    35   ar
    35    20    36    1
    36    36    37    1
    37    36    38    2
    38    38    39    1
    39    39    40    1
    40    40    41    1
    41    41    42    1
    42    42    43    1
    43     8     3   ar
    44    35    22   ar
    45     1    44    1
    46     2    45    1
    47     2    46    1
    48     4    47    1
    49     5    48    1
    50     6    49    1
    51     7    50    1
    52     8    51    1
    53    11    52    1
    54    12    53    1
    55    12    54    1
    56    13    55    1
    57    13    56    1
    58    15    57    1
    59    18    58    1
    60    20    59    1
    61    21    60    1
    62    21    61    1
    63    23    62    1
    64    26    63    1
    65    30    64    1
    66    30    65    1
    67    32    66    1
    68    34    67    1
    69    35    68    1
    70    37    69    1
    71    39    70    1
    72    39    71    1
    73    40    72    1
    74    40    73    1
    75    41    74    1
    76    41    75    1
    77    42    76    1
    78    42    77    1
    79    43    78    1
    80    43    79    1
    81    43    80    1
