@<TRIPOS>MOLECULE
*****
 44 45 0 0 0
SMALL
GASTEIGER

@<TRIPOS>ATOM
      1 C          -4.1614    2.8982   -1.1305 C.3     1  UNL1        0.0788
      2 O          -3.4194    1.7541   -0.8256 O.3     1  UNL1       -0.4948
      3 C          -3.9715    0.6401   -0.1867 C.ar    1  UNL1        0.1234
      4 C          -5.3025    0.6603    0.1616 C.ar    1  UNL1       -0.0170
      5 C          -5.8617   -0.4385    0.7957 C.ar    1  UNL1       -0.0230
      6 C          -5.0545   -1.5242    1.0574 C.ar    1  UNL1        0.1239
      7 F          -5.5536   -2.6188    1.6736 F       1  UNL1       -0.2055
      8 C          -3.7154   -1.5240    0.6980 C.ar    1  UNL1       -0.0198
      9 C          -3.1393   -0.4402    0.0659 C.ar    1  UNL1       -0.0030
     10 C          -1.6990   -0.4210   -0.3290 C.3     1  UNL1       -0.0241
     11 C          -1.0877   -1.7355    0.0853 C.3     1  UNL1       -0.0489
     12 C           0.3608   -1.8425   -0.2562 C.3     1  UNL1       -0.0504
     13 C           1.2031   -0.7780    0.4017 C.3     1  UNL1       -0.0266
     14 C           2.6561   -0.8968    0.0504 C.3     1  UNL1        0.0592
     15 C           2.9110   -0.7749   -1.4366 C.3     1  UNL1       -0.0242
     16 C           4.3517   -0.2417   -1.3771 C.3     1  UNL1       -0.0231
     17 C           4.1878    0.7131   -0.2130 C.3     1  UNL1        0.0713
     18 C           5.5191    1.1844    0.3219 C.3     1  UNL1        0.0195
     19 N           5.2665    2.0283    1.4581 N.3     1  UNL1       -0.3277
     20 O           3.4563   -0.0003    0.6970 O.3     1  UNL1       -0.3721
     21 H          -4.7930    2.7667   -2.0422 H       1  UNL1        0.0660
     22 H          -4.8127    3.2417   -0.3236 H       1  UNL1        0.0660
     23 H          -3.4568    3.7258   -1.3755 H       1  UNL1        0.0660
     24 H          -5.9622    1.4960   -0.0295 H       1  UNL1        0.0655
     25 H          -6.9162   -0.4290    1.0745 H       1  UNL1        0.0647
     26 H          -3.1270   -2.4018    0.9268 H       1  UNL1        0.0650
     27 H          -1.2230    0.4437    0.1659 H       1  UNL1        0.0314
     28 H          -1.6706   -0.3424   -1.4329 H       1  UNL1        0.0314
     29 H          -1.6248   -2.5386   -0.4600 H       1  UNL1        0.0268
     30 H          -1.1923   -1.8099    1.1869 H       1  UNL1        0.0268
     31 H           0.7300   -2.8186    0.0900 H       1  UNL1        0.0266
     32 H           0.5365   -1.8027   -1.3549 H       1  UNL1        0.0266
     33 H           0.8522    0.2293    0.1146 H       1  UNL1        0.0290
     34 H           1.1246   -0.8536    1.5050 H       1  UNL1        0.0290
     35 H           2.9741   -1.9396    0.3296 H       1  UNL1        0.0596
     36 H           2.2856   -0.0078   -1.9220 H       1  UNL1        0.0291
     37 H           2.9102   -1.7508   -1.9558 H       1  UNL1        0.0291
     38 H           4.9719   -1.1164   -1.0838 H       1  UNL1        0.0291
     39 H           4.6521    0.2443   -2.2986 H       1  UNL1        0.0291
     40 H           3.6636    1.6231   -0.5993 H       1  UNL1        0.0609
     41 H           6.2132    0.3518    0.5380 H       1  UNL1        0.0447
     42 H           5.9913    1.8056   -0.4671 H       1  UNL1        0.0447
     43 H           6.1576    2.3629    1.9110 H       1  UNL1        0.1183
     44 H           4.7692    2.8782    1.1364 H       1  UNL1        0.1183
@<TRIPOS>BOND
     1     1     2    1
     2     2     3    1
     3     3     4   ar
     4     4     5   ar
     5     5     6   ar
     6     6     7    1
     7     6     8   ar
     8     8     9   ar
     9     9    10    1
    10    10    11    1
    11    11    12    1
    12    12    13    1
    13    13    14    1
    14    14    15    1
    15    15    16    1
    16    16    17    1
    17    17    18    1
    18    18    19    1
    19    17    20    1
    20     9     3   ar
    21    20    14    1
    22     1    21    1
    23     1    22    1
    24     1    23    1
    25     4    24    1
    26     5    25    1
    27     8    26    1
    28    10    27    1
    29    10    28    1
    30    11    29    1
    31    11    30    1
    32    12    31    1
    33    12    32    1
    34    13    33    1
    35    13    34    1
    36    14    35    1
    37    15    36    1
    38    15    37    1
    39    16    38    1
    40    16    39    1
    41    17    40    1
    42    18    41    1
    43    18    42    1
    44    19    43    1
    45    19    44    1
