@<TRIPOS>MOLECULE
*****
 49 53 0 0 0
SMALL
GASTEIGER

@<TRIPOS>ATOM
      1 C          -4.1331   -1.7845    0.9145 C.ar    1  UNL1       -0.0617
      2 C          -2.9495   -2.0241    1.6067 C.ar    1  UNL1       -0.0612
      3 C          -1.7652   -2.1464    0.8755 C.ar    1  UNL1       -0.0540
      4 C          -1.7667   -2.0327   -0.4985 C.ar    1  UNL1       -0.0171
      5 C          -0.5512   -2.2333   -1.2430 C.ar    1  UNL1       -0.0054
      6 C          -0.4972   -3.4011   -2.0478 C.ar    1  UNL1       -0.0532
      7 C           0.6700   -3.7752   -2.6593 C.ar    1  UNL1       -0.0591
      8 C           1.8034   -3.0367   -2.5091 C.ar    1  UNL1       -0.0355
      9 C           1.7882   -1.8895   -1.7340 C.ar    1  UNL1        0.0772
     10 N           2.9411   -1.1957   -1.5977 N.ar    1  UNL1       -0.2271
     11 C           2.9252   -0.0967   -0.8383 C.ar    1  UNL1        0.1638
     12 C           4.1819    0.6684   -0.6776 C.ar    1  UNL1        0.0373
     13 C           4.1729    1.7983    0.1010 C.ar    1  UNL1       -0.0482
     14 C           5.3416    2.5278    0.2627 C.ar    1  UNL1       -0.0429
     15 C           6.4840    2.1180   -0.3505 C.ar    1  UNL1        0.0276
     16 N           6.4707    1.0067   -1.1098 N.ar    1  UNL1       -0.2626
     17 C           5.3428    0.2756   -1.2845 C.ar    1  UNL1        0.0382
     18 N           1.8069    0.2932   -0.2458 N.ar    1  UNL1       -0.2121
     19 C           0.6116   -0.3773   -0.3566 C.ar    1  UNL1        0.1312
     20 N          -0.5373    0.2637    0.1403 N.pl3   1  UNL1       -0.3229
     21 C          -0.3031    1.4415    1.0202 C.3     1  UNL1        0.0528
     22 C          -1.5631    2.0265    1.5125 C.ar    1  UNL1        0.0583
     23 C          -2.2202    3.0341    0.8005 C.ar    1  UNL1       -0.0388
     24 C          -3.3990    3.5847    1.2566 C.ar    1  UNL1       -0.0586
     25 C          -3.9720    3.1564    2.4379 C.ar    1  UNL1       -0.0436
     26 C          -3.2957    2.1537    3.1235 C.ar    1  UNL1        0.0279
     27 N          -2.1508    1.6327    2.6616 N.ar    1  UNL1       -0.2583
     28 C           0.5888   -1.5066   -1.1118 C.ar    1  UNL1        0.0478
     29 C          -2.9515   -1.7972   -1.1388 C.ar    1  UNL1       -0.0540
     30 C          -4.1507   -1.6682   -0.4609 C.ar    1  UNL1       -0.0612
     31 H          -5.0431   -1.6915    1.4885 H       1  UNL1        0.0618
     32 H          -2.9410   -2.1146    2.6863 H       1  UNL1        0.0618
     33 H          -0.8700   -2.3320    1.4518 H       1  UNL1        0.0624
     34 H          -1.4023   -3.9675   -2.1524 H       1  UNL1        0.0624
     35 H           0.6662   -4.6762   -3.2665 H       1  UNL1        0.0618
     36 H           2.7505   -3.3171   -2.9862 H       1  UNL1        0.0639
     37 H           3.2951    2.1517    0.5986 H       1  UNL1        0.0626
     38 H           5.3161    3.4168    0.8808 H       1  UNL1        0.0633
     39 H           7.3931    2.6963   -0.2172 H       1  UNL1        0.0829
     40 H           5.3181   -0.6179   -1.8910 H       1  UNL1        0.0837
     41 H          -1.4899    0.1126   -0.0606 H       1  UNL1        0.1479
     42 H           0.3362    1.1527    1.8744 H       1  UNL1        0.0526
     43 H           0.1727    2.2394    0.3849 H       1  UNL1        0.0526
     44 H          -1.7912    3.3778   -0.1158 H       1  UNL1        0.0636
     45 H          -3.9195    4.3643    0.7181 H       1  UNL1        0.0619
     46 H          -4.8891    3.5557    2.8328 H       1  UNL1        0.0633
     47 H          -3.7534    1.8228    4.0517 H       1  UNL1        0.0829
     48 H          -2.9679   -1.7068   -2.2033 H       1  UNL1        0.0624
     49 H          -5.1039   -1.4829   -0.9243 H       1  UNL1        0.0618
@<TRIPOS>BOND
     1     1     2   ar
     2     2     3   ar
     3     3     4   ar
     4     4     5    1
     5     5     6   ar
     6     6     7   ar
     7     7     8   ar
     8     8     9   ar
     9     9    10   ar
    10    10    11   ar
    11    11    12    1
    12    12    13   ar
    13    13    14   ar
    14    14    15   ar
    15    15    16   ar
    16    16    17   ar
    17    11    18   ar
    18    18    19   ar
    19    19    20    1
    20    20    21    1
    21    21    22    1
    22    22    23   ar
    23    23    24   ar
    24    24    25   ar
    25    25    26   ar
    26    26    27   ar
    27    19    28   ar
    28     4    29   ar
    29    29    30   ar
    30    30     1   ar
    31    28     5   ar
    32    28     9   ar
    33    17    12   ar
    34    27    22   ar
    35     1    31    1
    36     2    32    1
    37     3    33    1
    38     6    34    1
    39     7    35    1
    40     8    36    1
    41    13    37    1
    42    14    38    1
    43    15    39    1
    44    17    40    1
    45    20    41    1
    46    21    42    1
    47    21    43    1
    48    23    44    1
    49    24    45    1
    50    25    46    1
    51    26    47    1
    52    29    48    1
    53    30    49    1
