
     RDKit          3D

 49 53  0  0  0  0  0  0  0  0999 V2000
   -4.1331   -1.7845    0.9145 C   0  0  0  0  0  0  0  0  0  0  0  0
   -2.9495   -2.0241    1.6067 C   0  0  0  0  0  0  0  0  0  0  0  0
   -1.7652   -2.1464    0.8755 C   0  0  0  0  0  0  0  0  0  0  0  0
   -1.7667   -2.0327   -0.4985 C   0  0  0  0  0  0  0  0  0  0  0  0
   -0.5512   -2.2333   -1.2430 C   0  0  0  0  0  0  0  0  0  0  0  0
   -0.4972   -3.4011   -2.0478 C   0  0  0  0  0  0  0  0  0  0  0  0
    0.6700   -3.7752   -2.6593 C   0  0  0  0  0  0  0  0  0  0  0  0
    1.8034   -3.0367   -2.5091 C   0  0  0  0  0  0  0  0  0  0  0  0
    1.7882   -1.8895   -1.7340 C   0  0  0  0  0  0  0  0  0  0  0  0
    2.9411   -1.1957   -1.5977 N   0  0  0  0  0  0  0  0  0  0  0  0
    2.9252   -0.0967   -0.8383 C   0  0  0  0  0  0  0  0  0  0  0  0
    4.1819    0.6684   -0.6776 C   0  0  0  0  0  0  0  0  0  0  0  0
    4.1729    1.7983    0.1010 C   0  0  0  0  0  0  0  0  0  0  0  0
    5.3416    2.5278    0.2627 C   0  0  0  0  0  0  0  0  0  0  0  0
    6.4840    2.1180   -0.3505 C   0  0  0  0  0  0  0  0  0  0  0  0
    6.4707    1.0067   -1.1098 N   0  0  0  0  0  0  0  0  0  0  0  0
    5.3428    0.2756   -1.2845 C   0  0  0  0  0  0  0  0  0  0  0  0
    1.8069    0.2932   -0.2458 N   0  0  0  0  0  0  0  0  0  0  0  0
    0.6116   -0.3773   -0.3566 C   0  0  0  0  0  0  0  0  0  0  0  0
   -0.5373    0.2637    0.1403 N   0  0  0  0  0  0  0  0  0  0  0  0
   -0.3031    1.4415    1.0202 C   0  0  0  0  0  0  0  0  0  0  0  0
   -1.5631    2.0265    1.5125 C   0  0  0  0  0  0  0  0  0  0  0  0
   -2.2202    3.0341    0.8005 C   0  0  0  0  0  0  0  0  0  0  0  0
   -3.3990    3.5847    1.2566 C   0  0  0  0  0  0  0  0  0  0  0  0
   -3.9720    3.1564    2.4379 C   0  0  0  0  0  0  0  0  0  0  0  0
   -3.2957    2.1537    3.1235 C   0  0  0  0  0  0  0  0  0  0  0  0
   -2.1508    1.6327    2.6616 N   0  0  0  0  0  0  0  0  0  0  0  0
    0.5888   -1.5066   -1.1118 C   0  0  0  0  0  0  0  0  0  0  0  0
   -2.9515   -1.7972   -1.1388 C   0  0  0  0  0  0  0  0  0  0  0  0
   -4.1507   -1.6682   -0.4609 C   0  0  0  0  0  0  0  0  0  0  0  0
   -5.0431   -1.6915    1.4885 H   0  0  0  0  0  0  0  0  0  0  0  0
   -2.9410   -2.1146    2.6863 H   0  0  0  0  0  0  0  0  0  0  0  0
   -0.8700   -2.3320    1.4518 H   0  0  0  0  0  0  0  0  0  0  0  0
   -1.4023   -3.9675   -2.1524 H   0  0  0  0  0  0  0  0  0  0  0  0
    0.6662   -4.6762   -3.2665 H   0  0  0  0  0  0  0  0  0  0  0  0
    2.7505   -3.3171   -2.9862 H   0  0  0  0  0  0  0  0  0  0  0  0
    3.2951    2.1517    0.5986 H   0  0  0  0  0  0  0  0  0  0  0  0
    5.3161    3.4168    0.8808 H   0  0  0  0  0  0  0  0  0  0  0  0
    7.3931    2.6963   -0.2172 H   0  0  0  0  0  0  0  0  0  0  0  0
    5.3181   -0.6179   -1.8910 H   0  0  0  0  0  0  0  0  0  0  0  0
   -1.4899    0.1126   -0.0606 H   0  0  0  0  0  0  0  0  0  0  0  0
    0.3362    1.1527    1.8744 H   0  0  0  0  0  0  0  0  0  0  0  0
    0.1727    2.2394    0.3849 H   0  0  0  0  0  0  0  0  0  0  0  0
   -1.7912    3.3778   -0.1158 H   0  0  0  0  0  0  0  0  0  0  0  0
   -3.9195    4.3643    0.7181 H   0  0  0  0  0  0  0  0  0  0  0  0
   -4.8891    3.5557    2.8328 H   0  0  0  0  0  0  0  0  0  0  0  0
   -3.7534    1.8228    4.0517 H   0  0  0  0  0  0  0  0  0  0  0  0
   -2.9679   -1.7068   -2.2033 H   0  0  0  0  0  0  0  0  0  0  0  0
   -5.1039   -1.4829   -0.9243 H   0  0  0  0  0  0  0  0  0  0  0  0
  1  2  2  0
  2  3  1  0
  3  4  2  0
  4  5  1  0
  5  6  2  0
  6  7  1  0
  7  8  2  0
  8  9  1  0
  9 10  2  0
 10 11  1  0
 11 12  1  0
 12 13  2  0
 13 14  1  0
 14 15  2  0
 15 16  1  0
 16 17  2  0
 11 18  2  0
 18 19  1  0
 19 20  1  0
 20 21  1  0
 21 22  1  0
 22 23  2  0
 23 24  1  0
 24 25  2  0
 25 26  1  0
 26 27  2  0
 19 28  2  0
  4 29  1  0
 29 30  2  0
 30  1  1  0
 28  5  1  0
 28  9  1  0
 17 12  1  0
 27 22  1  0
  1 31  1  0
  2 32  1  0
  3 33  1  0
  6 34  1  0
  7 35  1  0
  8 36  1  0
 13 37  1  0
 14 38  1  0
 15 39  1  0
 17 40  1  0
 20 41  1  0
 21 42  1  0
 21 43  1  0
 23 44  1  0
 24 45  1  0
 25 46  1  0
 26 47  1  0
 29 48  1  0
 30 49  1  0
M  END
$$$$
