
     RDKit          3D

 56 60  0  0  0  0  0  0  0  0999 V2000
   -2.8346    1.0618    3.3328 N   0  0  0  0  0  0  0  0  0  0  0  0
   -3.6856    0.8569    2.1878 C   0  0  0  0  0  0  0  0  0  0  0  0
   -3.6619   -0.2108    1.5069 N   0  0  0  0  0  0  0  0  0  0  0  0
   -4.4813   -0.4974    0.3486 C   0  0  2  0  0  0  0  0  0  0  0  0
   -4.9139   -1.9842    0.4556 C   0  0  0  0  0  0  0  0  0  0  0  0
   -5.6982   -2.3695   -0.5898 F   0  0  0  0  0  0  0  0  0  0  0  0
   -3.6150   -0.4036   -0.8525 C   0  0  0  0  0  0  0  0  0  0  0  0
   -2.2461   -0.1560   -0.6621 C   0  0  0  0  0  0  0  0  0  0  0  0
   -1.3481   -0.0863   -1.7028 C   0  0  0  0  0  0  0  0  0  0  0  0
    0.0266    0.1112   -1.5749 N   0  0  0  0  0  0  0  0  0  0  0  0
    0.7819   -0.2292   -0.4349 C   0  0  0  0  0  0  0  0  0  0  0  0
    0.2140   -0.6805    0.6916 N   0  0  0  0  0  0  0  0  0  0  0  0
    0.9410   -1.0612    1.7837 C   0  0  0  0  0  0  0  0  0  0  0  0
    2.3189   -0.9541    1.6581 C   0  0  0  0  0  0  0  0  0  0  0  0
    2.9293   -0.5078    0.5461 C   0  0  0  0  0  0  0  0  0  0  0  0
    4.3225   -0.4201    0.4261 C   0  0  0  0  0  0  0  0  0  0  0  0
    4.9282    0.0205   -0.7127 C   0  0  0  0  0  0  0  0  0  0  0  0
    6.3469    0.0962   -0.9062 C   0  0  0  0  0  0  0  0  0  0  0  0
    7.5292    0.1743   -1.0805 C   0  0  0  0  0  0  0  0  0  0  0  0
    8.9685    0.2555   -1.2792 C   0  0  0  0  0  0  0  0  0  0  0  0
    9.8686   -0.7023   -0.4374 C   0  0  0  0  0  0  0  0  0  0  0  0
    9.7914    0.7335   -0.1602 C   0  0  0  0  0  0  0  0  0  0  0  0
    4.1054    0.3919   -1.7778 C   0  0  0  0  0  0  0  0  0  0  0  0
    2.7525    0.2984   -1.6435 N   0  0  0  0  0  0  0  0  0  0  0  0
    2.1734   -0.1285   -0.5435 C   0  0  0  0  0  0  0  0  0  0  0  0
   -1.8264   -0.2664   -3.0069 C   0  0  0  0  0  0  0  0  0  0  0  0
   -3.1468   -0.5060   -3.2054 C   0  0  0  0  0  0  0  0  0  0  0  0
   -4.0520   -0.5777   -2.1424 C   0  0  0  0  0  0  0  0  0  0  0  0
   -5.3599   -0.8084   -2.4252 F   0  0  0  0  0  0  0  0  0  0  0  0
   -5.6863    0.3791    0.2756 C   0  0  0  0  0  0  0  0  0  0  0  0
   -5.6968    1.6172    1.0882 C   0  0  1  0  0  0  0  0  0  0  0  0
   -6.8966    1.6779    2.0297 C   0  0  0  0  0  0  0  0  0  0  0  0
   -6.8049    2.8687    2.7075 F   0  0  0  0  0  0  0  0  0  0  0  0
   -6.8119    0.6829    2.9909 F   0  0  0  0  0  0  0  0  0  0  0  0
   -8.0402    1.6069    1.2788 F   0  0  0  0  0  0  0  0  0  0  0  0
   -4.5481    1.8561    1.8274 O   0  0  0  0  0  0  0  0  0  0  0  0
   -2.5243    0.2945    3.9428 H   0  0  0  0  0  0  0  0  0  0  0  0
   -2.5330    2.0293    3.5347 H   0  0  0  0  0  0  0  0  0  0  0  0
   -5.5499   -2.0921    1.3829 H   0  0  0  0  0  0  0  0  0  0  0  0
   -3.9792   -2.5662    0.5176 H   0  0  0  0  0  0  0  0  0  0  0  0
   -1.8891   -0.0049    0.3482 H   0  0  0  0  0  0  0  0  0  0  0  0
    0.5478    0.5542   -2.3966 H   0  0  0  0  0  0  0  0  0  0  0  0
    0.4675   -1.4203    2.6797 H   0  0  0  0  0  0  0  0  0  0  0  0
    2.9439   -1.2473    2.5045 H   0  0  0  0  0  0  0  0  0  0  0  0
    4.9033   -0.7174    1.2817 H   0  0  0  0  0  0  0  0  0  0  0  0
    9.3196    0.3393   -2.3429 H   0  0  0  0  0  0  0  0  0  0  0  0
    9.3274   -1.4732    0.1296 H   0  0  0  0  0  0  0  0  0  0  0  0
   10.7583   -1.1309   -1.0013 H   0  0  0  0  0  0  0  0  0  0  0  0
   10.6570    1.3827   -0.4570 H   0  0  0  0  0  0  0  0  0  0  0  0
    9.2537    1.0382    0.7701 H   0  0  0  0  0  0  0  0  0  0  0  0
    4.5283    0.7510   -2.6946 H   0  0  0  0  0  0  0  0  0  0  0  0
   -1.1382   -0.2113   -3.8493 H   0  0  0  0  0  0  0  0  0  0  0  0
   -3.5021   -0.6463   -4.2249 H   0  0  0  0  0  0  0  0  0  0  0  0
   -5.7758    0.6944   -0.8144 H   0  0  0  0  0  0  0  0  0  0  0  0
   -6.6166   -0.2190    0.4646 H   0  0  0  0  0  0  0  0  0  0  0  0
   -5.8427    2.5062    0.4126 H   0  0  0  0  0  0  0  0  0  0  0  0
  1  2  1  0
  2  3  2  0
  3  4  1  0
  4  5  1  1
  5  6  1  0
  4  7  1  0
  7  8  2  0
  8  9  1  0
  9 10  1  0
 10 11  1  0
 11 12  2  0
 12 13  1  0
 13 14  2  0
 14 15  1  0
 15 16  2  0
 16 17  1  0
 17 18  1  0
 18 19  3  0
 19 20  1  0
 20 21  1  0
 21 22  1  0
 17 23  2  0
 23 24  1  0
 24 25  2  0
  9 26  2  0
 26 27  1  0
 27 28  2  0
 28 29  1  0
  4 30  1  0
 30 31  1  0
 31 32  1  0
 32 33  1  0
 32 34  1  0
 32 35  1  0
 31 36  1  0
 36  2  1  0
 28  7  1  0
 25 11  1  0
 25 15  1  0
 22 20  1  0
  1 37  1  0
  1 38  1  0
  5 39  1  0
  5 40  1  0
  8 41  1  0
 10 42  1  0
 13 43  1  0
 14 44  1  0
 16 45  1  0
 20 46  1  0
 21 47  1  0
 21 48  1  0
 22 49  1  0
 22 50  1  0
 23 51  1  0
 26 52  1  0
 27 53  1  0
 30 54  1  0
 30 55  1  0
 31 56  1  6
M  END
$$$$
