@<TRIPOS>MOLECULE
*****
 56 60 0 0 0
SMALL
GASTEIGER

@<TRIPOS>ATOM
      1 N          -2.8346    1.0618    3.3328 N.pl3   1  UNL1       -0.3134
      2 C          -3.6856    0.8569    2.1878 C.2     1  UNL1        0.2766
      3 N          -3.6619   -0.2108    1.5069 N.2     1  UNL1       -0.2228
      4 C          -4.4813   -0.4974    0.3486 C.3     1  UNL1        0.1258
      5 C          -4.9139   -1.9842    0.4556 C.3     1  UNL1        0.1196
      6 F          -5.6982   -2.3695   -0.5898 F       1  UNL1       -0.2462
      7 C          -3.6150   -0.4036   -0.8525 C.ar    1  UNL1        0.0196
      8 C          -2.2461   -0.1560   -0.6621 C.ar    1  UNL1       -0.0322
      9 C          -1.3481   -0.0863   -1.7028 C.ar    1  UNL1        0.0329
     10 N           0.0266    0.1112   -1.5749 N.pl3   1  UNL1       -0.2977
     11 C           0.7819   -0.2292   -0.4349 C.ar    1  UNL1        0.1490
     12 N           0.2140   -0.6805    0.6916 N.ar    1  UNL1       -0.2380
     13 C           0.9410   -1.0612    1.7837 C.ar    1  UNL1        0.0304
     14 C           2.3189   -0.9541    1.6581 C.ar    1  UNL1       -0.0342
     15 C           2.9293   -0.5078    0.5461 C.ar    1  UNL1        0.0063
     16 C           4.3225   -0.4201    0.4261 C.ar    1  UNL1       -0.0355
     17 C           4.9282    0.0205   -0.7127 C.ar    1  UNL1        0.0436
     18 C           6.3469    0.0962   -0.9062 C.1     1  UNL1       -0.0645
     19 C           7.5292    0.1743   -1.0805 C.1     1  UNL1       -0.0936
     20 C           8.9685    0.2555   -1.2792 C.3     1  UNL1        0.0211
     21 C           9.8686   -0.7023   -0.4374 C.3     1  UNL1       -0.0382
     22 C           9.7914    0.7335   -0.1602 C.3     1  UNL1       -0.0382
     23 C           4.1054    0.3919   -1.7778 C.ar    1  UNL1        0.0438
     24 N           2.7525    0.2984   -1.6435 N.ar    1  UNL1       -0.2503
     25 C           2.1734   -0.1285   -0.5435 C.ar    1  UNL1        0.1109
     26 C          -1.8264   -0.2664   -3.0069 C.ar    1  UNL1       -0.0378
     27 C          -3.1468   -0.5060   -3.2054 C.ar    1  UNL1       -0.0243
     28 C          -4.0520   -0.5777   -2.1424 C.ar    1  UNL1        0.1291
     29 F          -5.3599   -0.8084   -2.4252 F       1  UNL1       -0.2051
     30 C          -5.6863    0.3791    0.2756 C.3     1  UNL1        0.0251
     31 C          -5.6968    1.6172    1.0882 C.3     1  UNL1        0.1998
     32 C          -6.8966    1.6779    2.0297 C.3     1  UNL1        0.4266
     33 F          -6.8049    2.8687    2.7075 F       1  UNL1       -0.1669
     34 F          -6.8119    0.6829    2.9909 F       1  UNL1       -0.1669
     35 F          -8.0402    1.6069    1.2788 F       1  UNL1       -0.1669
     36 O          -4.5481    1.8561    1.8274 O.2     1  UNL1       -0.4534
     37 H          -2.5243    0.2945    3.9428 H       1  UNL1        0.1466
     38 H          -2.5330    2.0293    3.5347 H       1  UNL1        0.1466
     39 H          -5.5499   -2.0921    1.3829 H       1  UNL1        0.0643
     40 H          -3.9792   -2.5662    0.5176 H       1  UNL1        0.0643
     41 H          -1.8891   -0.0049    0.3482 H       1  UNL1        0.0640
     42 H           0.5478    0.5542   -2.3966 H       1  UNL1        0.1536
     43 H           0.4675   -1.4203    2.6797 H       1  UNL1        0.0830
     44 H           2.9439   -1.2473    2.5045 H       1  UNL1        0.0639
     45 H           4.9033   -0.7174    1.2817 H       1  UNL1        0.0637
     46 H           9.3196    0.3393   -2.3429 H       1  UNL1        0.0433
     47 H           9.3274   -1.4732    0.1296 H       1  UNL1        0.0277
     48 H          10.7583   -1.1309   -1.0013 H       1  UNL1        0.0277
     49 H          10.6570    1.3827   -0.4570 H       1  UNL1        0.0277
     50 H           9.2537    1.0382    0.7701 H       1  UNL1        0.0277
     51 H           4.5283    0.7510   -2.6946 H       1  UNL1        0.0842
     52 H          -1.1382   -0.2113   -3.8493 H       1  UNL1        0.0637
     53 H          -3.5021   -0.6463   -4.2249 H       1  UNL1        0.0647
     54 H          -5.7758    0.6944   -0.8144 H       1  UNL1        0.0331
     55 H          -6.6166   -0.2190    0.4646 H       1  UNL1        0.0331
     56 H          -5.8427    2.5062    0.4126 H       1  UNL1        0.0826
@<TRIPOS>BOND
     1     1     2    1
     2     2     3    2
     3     3     4    1
     4     4     5    1
     5     5     6    1
     6     4     7    1
     7     7     8   ar
     8     8     9   ar
     9     9    10    1
    10    10    11    1
    11    11    12   ar
    12    12    13   ar
    13    13    14   ar
    14    14    15   ar
    15    15    16   ar
    16    16    17   ar
    17    17    18    1
    18    18    19    3
    19    19    20    1
    20    20    21    1
    21    21    22    1
    22    17    23   ar
    23    23    24   ar
    24    24    25   ar
    25     9    26   ar
    26    26    27   ar
    27    27    28   ar
    28    28    29    1
    29     4    30    1
    30    30    31    1
    31    31    32    1
    32    32    33    1
    33    32    34    1
    34    32    35    1
    35    31    36    1
    36    36     2    1
    37    28     7   ar
    38    25    11   ar
    39    25    15   ar
    40    22    20    1
    41     1    37    1
    42     1    38    1
    43     5    39    1
    44     5    40    1
    45     8    41    1
    46    10    42    1
    47    13    43    1
    48    14    44    1
    49    16    45    1
    50    20    46    1
    51    21    47    1
    52    21    48    1
    53    22    49    1
    54    22    50    1
    55    23    51    1
    56    26    52    1
    57    27    53    1
    58    30    54    1
    59    30    55    1
    60    31    56    1
