
     RDKit          3D

 59 64  0  0  0  0  0  0  0  0999 V2000
    9.8698   -1.9696   -1.1467 C   0  0  0  0  0  0  0  0  0  0  0  0
    9.0490   -0.8463   -1.2915 O   0  0  0  0  0  0  0  0  0  0  0  0
    7.7965   -0.7328   -0.7107 C   0  0  0  0  0  0  0  0  0  0  0  0
    7.2706   -1.7451    0.0641 C   0  0  0  0  0  0  0  0  0  0  0  0
    6.0025   -1.5875    0.6308 C   0  0  0  0  0  0  0  0  0  0  0  0
    5.2858   -0.4319    0.4167 C   0  0  0  0  0  0  0  0  0  0  0  0
    3.9511   -0.2393    0.9997 C   0  0  0  0  0  0  0  0  0  0  0  0
    3.4264   -1.1324    1.7142 O   0  0  0  0  0  0  0  0  0  0  0  0
    3.2031    0.9386    0.7904 N   0  0  0  0  0  0  0  0  0  0  0  0
    1.9089    1.1428    1.3469 C   0  0  0  0  0  0  0  0  0  0  0  0
    1.7028    1.7203    2.5785 C   0  0  0  0  0  0  0  0  0  0  0  0
    0.4477    1.9117    3.0995 C   0  0  0  0  0  0  0  0  0  0  0  0
   -0.6730    1.4997    2.3432 C   0  0  0  0  0  0  0  0  0  0  0  0
   -0.5222    0.9207    1.1258 C   0  0  0  0  0  0  0  0  0  0  0  0
    0.8021    0.7513    0.6356 C   0  0  0  0  0  0  0  0  0  0  0  0
   -1.6405    0.4033    0.3190 C   0  0  0  0  0  0  0  0  0  0  0  0
   -1.6079   -1.1117    0.3964 C   0  0  0  0  0  0  0  0  0  0  0  0
   -0.7106   -1.8354   -0.5074 C   0  0  0  0  0  0  0  0  0  0  0  0
   -0.7611   -1.2337   -2.1911 S   0  0  0  0  0  0  0  0  0  0  0  0
   -1.3675    0.4655   -2.1083 C   0  0  0  0  0  0  0  0  0  0  0  0
   -1.4597    1.1565   -3.3457 N   0  0  0  0  0  0  0  0  0  0  0  0
   -1.6735    0.9527   -0.9965 N   0  0  0  0  0  0  0  0  0  0  0  0
   -2.9541    0.7792    0.9648 C   0  0  0  0  0  0  0  0  0  0  0  0
   -4.1173    0.4338    0.2742 C   0  0  0  0  0  0  0  0  0  0  0  0
   -5.3593    0.6703    0.8099 C   0  0  0  0  0  0  0  0  0  0  0  0
   -6.6116    0.3411    0.1559 C   0  0  0  0  0  0  0  0  0  0  0  0
   -7.8144    0.6144    0.7676 C   0  0  0  0  0  0  0  0  0  0  0  0
   -9.0068    0.3293    0.2044 N   0  0  0  0  0  0  0  0  0  0  0  0
   -9.0634   -0.2466   -1.0052 C   0  0  0  0  0  0  0  0  0  0  0  0
   -7.8769   -0.5330   -1.6440 C   0  0  0  0  0  0  0  0  0  0  0  0
   -7.9505   -1.1124   -2.8603 F   0  0  0  0  0  0  0  0  0  0  0  0
   -6.6280   -0.2467   -1.0799 C   0  0  0  0  0  0  0  0  0  0  0  0
   -5.4416    1.2507    2.0331 N   0  0  0  0  0  0  0  0  0  0  0  0
   -4.3236    1.5745    2.6769 C   0  0  0  0  0  0  0  0  0  0  0  0
   -4.4307    2.1539    3.8988 F   0  0  0  0  0  0  0  0  0  0  0  0
   -3.0396    1.3582    2.1792 C   0  0  0  0  0  0  0  0  0  0  0  0
   -1.9182    1.7325    2.9050 O   0  0  0  0  0  0  0  0  0  0  0  0
    5.8515    0.5168   -0.3466 N   0  0  0  0  0  0  0  0  0  0  0  0
    7.0550    0.4051   -0.9033 C   0  0  0  0  0  0  0  0  0  0  0  0
   10.3327   -2.0413   -0.1420 H   0  0  0  0  0  0  0  0  0  0  0  0
    9.2412   -2.8988   -1.2741 H   0  0  0  0  0  0  0  0  0  0  0  0
   10.6539   -1.9563   -1.9551 H   0  0  0  0  0  0  0  0  0  0  0  0
    7.8644   -2.6351    0.2077 H   0  0  0  0  0  0  0  0  0  0  0  0
    5.6049   -2.3877    1.2341 H   0  0  0  0  0  0  0  0  0  0  0  0
    3.6668    1.6790    0.1834 H   0  0  0  0  0  0  0  0  0  0  0  0
    2.5744    2.0251    3.1354 H   0  0  0  0  0  0  0  0  0  0  0  0
    0.2596    2.3620    4.0611 H   0  0  0  0  0  0  0  0  0  0  0  0
    0.9186    0.3257   -0.3483 H   0  0  0  0  0  0  0  0  0  0  0  0
   -2.6730   -1.4927    0.3603 H   0  0  0  0  0  0  0  0  0  0  0  0
   -1.2385   -1.3186    1.4587 H   0  0  0  0  0  0  0  0  0  0  0  0
    0.3307   -1.8184   -0.1361 H   0  0  0  0  0  0  0  0  0  0  0  0
   -1.0513   -2.9312   -0.4730 H   0  0  0  0  0  0  0  0  0  0  0  0
   -2.3344    1.0080   -3.8966 H   0  0  0  0  0  0  0  0  0  0  0  0
   -0.7219    1.7740   -3.7025 H   0  0  0  0  0  0  0  0  0  0  0  0
   -4.0326   -0.0243   -0.6919 H   0  0  0  0  0  0  0  0  0  0  0  0
   -7.8107    1.0779    1.7424 H   0  0  0  0  0  0  0  0  0  0  0  0
  -10.0262   -0.4705   -1.4466 H   0  0  0  0  0  0  0  0  0  0  0  0
   -5.7319   -0.4845   -1.6076 H   0  0  0  0  0  0  0  0  0  0  0  0
    7.5024    1.1892   -1.5239 H   0  0  0  0  0  0  0  0  0  0  0  0
  1  2  1  0
  2  3  1  0
  3  4  2  0
  4  5  1  0
  5  6  2  0
  6  7  1  0
  7  8  2  0
  7  9  1  0
  9 10  1  0
 10 11  2  0
 11 12  1  0
 12 13  2  0
 13 14  1  0
 14 15  2  0
 14 16  1  0
 16 17  1  0
 17 18  1  0
 18 19  1  0
 19 20  1  0
 20 21  1  0
 20 22  2  0
 16 23  1  0
 23 24  2  0
 24 25  1  0
 25 26  1  0
 26 27  2  0
 27 28  1  0
 28 29  2  0
 29 30  1  0
 30 31  1  0
 30 32  2  0
 25 33  2  0
 33 34  1  0
 34 35  1  0
 34 36  2  0
 36 37  1  0
  6 38  1  0
 38 39  2  0
 39  3  1  0
 15 10  1  0
 22 16  1  0
 36 23  1  0
 37 13  1  0
 32 26  1  0
  1 40  1  0
  1 41  1  0
  1 42  1  0
  4 43  1  0
  5 44  1  0
  9 45  1  0
 11 46  1  0
 12 47  1  0
 15 48  1  0
 17 49  1  0
 17 50  1  0
 18 51  1  0
 18 52  1  0
 21 53  1  0
 21 54  1  0
 24 55  1  0
 27 56  1  0
 29 57  1  0
 32 58  1  0
 39 59  1  0
M  END
$$$$
