@<TRIPOS>MOLECULE
*****
 59 64 0 0 0
SMALL
GASTEIGER

@<TRIPOS>ATOM
      1 C           9.8698   -1.9696   -1.1467 C.3     1  UNL1        0.0789
      2 O           9.0490   -0.8463   -1.2915 O.3     1  UNL1       -0.4936
      3 C           7.7965   -0.7328   -0.7107 C.ar    1  UNL1        0.1381
      4 C           7.2706   -1.7451    0.0641 C.ar    1  UNL1       -0.0163
      5 C           6.0025   -1.5875    0.6308 C.ar    1  UNL1       -0.0277
      6 C           5.2858   -0.4319    0.4167 C.ar    1  UNL1        0.1259
      7 C           3.9511   -0.2393    0.9997 C.2     1  UNL1        0.2666
      8 O           3.4264   -1.1324    1.7142 O.2     1  UNL1       -0.2682
      9 N           3.2031    0.9386    0.7904 N.am    1  UNL1       -0.2802
     10 C           1.9089    1.1428    1.3469 C.ar    1  UNL1        0.0343
     11 C           1.7028    1.7203    2.5785 C.ar    1  UNL1       -0.0370
     12 C           0.4477    1.9117    3.0995 C.ar    1  UNL1       -0.0172
     13 C          -0.6730    1.4997    2.3432 C.ar    1  UNL1        0.1346
     14 C          -0.5222    0.9207    1.1258 C.ar    1  UNL1        0.0285
     15 C           0.8021    0.7513    0.6356 C.ar    1  UNL1       -0.0312
     16 C          -1.6405    0.4033    0.3190 C.3     1  UNL1        0.1217
     17 C          -1.6079   -1.1117    0.3964 C.3     1  UNL1       -0.0096
     18 C          -0.7106   -1.8354   -0.5074 C.3     1  UNL1        0.0037
     19 S          -0.7611   -1.2337   -2.1911 S.3     1  UNL1       -0.0910
     20 C          -1.3675    0.4655   -2.1083 C.2     1  UNL1        0.1478
     21 N          -1.4597    1.1565   -3.3457 N.pl3   1  UNL1       -0.3380
     22 N          -1.6735    0.9527   -0.9965 N.2     1  UNL1       -0.2472
     23 C          -2.9541    0.7792    0.9648 C.ar    1  UNL1        0.0333
     24 C          -4.1173    0.4338    0.2742 C.ar    1  UNL1       -0.0261
     25 C          -5.3593    0.6703    0.8099 C.ar    1  UNL1        0.0762
     26 C          -6.6116    0.3411    0.1559 C.ar    1  UNL1        0.0213
     27 C          -7.8144    0.6144    0.7676 C.ar    1  UNL1        0.0369
     28 N          -9.0068    0.3293    0.2044 N.ar    1  UNL1       -0.2598
     29 C          -9.0634   -0.2466   -1.0052 C.ar    1  UNL1        0.0628
     30 C          -7.8769   -0.5330   -1.6440 C.ar    1  UNL1        0.1420
     31 F          -7.9505   -1.1124   -2.8603 F       1  UNL1       -0.2039
     32 C          -6.6280   -0.2467   -1.0799 C.ar    1  UNL1       -0.0143
     33 N          -5.4416    1.2507    2.0331 N.ar    1  UNL1       -0.2160
     34 C          -4.3236    1.5745    2.6769 C.ar    1  UNL1        0.2567
     35 F          -4.4307    2.1539    3.8988 F       1  UNL1       -0.1799
     36 C          -3.0396    1.3582    2.1792 C.ar    1  UNL1        0.1883
     37 O          -1.9182    1.7325    2.9050 O.3     1  UNL1       -0.4508
     38 N           5.8515    0.5168   -0.3466 N.ar    1  UNL1       -0.2467
     39 C           7.0550    0.4051   -0.9033 C.ar    1  UNL1        0.0700
     40 H          10.3327   -2.0413   -0.1420 H       1  UNL1        0.0660
     41 H           9.2412   -2.8988   -1.2741 H       1  UNL1        0.0660
     42 H          10.6539   -1.9563   -1.9551 H       1  UNL1        0.0660
     43 H           7.8644   -2.6351    0.2077 H       1  UNL1        0.0655
     44 H           5.6049   -2.3877    1.2341 H       1  UNL1        0.0641
     45 H           3.6668    1.6790    0.1834 H       1  UNL1        0.1552
     46 H           2.5744    2.0251    3.1354 H       1  UNL1        0.0637
     47 H           0.2596    2.3620    4.0611 H       1  UNL1        0.0655
     48 H           0.9186    0.3257   -0.3483 H       1  UNL1        0.0641
     49 H          -2.6730   -1.4927    0.3603 H       1  UNL1        0.0303
     50 H          -1.2385   -1.3186    1.4587 H       1  UNL1        0.0303
     51 H           0.3307   -1.8184   -0.1361 H       1  UNL1        0.0381
     52 H          -1.0513   -2.9312   -0.4730 H       1  UNL1        0.0381
     53 H          -2.3344    1.0080   -3.8966 H       1  UNL1        0.1442
     54 H          -0.7219    1.7740   -3.7025 H       1  UNL1        0.1442
     55 H          -4.0326   -0.0243   -0.6919 H       1  UNL1        0.0644
     56 H          -7.8107    1.0779    1.7424 H       1  UNL1        0.0836
     57 H         -10.0262   -0.4705   -1.4466 H       1  UNL1        0.0859
     58 H          -5.7319   -0.4845   -1.6076 H       1  UNL1        0.0654
     59 H           7.5024    1.1892   -1.5239 H       1  UNL1        0.0867
@<TRIPOS>BOND
     1     1     2    1
     2     2     3    1
     3     3     4   ar
     4     4     5   ar
     5     5     6   ar
     6     6     7    1
     7     7     8    2
     8     7     9   am
     9     9    10    1
    10    10    11   ar
    11    11    12   ar
    12    12    13   ar
    13    13    14   ar
    14    14    15   ar
    15    14    16    1
    16    16    17    1
    17    17    18    1
    18    18    19    1
    19    19    20    1
    20    20    21    1
    21    20    22    2
    22    16    23    1
    23    23    24   ar
    24    24    25   ar
    25    25    26    1
    26    26    27   ar
    27    27    28   ar
    28    28    29   ar
    29    29    30   ar
    30    30    31    1
    31    30    32   ar
    32    25    33   ar
    33    33    34   ar
    34    34    35    1
    35    34    36   ar
    36    36    37    1
    37     6    38   ar
    38    38    39   ar
    39    39     3   ar
    40    15    10   ar
    41    22    16    1
    42    36    23   ar
    43    37    13    1
    44    32    26   ar
    45     1    40    1
    46     1    41    1
    47     1    42    1
    48     4    43    1
    49     5    44    1
    50     9    45    1
    51    11    46    1
    52    12    47    1
    53    15    48    1
    54    17    49    1
    55    17    50    1
    56    18    51    1
    57    18    52    1
    58    21    53    1
    59    21    54    1
    60    24    55    1
    61    27    56    1
    62    29    57    1
    63    32    58    1
    64    39    59    1
