@<TRIPOS>MOLECULE
*****
 81 88 0 0 0
SMALL
GASTEIGER

@<TRIPOS>ATOM
      1 C           6.5479   -1.4880    0.1628 C.3     1  UNL1        0.0000
      2 C           5.6989   -1.2629   -1.0568 C.3     1  UNL1        0.0000
      3 S           6.1164   -2.2861   -2.4652 S.3     1  UNL1        0.0000
      4 C           4.2460   -1.3648   -0.7039 C.ar    1  UNL1        0.0000
      5 C           3.3047   -0.4230   -0.4296 C.ar    1  UNL1        0.0000
      6 C           3.7926    0.9001   -0.1451 C.2     1  UNL1        0.0000
      7 C           2.7952    1.5699    0.4367 C.2     1  UNL1        0.0000
      8 C           3.1443    2.9065    0.7978 C.2     1  UNL1        0.0000
      9 C           4.4114    3.6947    0.8098 C.3     1  UNL1        0.0000
     10 C           2.0106    3.4188    1.1925 C.2     1  UNL1        0.0000
     11 C           1.9073    4.8381    1.6749 C.3     1  UNL1        0.0000
     12 C           0.9815    5.5812    0.7429 C.3     1  UNL1        0.0000
     13 S           1.3172    4.8889    3.3872 S.3     1  UNL1        0.0000
     14 C           0.9982    2.4218    1.0686 C.2     1  UNL1        0.0000
     15 N           1.4347    1.3558    0.6484 N.2     1  UNL1        1.0000
     16 FE          0.5658   -0.1852    0.2956 Fe      1  UNL1        0.0000
     17 N          -1.0264    0.7456    0.1827 N.ar    1  UNL1        0.0000
     18 C          -1.1590    1.9530    0.6741 C.ar    1  UNL1        0.0000
     19 C          -0.3741    2.9097    1.1584 C.2     1  UNL1        0.0000
     20 C          -2.4668    2.3440    0.5935 C.ar    1  UNL1        0.0000
     21 C          -3.2045    3.5863    1.0083 C.3     1  UNL1        0.0000
     22 C          -3.1436    1.3142    0.0252 C.ar    1  UNL1        0.0000
     23 C          -4.6019    1.3432   -0.2606 C.3     1  UNL1        0.0000
     24 C          -4.9518    2.1432   -1.4759 C.3     1  UNL1        0.0000
     25 C          -6.4478    2.0574   -1.6248 C.2     1  UNL1        0.0000
     26 O          -7.5884    1.5219   -1.0702 O.3     1  UNL1        0.0000
     27 O          -7.0403    2.6527   -2.5780 O.2     1  UNL1        0.0000
     28 C          -2.1978    0.3739   -0.1890 C.ar    1  UNL1        0.0000
     29 C          -2.6373   -0.8295   -0.5088 C.2     1  UNL1        0.0000
     30 C          -1.5411   -1.7905   -0.3954 C.2     1  UNL1        0.0000
     31 N          -0.3198   -1.7044   -0.1046 N.2     1  UNL1        1.0000
     32 C           0.1820   -2.9663   -0.2117 C.2     1  UNL1        0.0000
     33 C           1.4149   -3.4425   -0.3223 C.2     1  UNL1        0.0000
     34 C           2.2722   -2.2594   -0.3160 C.ar    1  UNL1        0.0000
     35 N           2.1513   -0.9629   -0.2142 N.ar    1  UNL1        0.0000
     36 C           3.5749   -2.5423   -0.6219 C.ar    1  UNL1        0.0000
     37 C           4.3391   -3.8246   -0.8369 C.3     1  UNL1        0.0000
     38 C          -0.8651   -3.8746   -0.5753 C.2     1  UNL1        0.0000
     39 C          -0.8498   -5.3504   -0.7662 C.3     1  UNL1        0.0000
     40 C          -1.9349   -3.1407   -0.6901 C.2     1  UNL1        0.0000
     41 C          -3.2139   -3.7898   -1.1046 C.3     1  UNL1        0.0000
     42 C          -4.1367   -4.1243    0.0092 C.3     1  UNL1        0.0000
     43 C          -4.5884   -3.0104    0.8273 C.2     1  UNL1        0.0000
     44 O          -4.0376   -2.5015    1.9830 O.3     1  UNL1        0.0000
     45 O          -5.6467   -2.4343    0.3985 O.2     1  UNL1        0.0000
     46 H           7.1455   -0.6215    0.4454 H       1  UNL1        0.0000
     47 H           7.2592   -2.3194   -0.1019 H       1  UNL1        0.0000
     48 H           5.9472   -1.8831    1.0277 H       1  UNL1        0.0000
     49 H           5.9005   -0.1950   -1.3556 H       1  UNL1        0.0000
     50 H           7.0750   -3.2447   -2.0932 H       1  UNL1        0.0000
     51 H           4.8164    1.2724   -0.3921 H       1  UNL1        0.0000
     52 H           4.7008    3.8986    1.8640 H       1  UNL1        0.0000
     53 H           5.2077    3.1147    0.3409 H       1  UNL1        0.0000
     54 H           4.1671    4.6258    0.2434 H       1  UNL1        0.0000
     55 H           2.8620    5.2951    1.6438 H       1  UNL1        0.0000
     56 H           0.6193    4.9630   -0.1079 H       1  UNL1        0.0000
     57 H           1.5287    6.4293    0.2274 H       1  UNL1        0.0000
     58 H           0.1708    6.1023    1.2961 H       1  UNL1        0.0000
     59 H           2.4088    4.7344    4.2915 H       1  UNL1        0.0000
     60 H          -0.6800    3.8925    1.5797 H       1  UNL1        0.0000
     61 H          -3.2649    4.2621    0.1520 H       1  UNL1        0.0000
     62 H          -4.1411    3.2833    1.4704 H       1  UNL1        0.0000
     63 H          -2.6180    4.1152    1.8052 H       1  UNL1        0.0000
     64 H          -5.0702    1.7970    0.6348 H       1  UNL1        0.0000
     65 H          -5.0037    0.3030   -0.3098 H       1  UNL1        0.0000
     66 H          -4.7282    3.1941   -1.3140 H       1  UNL1        0.0000
     67 H          -4.4581    1.7582   -2.3930 H       1  UNL1        0.0000
     68 H          -8.0552    0.6840   -1.3498 H       1  UNL1        0.0000
     69 H          -3.6765   -1.0335   -0.8524 H       1  UNL1        0.0000
     70 H           1.7123   -4.5096   -0.3846 H       1  UNL1        0.0000
     71 H           4.3847   -3.9897   -1.9201 H       1  UNL1        0.0000
     72 H           3.8050   -4.6373   -0.2977 H       1  UNL1        0.0000
     73 H           5.3382   -3.7256   -0.4266 H       1  UNL1        0.0000
     74 H           0.1599   -5.8027   -0.6475 H       1  UNL1        0.0000
     75 H          -1.5795   -5.8308   -0.0829 H       1  UNL1        0.0000
     76 H          -1.1884   -5.5212   -1.8002 H       1  UNL1        0.0000
     77 H          -2.9813   -4.6200   -1.7799 H       1  UNL1        0.0000
     78 H          -3.7289   -3.0326   -1.7801 H       1  UNL1        0.0000
     79 H          -3.6135   -4.8643    0.6761 H       1  UNL1        0.0000
     80 H          -4.9868   -4.7215   -0.4150 H       1  UNL1        0.0000
     81 H          -4.6682   -2.1346    2.6958 H       1  UNL1        0.0000
@<TRIPOS>UNITY_ATOM_ATTR
15 1
charge 1
16 1
charge -2
31 1
charge 1
@<TRIPOS>BOND
     1     1     2    1
     2     2     3    1
     3     2     4    1
     4     4     5   ar
     5     5     6    1
     6     6     7    2
     7     7     8    1
     8     8     9    1
     9     8    10    2
    10    10    11    1
    11    11    12    1
    12    11    13    1
    13    10    14    1
    14    14    15    2
    15    15    16    1
    16    16    17    1
    17    17    18   ar
    18    18    19    2
    19    18    20   ar
    20    20    21    1
    21    20    22   ar
    22    22    23    1
    23    23    24    1
    24    24    25    1
    25    25    26    1
    26    25    27    2
    27    22    28   ar
    28    28    29    2
    29    29    30    1
    30    30    31    2
    31    31    32    1
    32    32    33    2
    33    33    34    1
    34    34    35   ar
    35    34    36   ar
    36    36    37    1
    37    32    38    1
    38    38    39    1
    39    38    40    2
    40    40    41    1
    41    41    42    1
    42    42    43    1
    43    43    44    1
    44    43    45    2
    45    36     4   ar
    46    35     5   ar
    47    15     7    1
    48    31    16    1
    49    19    14    1
    50    40    30    1
    51    35    16    1
    52    28    17   ar
    53     1    46    1
    54     1    47    1
    55     1    48    1
    56     2    49    1
    57     3    50    1
    58     6    51    1
    59     9    52    1
    60     9    53    1
    61     9    54    1
    62    11    55    1
    63    12    56    1
    64    12    57    1
    65    12    58    1
    66    13    59    1
    67    19    60    1
    68    21    61    1
    69    21    62    1
    70    21    63    1
    71    23    64    1
    72    23    65    1
    73    24    66    1
    74    24    67    1
    75    26    68    1
    76    29    69    1
    77    33    70    1
    78    37    71    1
    79    37    72    1
    80    37    73    1
    81    39    74    1
    82    39    75    1
    83    39    76    1
    84    41    77    1
    85    41    78    1
    86    42    79    1
    87    42    80    1
    88    44    81    1
