@<TRIPOS>MOLECULE
*****
 55 59 0 0 0
SMALL
GASTEIGER

@<TRIPOS>ATOM
      1 O           3.6563   -1.7538    0.3093 O.2     1  UNL1       -0.2702
      2 C           3.4255   -0.8320   -0.5472 C.2     1  UNL1        0.2441
      3 N           4.4989    0.0372   -0.8137 N.am    1  UNL1       -0.3099
      4 C           5.7994   -0.0601   -0.1893 C.3     1  UNL1        0.0273
      5 C           5.7630    0.0721    1.2986 C.3     1  UNL1        0.0232
      6 C           5.2112    1.3604    1.8039 C.3     1  UNL1       -0.0350
      7 C           6.2988    1.8726    2.7429 C.3     1  UNL1       -0.0390
      8 C           7.5470    1.3616    2.0266 C.3     1  UNL1       -0.0038
      9 N           7.1589   -0.0078    1.7570 N.3     1  UNL1       -0.3118
     10 C           2.0963   -0.7854   -1.1423 C.ar    1  UNL1        0.0367
     11 C           1.8008    0.1711   -2.0742 C.ar    1  UNL1       -0.0490
     12 C           0.5543    0.2183   -2.6331 C.ar    1  UNL1       -0.0518
     13 C          -0.4410   -0.6604   -2.3042 C.ar    1  UNL1        0.0020
     14 C          -1.7560   -0.5683   -2.9291 C.ar    1  UNL1        0.0929
     15 C          -2.0449   -0.3888   -4.2409 C.ar    1  UNL1        0.0560
     16 N          -3.3847   -0.3576   -4.4152 N.ar    1  UNL1       -0.2340
     17 C          -3.9478   -0.5201   -3.1928 C.ar    1  UNL1        0.1548
     18 C          -5.2540   -0.5738   -2.7416 C.ar    1  UNL1       -0.0142
     19 C          -5.4612   -0.7561   -1.3873 C.ar    1  UNL1       -0.0167
     20 C          -4.4237   -0.8838   -0.4850 C.ar    1  UNL1        0.1398
     21 N          -4.6416   -1.0588    0.9115 N.pl3   1  UNL1       -0.3274
     22 C          -5.9098   -1.0210    1.5729 C.3     1  UNL1        0.0133
     23 C          -6.5790    0.3198    1.5706 C.3     1  UNL1       -0.0255
     24 C          -5.8516    1.4921    2.2258 C.3     1  UNL1       -0.0485
     25 C          -7.0285    0.8767    2.8732 C.3     1  UNL1       -0.0485
     26 N          -3.1749   -0.8216   -0.9978 N.ar    1  UNL1       -0.1496
     27 N          -2.9609   -0.6484   -2.2873 N.ar    1  UNL1       -0.2110
     28 C          -0.1353   -1.6199   -1.3655 C.ar    1  UNL1       -0.0518
     29 C           1.1112   -1.6833   -0.7929 C.ar    1  UNL1       -0.0490
     30 H           4.3439    0.7998   -1.5065 H       1  UNL1        0.1491
     31 H           6.3080   -1.0265   -0.4200 H       1  UNL1        0.0477
     32 H           6.4668    0.7285   -0.5893 H       1  UNL1        0.0477
     33 H           5.2530   -0.8264    1.7406 H       1  UNL1        0.0476
     34 H           5.0222    2.0790    1.0026 H       1  UNL1        0.0281
     35 H           4.2853    1.1223    2.3909 H       1  UNL1        0.0281
     36 H           6.2628    1.3595    3.7239 H       1  UNL1        0.0278
     37 H           6.2805    2.9618    2.8071 H       1  UNL1        0.0278
     38 H           8.4327    1.3962    2.6605 H       1  UNL1        0.0424
     39 H           7.6973    1.9060    1.0890 H       1  UNL1        0.0424
     40 H           7.2513   -0.6250    2.5766 H       1  UNL1        0.1223
     41 H           2.5742    0.9051   -2.3735 H       1  UNL1        0.0625
     42 H           0.3009    0.9793   -3.3822 H       1  UNL1        0.0624
     43 H          -1.3118   -0.2834   -5.0509 H       1  UNL1        0.0852
     44 H          -6.0593   -0.4732   -3.4516 H       1  UNL1        0.0656
     45 H          -6.5052   -0.8062   -1.0464 H       1  UNL1        0.0653
     46 H          -3.7614   -1.2318    1.4883 H       1  UNL1        0.1475
     47 H          -6.6394   -1.7512    1.1566 H       1  UNL1        0.0464
     48 H          -5.7850   -1.3433    2.6399 H       1  UNL1        0.0464
     49 H          -7.1705    0.5939    0.7003 H       1  UNL1        0.0316
     50 H          -4.8413    1.2716    2.6616 H       1  UNL1        0.0269
     51 H          -5.9221    2.4866    1.7563 H       1  UNL1        0.0269
     52 H          -7.9519    1.4900    2.8737 H       1  UNL1        0.0269
     53 H          -6.9265    0.2841    3.8150 H       1  UNL1        0.0269
     54 H          -0.9088   -2.3416   -1.0771 H       1  UNL1        0.0624
     55 H           1.3776   -2.4361   -0.0454 H       1  UNL1        0.0625
@<TRIPOS>BOND
     1     1     2    2
     2     2     3   am
     3     3     4    1
     4     4     5    1
     5     5     6    1
     6     6     7    1
     7     7     8    1
     8     8     9    1
     9     2    10    1
    10    10    11   ar
    11    11    12   ar
    12    12    13   ar
    13    13    14    1
    14    14    15   ar
    15    15    16   ar
    16    16    17   ar
    17    17    18   ar
    18    18    19   ar
    19    19    20   ar
    20    20    21    1
    21    21    22    1
    22    22    23    1
    23    23    24    1
    24    24    25    1
    25    20    26   ar
    26    26    27   ar
    27    13    28   ar
    28    28    29   ar
    29     9     5    1
    30    29    10   ar
    31    27    14   ar
    32    27    17   ar
    33    25    23    1
    34     3    30    1
    35     4    31    1
    36     4    32    1
    37     5    33    1
    38     6    34    1
    39     6    35    1
    40     7    36    1
    41     7    37    1
    42     8    38    1
    43     8    39    1
    44     9    40    1
    45    11    41    1
    46    12    42    1
    47    15    43    1
    48    18    44    1
    49    19    45    1
    50    21    46    1
    51    22    47    1
    52    22    48    1
    53    23    49    1
    54    24    50    1
    55    24    51    1
    56    25    52    1
    57    25    53    1
    58    28    54    1
    59    29    55    1
