
     RDKit          3D

 55 59  0  0  0  0  0  0  0  0999 V2000
    3.6563   -1.7538    0.3093 O   0  0  0  0  0  0  0  0  0  0  0  0
    3.4255   -0.8320   -0.5472 C   0  0  0  0  0  0  0  0  0  0  0  0
    4.4989    0.0372   -0.8137 N   0  0  0  0  0  0  0  0  0  0  0  0
    5.7994   -0.0601   -0.1893 C   0  0  0  0  0  0  0  0  0  0  0  0
    5.7630    0.0721    1.2986 C   0  0  2  0  0  0  0  0  0  0  0  0
    5.2112    1.3604    1.8039 C   0  0  0  0  0  0  0  0  0  0  0  0
    6.2988    1.8726    2.7429 C   0  0  0  0  0  0  0  0  0  0  0  0
    7.5470    1.3616    2.0266 C   0  0  0  0  0  0  0  0  0  0  0  0
    7.1589   -0.0078    1.7570 N   0  0  0  0  0  0  0  0  0  0  0  0
    2.0963   -0.7854   -1.1423 C   0  0  0  0  0  0  0  0  0  0  0  0
    1.8008    0.1711   -2.0742 C   0  0  0  0  0  0  0  0  0  0  0  0
    0.5543    0.2183   -2.6331 C   0  0  0  0  0  0  0  0  0  0  0  0
   -0.4410   -0.6604   -2.3042 C   0  0  0  0  0  0  0  0  0  0  0  0
   -1.7560   -0.5683   -2.9291 C   0  0  0  0  0  0  0  0  0  0  0  0
   -2.0449   -0.3888   -4.2409 C   0  0  0  0  0  0  0  0  0  0  0  0
   -3.3847   -0.3576   -4.4152 N   0  0  0  0  0  0  0  0  0  0  0  0
   -3.9478   -0.5201   -3.1928 C   0  0  0  0  0  0  0  0  0  0  0  0
   -5.2540   -0.5738   -2.7416 C   0  0  0  0  0  0  0  0  0  0  0  0
   -5.4612   -0.7561   -1.3873 C   0  0  0  0  0  0  0  0  0  0  0  0
   -4.4237   -0.8838   -0.4850 C   0  0  0  0  0  0  0  0  0  0  0  0
   -4.6416   -1.0588    0.9115 N   0  0  0  0  0  0  0  0  0  0  0  0
   -5.9098   -1.0210    1.5729 C   0  0  0  0  0  0  0  0  0  0  0  0
   -6.5790    0.3198    1.5706 C   0  0  0  0  0  0  0  0  0  0  0  0
   -5.8516    1.4921    2.2258 C   0  0  0  0  0  0  0  0  0  0  0  0
   -7.0285    0.8767    2.8732 C   0  0  0  0  0  0  0  0  0  0  0  0
   -3.1749   -0.8216   -0.9978 N   0  0  0  0  0  0  0  0  0  0  0  0
   -2.9609   -0.6484   -2.2873 N   0  0  0  0  0  0  0  0  0  0  0  0
   -0.1353   -1.6199   -1.3655 C   0  0  0  0  0  0  0  0  0  0  0  0
    1.1112   -1.6833   -0.7929 C   0  0  0  0  0  0  0  0  0  0  0  0
    4.3439    0.7998   -1.5065 H   0  0  0  0  0  0  0  0  0  0  0  0
    6.3080   -1.0265   -0.4200 H   0  0  0  0  0  0  0  0  0  0  0  0
    6.4668    0.7285   -0.5893 H   0  0  0  0  0  0  0  0  0  0  0  0
    5.2530   -0.8264    1.7406 H   0  0  0  0  0  0  0  0  0  0  0  0
    5.0222    2.0790    1.0026 H   0  0  0  0  0  0  0  0  0  0  0  0
    4.2853    1.1223    2.3909 H   0  0  0  0  0  0  0  0  0  0  0  0
    6.2628    1.3595    3.7239 H   0  0  0  0  0  0  0  0  0  0  0  0
    6.2805    2.9618    2.8071 H   0  0  0  0  0  0  0  0  0  0  0  0
    8.4327    1.3962    2.6605 H   0  0  0  0  0  0  0  0  0  0  0  0
    7.6973    1.9060    1.0890 H   0  0  0  0  0  0  0  0  0  0  0  0
    7.2513   -0.6250    2.5766 H   0  0  0  0  0  0  0  0  0  0  0  0
    2.5742    0.9051   -2.3735 H   0  0  0  0  0  0  0  0  0  0  0  0
    0.3009    0.9793   -3.3822 H   0  0  0  0  0  0  0  0  0  0  0  0
   -1.3118   -0.2834   -5.0509 H   0  0  0  0  0  0  0  0  0  0  0  0
   -6.0593   -0.4732   -3.4516 H   0  0  0  0  0  0  0  0  0  0  0  0
   -6.5052   -0.8062   -1.0464 H   0  0  0  0  0  0  0  0  0  0  0  0
   -3.7614   -1.2318    1.4883 H   0  0  0  0  0  0  0  0  0  0  0  0
   -6.6394   -1.7512    1.1566 H   0  0  0  0  0  0  0  0  0  0  0  0
   -5.7850   -1.3433    2.6399 H   0  0  0  0  0  0  0  0  0  0  0  0
   -7.1705    0.5939    0.7003 H   0  0  0  0  0  0  0  0  0  0  0  0
   -4.8413    1.2716    2.6616 H   0  0  0  0  0  0  0  0  0  0  0  0
   -5.9221    2.4866    1.7563 H   0  0  0  0  0  0  0  0  0  0  0  0
   -7.9519    1.4900    2.8737 H   0  0  0  0  0  0  0  0  0  0  0  0
   -6.9265    0.2841    3.8150 H   0  0  0  0  0  0  0  0  0  0  0  0
   -0.9088   -2.3416   -1.0771 H   0  0  0  0  0  0  0  0  0  0  0  0
    1.3776   -2.4361   -0.0454 H   0  0  0  0  0  0  0  0  0  0  0  0
  1  2  2  0
  2  3  1  0
  3  4  1  0
  4  5  1  0
  5  6  1  0
  6  7  1  0
  7  8  1  0
  8  9  1  0
  2 10  1  0
 10 11  2  0
 11 12  1  0
 12 13  2  0
 13 14  1  0
 14 15  2  0
 15 16  1  0
 16 17  2  0
 17 18  1  0
 18 19  2  0
 19 20  1  0
 20 21  1  0
 21 22  1  0
 22 23  1  0
 23 24  1  0
 24 25  1  0
 20 26  2  0
 26 27  1  0
 13 28  1  0
 28 29  2  0
  9  5  1  0
 29 10  1  0
 27 14  1  0
 27 17  1  0
 25 23  1  0
  3 30  1  0
  4 31  1  0
  4 32  1  0
  5 33  1  1
  6 34  1  0
  6 35  1  0
  7 36  1  0
  7 37  1  0
  8 38  1  0
  8 39  1  0
  9 40  1  0
 11 41  1  0
 12 42  1  0
 15 43  1  0
 18 44  1  0
 19 45  1  0
 21 46  1  0
 22 47  1  0
 22 48  1  0
 23 49  1  0
 24 50  1  0
 24 51  1  0
 25 52  1  0
 25 53  1  0
 28 54  1  0
 29 55  1  0
M  END
$$$$
