@<TRIPOS>MOLECULE
*****
 42 44 0 0 0
SMALL
GASTEIGER

@<TRIPOS>ATOM
      1 C          -3.6359    1.5238   -1.3801 C.3     1  UNL1       -0.0560
      2 C          -3.6183    0.3016   -0.5080 C.3     1  UNL1       -0.0125
      3 C          -5.0183    0.0121   -0.0026 C.3     1  UNL1       -0.0560
      4 C          -3.1709   -0.9343   -1.2589 C.3     1  UNL1       -0.0560
      5 C          -2.7160    0.4441    0.6567 C.ar    1  UNL1       -0.0382
      6 C          -3.2544    0.9725    1.8287 C.ar    1  UNL1       -0.0578
      7 C          -2.4571    1.1242    2.9404 C.ar    1  UNL1       -0.0577
      8 C          -1.1404    0.7444    2.8557 C.ar    1  UNL1       -0.0170
      9 C          -0.5774    0.2174    1.7083 C.ar    1  UNL1        0.1190
     10 N           0.7946   -0.1202    1.7799 N.pl3   1  UNL1       -0.1984
     11 C           1.5238   -0.7186    0.6729 C.2     1  UNL1        0.3512
     12 N           0.9444   -1.5882   -0.0524 N.2     1  UNL1        0.0960
     13 S           2.0387   -2.1054   -1.2596 S.O2    1  UNL1        0.1799
     14 O           1.5761   -1.7723   -2.6439 O.2     1  UNL1       -0.1251
     15 O           2.4351   -3.5412   -1.1212 O.2     1  UNL1       -0.1251
     16 C           3.3787   -1.0900   -0.7583 C.ar    1  UNL1        0.1559
     17 C           4.6650   -0.9307   -1.2496 C.ar    1  UNL1        0.0453
     18 C           5.5236   -0.0484   -0.6522 C.ar    1  UNL1        0.2751
     19 N           6.8384    0.1360   -1.1313 N.pl3   1  UNL1        0.0797
     20 O           7.2258   -0.5121   -2.1056 O.2     1  UNL1        0.0414
     21 O           7.6686    1.0213   -0.5219 O.co2   1  UNL1       -0.5760
     22 C           5.0863    0.6715    0.4377 C.ar    1  UNL1        0.0165
     23 C           3.8119    0.4939    0.9010 C.ar    1  UNL1       -0.0384
     24 C           2.8911   -0.4007    0.3219 C.ar    1  UNL1        0.0970
     25 C          -1.3793    0.0770    0.6263 C.ar    1  UNL1       -0.0133
     26 H          -3.3185    2.3929   -0.7364 H       1  UNL1        0.0238
     27 H          -2.9143    1.4843   -2.2159 H       1  UNL1        0.0238
     28 H          -4.6625    1.7449   -1.7684 H       1  UNL1        0.0238
     29 H          -4.9550   -0.6533    0.9078 H       1  UNL1        0.0238
     30 H          -5.5584   -0.5098   -0.8306 H       1  UNL1        0.0238
     31 H          -5.5891    0.9363    0.2223 H       1  UNL1        0.0238
     32 H          -2.2706   -0.7676   -1.8657 H       1  UNL1        0.0238
     33 H          -4.0449   -1.2809   -1.8748 H       1  UNL1        0.0238
     34 H          -2.8955   -1.6907   -0.4878 H       1  UNL1        0.0238
     35 H          -4.2820    1.2719    1.9053 H       1  UNL1        0.0620
     36 H          -2.8660    1.5397    3.8710 H       1  UNL1        0.0619
     37 H          -0.5496    0.8875    3.7750 H       1  UNL1        0.0658
     38 H           1.3406    0.0603    2.6602 H       1  UNL1        0.2985
     39 H           4.9415   -1.5230   -2.1029 H       1  UNL1        0.0706
     40 H           5.7362    1.3892    0.9477 H       1  UNL1        0.0685
     41 H           3.4462    1.0590    1.7693 H       1  UNL1        0.0629
     42 H          -0.9921   -0.3183   -0.2763 H       1  UNL1        0.0661
@<TRIPOS>UNITY_ATOM_ATTR
19 1
charge 1
21 1
charge -1
@<TRIPOS>BOND
     1     1     2    1
     2     2     3    1
     3     2     4    1
     4     2     5    1
     5     5     6   ar
     6     6     7   ar
     7     7     8   ar
     8     8     9   ar
     9     9    10    1
    10    10    11    1
    11    11    12    2
    12    12    13    1
    13    13    14    2
    14    13    15    2
    15    13    16    1
    16    16    17   ar
    17    17    18   ar
    18    18    19    1
    19    19    20    2
    20    19    21    1
    21    18    22   ar
    22    22    23   ar
    23    23    24   ar
    24     9    25   ar
    25    25     5   ar
    26    24    11    1
    27    24    16   ar
    28     1    26    1
    29     1    27    1
    30     1    28    1
    31     3    29    1
    32     3    30    1
    33     3    31    1
    34     4    32    1
    35     4    33    1
    36     4    34    1
    37     6    35    1
    38     7    36    1
    39     8    37    1
    40    10    38    1
    41    17    39    1
    42    22    40    1
    43    23    41    1
    44    25    42    1
