
     RDKit          3D

 42 44  0  0  0  0  0  0  0  0999 V2000
   -3.6359    1.5238   -1.3801 C   0  0  0  0  0  0  0  0  0  0  0  0
   -3.6183    0.3016   -0.5080 C   0  0  0  0  0  0  0  0  0  0  0  0
   -5.0183    0.0121   -0.0026 C   0  0  0  0  0  0  0  0  0  0  0  0
   -3.1709   -0.9343   -1.2589 C   0  0  0  0  0  0  0  0  0  0  0  0
   -2.7160    0.4441    0.6567 C   0  0  0  0  0  0  0  0  0  0  0  0
   -3.2544    0.9725    1.8287 C   0  0  0  0  0  0  0  0  0  0  0  0
   -2.4571    1.1242    2.9404 C   0  0  0  0  0  0  0  0  0  0  0  0
   -1.1404    0.7444    2.8557 C   0  0  0  0  0  0  0  0  0  0  0  0
   -0.5774    0.2174    1.7083 C   0  0  0  0  0  0  0  0  0  0  0  0
    0.7946   -0.1202    1.7799 N   0  0  0  0  0  0  0  0  0  0  0  0
    1.5238   -0.7186    0.6729 C   0  0  0  0  0  0  0  0  0  0  0  0
    0.9444   -1.5882   -0.0524 N   0  0  0  0  0  0  0  0  0  0  0  0
    2.0387   -2.1054   -1.2596 S   0  0  0  0  0  6  0  0  0  0  0  0
    1.5761   -1.7723   -2.6439 O   0  0  0  0  0  0  0  0  0  0  0  0
    2.4351   -3.5412   -1.1212 O   0  0  0  0  0  0  0  0  0  0  0  0
    3.3787   -1.0900   -0.7583 C   0  0  0  0  0  0  0  0  0  0  0  0
    4.6650   -0.9307   -1.2496 C   0  0  0  0  0  0  0  0  0  0  0  0
    5.5236   -0.0484   -0.6522 C   0  0  0  0  0  0  0  0  0  0  0  0
    6.8384    0.1360   -1.1313 N   0  0  0  0  0  4  0  0  0  0  0  0
    7.2258   -0.5121   -2.1056 O   0  0  0  0  0  0  0  0  0  0  0  0
    7.6686    1.0213   -0.5219 O   0  0  0  0  0  1  0  0  0  0  0  0
    5.0863    0.6715    0.4377 C   0  0  0  0  0  0  0  0  0  0  0  0
    3.8119    0.4939    0.9010 C   0  0  0  0  0  0  0  0  0  0  0  0
    2.8911   -0.4007    0.3219 C   0  0  0  0  0  0  0  0  0  0  0  0
   -1.3793    0.0770    0.6263 C   0  0  0  0  0  0  0  0  0  0  0  0
   -3.3185    2.3929   -0.7364 H   0  0  0  0  0  0  0  0  0  0  0  0
   -2.9143    1.4843   -2.2159 H   0  0  0  0  0  0  0  0  0  0  0  0
   -4.6625    1.7449   -1.7684 H   0  0  0  0  0  0  0  0  0  0  0  0
   -4.9550   -0.6533    0.9078 H   0  0  0  0  0  0  0  0  0  0  0  0
   -5.5584   -0.5098   -0.8306 H   0  0  0  0  0  0  0  0  0  0  0  0
   -5.5891    0.9363    0.2223 H   0  0  0  0  0  0  0  0  0  0  0  0
   -2.2706   -0.7676   -1.8657 H   0  0  0  0  0  0  0  0  0  0  0  0
   -4.0449   -1.2809   -1.8748 H   0  0  0  0  0  0  0  0  0  0  0  0
   -2.8955   -1.6907   -0.4878 H   0  0  0  0  0  0  0  0  0  0  0  0
   -4.2820    1.2719    1.9053 H   0  0  0  0  0  0  0  0  0  0  0  0
   -2.8660    1.5397    3.8710 H   0  0  0  0  0  0  0  0  0  0  0  0
   -0.5496    0.8875    3.7750 H   0  0  0  0  0  0  0  0  0  0  0  0
    1.3406    0.0603    2.6602 H   0  0  0  0  0  0  0  0  0  0  0  0
    4.9415   -1.5230   -2.1029 H   0  0  0  0  0  0  0  0  0  0  0  0
    5.7362    1.3892    0.9477 H   0  0  0  0  0  0  0  0  0  0  0  0
    3.4462    1.0590    1.7693 H   0  0  0  0  0  0  0  0  0  0  0  0
   -0.9921   -0.3183   -0.2763 H   0  0  0  0  0  0  0  0  0  0  0  0
  1  2  1  0
  2  3  1  0
  2  4  1  0
  2  5  1  0
  5  6  2  0
  6  7  1  0
  7  8  2  0
  8  9  1  0
  9 10  1  0
 10 11  1  0
 11 12  2  0
 12 13  1  0
 13 14  2  0
 13 15  2  0
 13 16  1  0
 16 17  2  0
 17 18  1  0
 18 19  1  0
 19 20  2  0
 19 21  1  0
 18 22  2  0
 22 23  1  0
 23 24  2  0
  9 25  2  0
 25  5  1  0
 24 11  1  0
 24 16  1  0
  1 26  1  0
  1 27  1  0
  1 28  1  0
  3 29  1  0
  3 30  1  0
  3 31  1  0
  4 32  1  0
  4 33  1  0
  4 34  1  0
  6 35  1  0
  7 36  1  0
  8 37  1  0
 10 38  1  0
 17 39  1  0
 22 40  1  0
 23 41  1  0
 25 42  1  0
M  CHG  2  19   1  21  -1
M  END
$$$$
