@<TRIPOS>MOLECULE
*****
 42 45 0 0 0
SMALL
GASTEIGER

@<TRIPOS>ATOM
      1 C          -4.8950   -1.9591   -2.5289 C.3     1  UNL1       -0.0045
      2 C          -4.1602   -0.8923   -1.7775 C.ar    1  UNL1        0.1305
      3 N          -4.5832    0.3775   -1.8658 N.ar    1  UNL1       -0.2157
      4 C          -3.9836    1.3957   -1.2257 C.ar    1  UNL1        0.1493
      5 N          -4.4116    2.7321   -1.3057 N.pl3   1  UNL1       -0.3413
      6 C          -2.8645    1.1434   -0.4242 C.ar    1  UNL1        0.1708
      7 N          -2.0601    1.8878    0.3211 N.ar    1  UNL1       -0.1243
      8 N          -1.1662    1.0753    0.8496 N.ar    1  UNL1       -0.0630
      9 N          -1.3710   -0.1663    0.4676 N.ar    1  UNL1       -0.2239
     10 C          -0.6040   -1.3418    0.8335 C.3     1  UNL1        0.0728
     11 C           0.5315   -1.5904   -0.1356 C.3     1  UNL1        0.0909
     12 C           1.4558   -0.3901   -0.1326 C.3     1  UNL1        0.0274
     13 N           1.9270   -0.1839    1.1678 N.3     1  UNL1       -0.2915
     14 C           2.3049    1.1023    1.5667 C.3     1  UNL1        0.0478
     15 C           3.4137    1.5885    0.6943 C.ar    1  UNL1        0.0922
     16 N           4.6220    1.5864    0.6387 N.ar    1  UNL1       -0.2510
     17 C           5.4069    2.0997   -0.2616 C.ar    1  UNL1        0.0351
     18 C           4.7710    2.7400   -1.3056 C.ar    1  UNL1       -0.0045
     19 S           3.0225    2.5283   -0.8643 S.2     1  UNL1       -0.0793
     20 C           2.4398   -1.2899    1.8792 C.3     1  UNL1        0.0229
     21 C           1.7250   -2.5698    1.5930 C.3     1  UNL1        0.0609
     22 O           1.2733   -2.6802    0.2942 O.3     1  UNL1       -0.3722
     23 C          -2.4437   -0.1621   -0.3440 C.ar    1  UNL1        0.1837
     24 N          -3.0897   -1.1676   -1.0170 N.ar    1  UNL1       -0.2114
     25 H          -4.3719   -2.9187   -2.4645 H       1  UNL1        0.0308
     26 H          -5.9254   -2.0949   -2.1558 H       1  UNL1        0.0308
     27 H          -5.0027   -1.6345   -3.5969 H       1  UNL1        0.0308
     28 H          -3.7295    3.5087   -1.3088 H       1  UNL1        0.1438
     29 H          -5.4208    2.9459   -1.3623 H       1  UNL1        0.1438
     30 H          -1.2627   -2.2014    0.9501 H       1  UNL1        0.0536
     31 H          -0.1497   -1.1256    1.8296 H       1  UNL1        0.0536
     32 H           0.1855   -1.7960   -1.1544 H       1  UNL1        0.0627
     33 H           0.9327    0.5117   -0.4947 H       1  UNL1        0.0453
     34 H           2.3225   -0.6326   -0.8110 H       1  UNL1        0.0453
     35 H           2.7093    1.0996    2.5945 H       1  UNL1        0.0496
     36 H           1.4454    1.8093    1.5400 H       1  UNL1        0.0496
     37 H           6.5367    2.0548   -0.2419 H       1  UNL1        0.0835
     38 H           5.1369    3.2543   -2.1870 H       1  UNL1        0.0709
     39 H           3.5426   -1.3707    1.6487 H       1  UNL1        0.0449
     40 H           2.3888   -1.0921    2.9694 H       1  UNL1        0.0449
     41 H           0.9249   -2.7821    2.3413 H       1  UNL1        0.0573
     42 H           2.4766   -3.3995    1.7337 H       1  UNL1        0.0573
@<TRIPOS>BOND
     1     1     2    1
     2     2     3   ar
     3     3     4   ar
     4     4     5    1
     5     4     6   ar
     6     6     7   ar
     7     7     8   ar
     8     8     9   ar
     9     9    10    1
    10    10    11    1
    11    11    12    1
    12    12    13    1
    13    13    14    1
    14    14    15    1
    15    15    16   ar
    16    16    17   ar
    17    17    18   ar
    18    18    19   ar
    19    13    20    1
    20    20    21    1
    21    21    22    1
    22     9    23   ar
    23    23    24   ar
    24    24     2   ar
    25    23     6   ar
    26    22    11    1
    27    19    15   ar
    28     1    25    1
    29     1    26    1
    30     1    27    1
    31     5    28    1
    32     5    29    1
    33    10    30    1
    34    10    31    1
    35    11    32    1
    36    12    33    1
    37    12    34    1
    38    14    35    1
    39    14    36    1
    40    17    37    1
    41    18    38    1
    42    20    39    1
    43    20    40    1
    44    21    41    1
    45    21    42    1
