
     RDKit          3D

 42 45  0  0  0  0  0  0  0  0999 V2000
   -4.8950   -1.9591   -2.5289 C   0  0  0  0  0  0  0  0  0  0  0  0
   -4.1602   -0.8923   -1.7775 C   0  0  0  0  0  0  0  0  0  0  0  0
   -4.5832    0.3775   -1.8658 N   0  0  0  0  0  0  0  0  0  0  0  0
   -3.9836    1.3957   -1.2257 C   0  0  0  0  0  0  0  0  0  0  0  0
   -4.4116    2.7321   -1.3057 N   0  0  0  0  0  0  0  0  0  0  0  0
   -2.8645    1.1434   -0.4242 C   0  0  0  0  0  0  0  0  0  0  0  0
   -2.0601    1.8878    0.3211 N   0  0  0  0  0  0  0  0  0  0  0  0
   -1.1662    1.0753    0.8496 N   0  0  0  0  0  0  0  0  0  0  0  0
   -1.3710   -0.1663    0.4676 N   0  0  0  0  0  0  0  0  0  0  0  0
   -0.6040   -1.3418    0.8335 C   0  0  0  0  0  0  0  0  0  0  0  0
    0.5315   -1.5904   -0.1356 C   0  0  1  0  0  0  0  0  0  0  0  0
    1.4558   -0.3901   -0.1326 C   0  0  0  0  0  0  0  0  0  0  0  0
    1.9270   -0.1839    1.1678 N   0  0  0  0  0  0  0  0  0  0  0  0
    2.3049    1.1023    1.5667 C   0  0  0  0  0  0  0  0  0  0  0  0
    3.4137    1.5885    0.6943 C   0  0  0  0  0  0  0  0  0  0  0  0
    4.6220    1.5864    0.6387 N   0  0  0  0  0  0  0  0  0  0  0  0
    5.4069    2.0997   -0.2616 C   0  0  0  0  0  0  0  0  0  0  0  0
    4.7710    2.7400   -1.3056 C   0  0  0  0  0  0  0  0  0  0  0  0
    3.0225    2.5283   -0.8643 S   0  0  0  0  0  0  0  0  0  0  0  0
    2.4398   -1.2899    1.8792 C   0  0  0  0  0  0  0  0  0  0  0  0
    1.7250   -2.5698    1.5930 C   0  0  0  0  0  0  0  0  0  0  0  0
    1.2733   -2.6802    0.2942 O   0  0  0  0  0  0  0  0  0  0  0  0
   -2.4437   -0.1621   -0.3440 C   0  0  0  0  0  0  0  0  0  0  0  0
   -3.0897   -1.1676   -1.0170 N   0  0  0  0  0  0  0  0  0  0  0  0
   -4.3719   -2.9187   -2.4645 H   0  0  0  0  0  0  0  0  0  0  0  0
   -5.9254   -2.0949   -2.1558 H   0  0  0  0  0  0  0  0  0  0  0  0
   -5.0027   -1.6345   -3.5969 H   0  0  0  0  0  0  0  0  0  0  0  0
   -3.7295    3.5087   -1.3088 H   0  0  0  0  0  0  0  0  0  0  0  0
   -5.4208    2.9459   -1.3623 H   0  0  0  0  0  0  0  0  0  0  0  0
   -1.2627   -2.2014    0.9501 H   0  0  0  0  0  0  0  0  0  0  0  0
   -0.1497   -1.1256    1.8296 H   0  0  0  0  0  0  0  0  0  0  0  0
    0.1855   -1.7960   -1.1544 H   0  0  0  0  0  0  0  0  0  0  0  0
    0.9327    0.5117   -0.4947 H   0  0  0  0  0  0  0  0  0  0  0  0
    2.3225   -0.6326   -0.8110 H   0  0  0  0  0  0  0  0  0  0  0  0
    2.7093    1.0996    2.5945 H   0  0  0  0  0  0  0  0  0  0  0  0
    1.4454    1.8093    1.5400 H   0  0  0  0  0  0  0  0  0  0  0  0
    6.5367    2.0548   -0.2419 H   0  0  0  0  0  0  0  0  0  0  0  0
    5.1369    3.2543   -2.1870 H   0  0  0  0  0  0  0  0  0  0  0  0
    3.5426   -1.3707    1.6487 H   0  0  0  0  0  0  0  0  0  0  0  0
    2.3888   -1.0921    2.9694 H   0  0  0  0  0  0  0  0  0  0  0  0
    0.9249   -2.7821    2.3413 H   0  0  0  0  0  0  0  0  0  0  0  0
    2.4766   -3.3995    1.7337 H   0  0  0  0  0  0  0  0  0  0  0  0
  1  2  1  0
  2  3  2  0
  3  4  1  0
  4  5  1  0
  4  6  2  0
  6  7  1  0
  7  8  2  0
  8  9  1  0
  9 10  1  0
 10 11  1  0
 11 12  1  0
 12 13  1  0
 13 14  1  0
 14 15  1  0
 15 16  2  0
 16 17  1  0
 17 18  2  0
 18 19  1  0
 13 20  1  0
 20 21  1  0
 21 22  1  0
  9 23  1  0
 23 24  2  0
 24  2  1  0
 23  6  1  0
 22 11  1  0
 19 15  1  0
  1 25  1  0
  1 26  1  0
  1 27  1  0
  5 28  1  0
  5 29  1  0
 10 30  1  0
 10 31  1  0
 11 32  1  6
 12 33  1  0
 12 34  1  0
 14 35  1  0
 14 36  1  0
 17 37  1  0
 18 38  1  0
 20 39  1  0
 20 40  1  0
 21 41  1  0
 21 42  1  0
M  END
$$$$
