@<TRIPOS>MOLECULE
*****
 53 56 0 0 0
SMALL
GASTEIGER

@<TRIPOS>ATOM
      1 C           8.8955   -1.7502    4.3632 C.1     1  UNL1       -0.1124
      2 C           7.9073   -1.4733    3.9533 C.1     1  UNL1       -0.0483
      3 C           6.6555   -1.1163    3.4075 C.ar    1  UNL1        0.1312
      4 C           6.1127    0.1157    2.9757 C.ar    1  UNL1        0.0622
      5 N           4.9624   -0.0258    2.4225 N.ar    1  UNL1       -0.2484
      6 C           4.1279   -1.0072    2.1323 C.ar    1  UNL1        0.1170
      7 C           3.1201   -0.8512    1.1540 C.2     1  UNL1        0.1506
      8 F           2.2489   -1.7742    0.7850 F       1  UNL1       -0.2032
      9 C           3.0166    0.3571    0.5686 C.2     1  UNL1       -0.0171
     10 C           2.1754    0.8221   -0.4741 C.ar    1  UNL1       -0.0217
     11 C           2.8655    1.5350   -1.4875 C.ar    1  UNL1       -0.0518
     12 C           2.2105    1.9761   -2.5792 C.ar    1  UNL1       -0.0255
     13 C           0.8295    1.7379   -2.6956 C.ar    1  UNL1        0.1289
     14 F           0.2161    2.1916   -3.8069 F       1  UNL1       -0.2051
     15 C           0.1705    1.0624   -1.7030 C.ar    1  UNL1        0.0158
     16 C          -1.3189    0.9410   -1.7694 C.3     1  UNL1        0.0935
     17 C          -1.9380    2.2928   -1.7591 C.3     1  UNL1       -0.0351
     18 N          -1.5534    0.1936   -2.9932 N.2     1  UNL1       -0.2521
     19 C          -2.6292   -0.3730   -3.3231 C.2     1  UNL1        0.1485
     20 N          -2.8493   -1.1055   -4.4820 N.pl3   1  UNL1       -0.3380
     21 S          -3.9705   -0.2180   -2.0908 S.3     1  UNL1       -0.0746
     22 C          -3.0776   -0.4156   -0.5115 C.3     1  UNL1        0.1054
     23 C          -3.9330   -0.5142    0.6655 C.2     1  UNL1        0.2319
     24 O          -3.5237   -1.3513    1.5581 O.2     1  UNL1       -0.2741
     25 N          -5.1226    0.1480    0.9716 N.am    1  UNL1       -0.3064
     26 C          -5.7625    1.2040    0.2040 C.3     1  UNL1        0.0029
     27 C          -5.8787   -0.2727    2.1759 C.3     1  UNL1        0.0029
     28 C          -1.8372   -1.2715   -0.5788 C.3     1  UNL1       -0.0220
     29 C          -1.7678    0.2040   -0.5205 C.3     1  UNL1        0.0134
     30 C           0.8468    0.6128   -0.6167 C.ar    1  UNL1       -0.0463
     31 C           4.6721   -2.2809    2.5870 C.ar    1  UNL1        0.0572
     32 N           5.8310   -2.2170    3.1545 N.ar    1  UNL1       -0.2430
     33 H           9.9088   -2.0191    4.7871 H       1  UNL1        0.1232
     34 H           6.7440    0.9614    3.1452 H       1  UNL1        0.0858
     35 H           3.6251    1.1442    1.0644 H       1  UNL1        0.0653
     36 H           3.9253    1.8318   -1.3227 H       1  UNL1        0.0624
     37 H           2.7387    2.5024   -3.3736 H       1  UNL1        0.0646
     38 H          -3.0403    2.2218   -1.4752 H       1  UNL1        0.0256
     39 H          -1.4874    2.9313   -0.9849 H       1  UNL1        0.0256
     40 H          -1.8488    2.8171   -2.7419 H       1  UNL1        0.0256
     41 H          -3.0886   -2.1891   -4.3430 H       1  UNL1        0.1442
     42 H          -2.8369   -0.8594   -5.4496 H       1  UNL1        0.1442
     43 H          -5.9282    0.7697   -0.8007 H       1  UNL1        0.0428
     44 H          -5.0508    2.0676    0.1501 H       1  UNL1        0.0428
     45 H          -6.7010    1.5457    0.6538 H       1  UNL1        0.0428
     46 H          -6.8125   -0.7413    1.7375 H       1  UNL1        0.0428
     47 H          -5.3362   -0.9983    2.7802 H       1  UNL1        0.0428
     48 H          -6.1719    0.5904    2.7639 H       1  UNL1        0.0428
     49 H          -1.6066   -1.8361    0.3317 H       1  UNL1        0.0287
     50 H          -1.6305   -1.8121   -1.5376 H       1  UNL1        0.0287
     51 H          -1.4743    0.7105    0.4193 H       1  UNL1        0.0346
     52 H           0.3197    0.0138    0.1148 H       1  UNL1        0.0628
     53 H           4.0505   -3.1302    2.3940 H       1  UNL1        0.0852
@<TRIPOS>BOND
     1     1     2    3
     2     2     3    1
     3     3     4   ar
     4     4     5   ar
     5     5     6   ar
     6     6     7    1
     7     7     8    1
     8     7     9    2
     9     9    10    1
    10    10    11   ar
    11    11    12   ar
    12    12    13   ar
    13    13    14    1
    14    13    15   ar
    15    15    16    1
    16    16    17    1
    17    16    18    1
    18    18    19    2
    19    19    20    1
    20    19    21    1
    21    21    22    1
    22    22    23    1
    23    23    24    2
    24    23    25   am
    25    25    26    1
    26    25    27    1
    27    22    28    1
    28    28    29    1
    29    15    30   ar
    30     6    31   ar
    31    31    32   ar
    32    32     3   ar
    33    30    10   ar
    34    29    16    1
    35    29    22    1
    36     1    33    1
    37     4    34    1
    38     9    35    1
    39    11    36    1
    40    12    37    1
    41    17    38    1
    42    17    39    1
    43    17    40    1
    44    20    41    1
    45    20    42    1
    46    26    43    1
    47    26    44    1
    48    26    45    1
    49    27    46    1
    50    27    47    1
    51    27    48    1
    52    28    49    1
    53    28    50    1
    54    29    51    1
    55    30    52    1
    56    31    53    1
