@<TRIPOS>MOLECULE
*****
 41 43 0 0 0
SMALL
GASTEIGER

@<TRIPOS>ATOM
      1 O          -1.8027   -1.9387   -1.5702 O.2     1  UNL1       -0.2524
      2 C          -1.7602   -1.2049   -0.4781 C.2     1  UNL1        0.3050
      3 N          -2.7862   -0.3021   -0.2852 N.am    1  UNL1       -0.2811
      4 C          -3.8668   -0.2617   -1.3003 C.3     1  UNL1        0.0396
      5 C          -3.7679    1.1300   -1.9259 C.3     1  UNL1        0.0635
      6 O          -3.7918    2.1159   -0.9448 O.3     1  UNL1       -0.3767
      7 C          -4.0282    1.6215    0.3119 C.3     1  UNL1        0.0635
      8 C          -2.9350    0.6308    0.7714 C.3     1  UNL1        0.0396
      9 N          -0.6669   -1.4588    0.3233 N.am    1  UNL1       -0.2825
     10 C           0.3269   -2.4597   -0.1747 C.3     1  UNL1        0.0319
     11 C           1.6645   -2.0418    0.3947 C.3     1  UNL1        0.0281
     12 N           1.7849   -0.6230    0.5947 N.pl3   1  UNL1       -0.3269
     13 C           2.9137    0.0944    0.1298 C.ar    1  UNL1        0.0299
     14 C           4.0648   -0.5133   -0.3185 C.ar    1  UNL1       -0.0393
     15 C           5.1570    0.2420   -0.7811 C.ar    1  UNL1       -0.0416
     16 C           5.0735    1.6177   -0.7855 C.ar    1  UNL1        0.0411
     17 CL          6.4545    2.5578   -1.3700 Cl      1  UNL1       -0.0835
     18 C           3.9266    2.2410   -0.3389 C.ar    1  UNL1       -0.0416
     19 C           2.8589    1.4964    0.1133 C.ar    1  UNL1       -0.0393
     20 C           0.7516    0.1382    1.3067 C.3     1  UNL1        0.0281
     21 C          -0.3629   -0.8770    1.6011 C.3     1  UNL1        0.0319
     22 H          -3.6634   -0.9842   -2.1142 H       1  UNL1        0.0488
     23 H          -4.8107   -0.4394   -0.7882 H       1  UNL1        0.0488
     24 H          -2.7722    1.1878   -2.4174 H       1  UNL1        0.0575
     25 H          -4.5393    1.2577   -2.6938 H       1  UNL1        0.0575
     26 H          -4.9854    1.1342    0.4788 H       1  UNL1        0.0575
     27 H          -3.9461    2.4706    1.0271 H       1  UNL1        0.0575
     28 H          -2.0278    1.2303    1.0207 H       1  UNL1        0.0488
     29 H          -3.2964    0.1199    1.6857 H       1  UNL1        0.0488
     30 H           0.0158   -3.4150    0.2772 H       1  UNL1        0.0480
     31 H           0.2879   -2.4606   -1.2643 H       1  UNL1        0.0480
     32 H           1.7511   -2.5397    1.3917 H       1  UNL1        0.0479
     33 H           2.4242   -2.4888   -0.2591 H       1  UNL1        0.0479
     34 H           4.1336   -1.5905   -0.3087 H       1  UNL1        0.0636
     35 H           6.0417   -0.3011   -1.1238 H       1  UNL1        0.0633
     36 H           3.8489    3.3345   -0.3377 H       1  UNL1        0.0633
     37 H           1.9516    1.9806    0.4675 H       1  UNL1        0.0636
     38 H           0.2881    0.8445    0.5785 H       1  UNL1        0.0479
     39 H           1.1251    0.6345    2.1981 H       1  UNL1        0.0479
     40 H           0.1341   -1.6717    2.2705 H       1  UNL1        0.0480
     41 H          -1.1692   -0.5082    2.1809 H       1  UNL1        0.0480
@<TRIPOS>BOND
     1     1     2    2
     2     2     3   am
     3     3     4    1
     4     4     5    1
     5     5     6    1
     6     6     7    1
     7     7     8    1
     8     2     9   am
     9     9    10    1
    10    10    11    1
    11    11    12    1
    12    12    13    1
    13    13    14   ar
    14    14    15   ar
    15    15    16   ar
    16    16    17    1
    17    16    18   ar
    18    18    19   ar
    19    12    20    1
    20    20    21    1
    21     8     3    1
    22    21     9    1
    23    19    13   ar
    24     4    22    1
    25     4    23    1
    26     5    24    1
    27     5    25    1
    28     7    26    1
    29     7    27    1
    30     8    28    1
    31     8    29    1
    32    10    30    1
    33    10    31    1
    34    11    32    1
    35    11    33    1
    36    14    34    1
    37    15    35    1
    38    18    36    1
    39    19    37    1
    40    20    38    1
    41    20    39    1
    42    21    40    1
    43    21    41    1
