
     RDKit          3D

 41 43  0  0  0  0  0  0  0  0999 V2000
   -1.8027   -1.9387   -1.5702 O   0  0  0  0  0  0  0  0  0  0  0  0
   -1.7602   -1.2049   -0.4781 C   0  0  0  0  0  0  0  0  0  0  0  0
   -2.7862   -0.3021   -0.2852 N   0  0  0  0  0  0  0  0  0  0  0  0
   -3.8668   -0.2617   -1.3003 C   0  0  0  0  0  0  0  0  0  0  0  0
   -3.7679    1.1300   -1.9259 C   0  0  0  0  0  0  0  0  0  0  0  0
   -3.7918    2.1159   -0.9448 O   0  0  0  0  0  0  0  0  0  0  0  0
   -4.0282    1.6215    0.3119 C   0  0  0  0  0  0  0  0  0  0  0  0
   -2.9350    0.6308    0.7714 C   0  0  0  0  0  0  0  0  0  0  0  0
   -0.6669   -1.4588    0.3233 N   0  0  0  0  0  0  0  0  0  0  0  0
    0.3269   -2.4597   -0.1747 C   0  0  0  0  0  0  0  0  0  0  0  0
    1.6645   -2.0418    0.3947 C   0  0  0  0  0  0  0  0  0  0  0  0
    1.7849   -0.6230    0.5947 N   0  0  0  0  0  0  0  0  0  0  0  0
    2.9137    0.0944    0.1298 C   0  0  0  0  0  0  0  0  0  0  0  0
    4.0648   -0.5133   -0.3185 C   0  0  0  0  0  0  0  0  0  0  0  0
    5.1570    0.2420   -0.7811 C   0  0  0  0  0  0  0  0  0  0  0  0
    5.0735    1.6177   -0.7855 C   0  0  0  0  0  0  0  0  0  0  0  0
    6.4545    2.5578   -1.3700 Cl  0  0  0  0  0  0  0  0  0  0  0  0
    3.9266    2.2410   -0.3389 C   0  0  0  0  0  0  0  0  0  0  0  0
    2.8589    1.4964    0.1133 C   0  0  0  0  0  0  0  0  0  0  0  0
    0.7516    0.1382    1.3067 C   0  0  0  0  0  0  0  0  0  0  0  0
   -0.3629   -0.8770    1.6011 C   0  0  0  0  0  0  0  0  0  0  0  0
   -3.6634   -0.9842   -2.1142 H   0  0  0  0  0  0  0  0  0  0  0  0
   -4.8107   -0.4394   -0.7882 H   0  0  0  0  0  0  0  0  0  0  0  0
   -2.7722    1.1878   -2.4174 H   0  0  0  0  0  0  0  0  0  0  0  0
   -4.5393    1.2577   -2.6938 H   0  0  0  0  0  0  0  0  0  0  0  0
   -4.9854    1.1342    0.4788 H   0  0  0  0  0  0  0  0  0  0  0  0
   -3.9461    2.4706    1.0271 H   0  0  0  0  0  0  0  0  0  0  0  0
   -2.0278    1.2303    1.0207 H   0  0  0  0  0  0  0  0  0  0  0  0
   -3.2964    0.1199    1.6857 H   0  0  0  0  0  0  0  0  0  0  0  0
    0.0158   -3.4150    0.2772 H   0  0  0  0  0  0  0  0  0  0  0  0
    0.2879   -2.4606   -1.2643 H   0  0  0  0  0  0  0  0  0  0  0  0
    1.7511   -2.5397    1.3917 H   0  0  0  0  0  0  0  0  0  0  0  0
    2.4242   -2.4888   -0.2591 H   0  0  0  0  0  0  0  0  0  0  0  0
    4.1336   -1.5905   -0.3087 H   0  0  0  0  0  0  0  0  0  0  0  0
    6.0417   -0.3011   -1.1238 H   0  0  0  0  0  0  0  0  0  0  0  0
    3.8489    3.3345   -0.3377 H   0  0  0  0  0  0  0  0  0  0  0  0
    1.9516    1.9806    0.4675 H   0  0  0  0  0  0  0  0  0  0  0  0
    0.2881    0.8445    0.5785 H   0  0  0  0  0  0  0  0  0  0  0  0
    1.1251    0.6345    2.1981 H   0  0  0  0  0  0  0  0  0  0  0  0
    0.1341   -1.6717    2.2705 H   0  0  0  0  0  0  0  0  0  0  0  0
   -1.1692   -0.5082    2.1809 H   0  0  0  0  0  0  0  0  0  0  0  0
  1  2  2  0
  2  3  1  0
  3  4  1  0
  4  5  1  0
  5  6  1  0
  6  7  1  0
  7  8  1  0
  2  9  1  0
  9 10  1  0
 10 11  1  0
 11 12  1  0
 12 13  1  0
 13 14  2  0
 14 15  1  0
 15 16  2  0
 16 17  1  0
 16 18  1  0
 18 19  2  0
 12 20  1  0
 20 21  1  0
  8  3  1  0
 21  9  1  0
 19 13  1  0
  4 22  1  0
  4 23  1  0
  5 24  1  0
  5 25  1  0
  7 26  1  0
  7 27  1  0
  8 28  1  0
  8 29  1  0
 10 30  1  0
 10 31  1  0
 11 32  1  0
 11 33  1  0
 14 34  1  0
 15 35  1  0
 18 36  1  0
 19 37  1  0
 20 38  1  0
 20 39  1  0
 21 40  1  0
 21 41  1  0
M  END
$$$$
