
     RDKit          3D

 41 43  0  0  0  0  0  0  0  0999 V2000
   -2.6027   -1.1240   -1.8093 C   0  0  0  0  0  0  0  0  0  0  0  0
   -2.7909    0.2555   -1.2920 C   0  0  0  0  0  0  0  0  0  0  0  0
   -4.2672    0.5926   -1.3662 C   0  0  0  0  0  0  0  0  0  0  0  0
   -2.1799    0.5718    0.0195 C   0  0  0  0  0  0  0  0  0  0  0  0
   -2.5163    1.9323    0.2609 O   0  0  0  0  0  0  0  0  0  0  0  0
   -0.6891    0.5608   -0.0095 C   0  0  0  0  0  0  0  0  0  0  0  0
    0.0718    1.7222    0.0833 C   0  0  0  0  0  0  0  0  0  0  0  0
    1.4476    1.7090    0.0583 C   0  0  0  0  0  0  0  0  0  0  0  0
    2.1373    0.5213   -0.0620 C   0  0  0  0  0  0  0  0  0  0  0  0
    3.5388    0.5077   -0.0877 C   0  0  0  0  0  0  0  0  0  0  0  0
    4.2421   -0.6673   -0.2071 C   0  0  0  0  0  0  0  0  0  0  0  0
    5.6196   -0.7636   -0.2399 O   0  0  0  0  0  0  0  0  0  0  0  0
    6.5265    0.2873   -0.1597 C   0  0  0  0  0  0  0  0  0  0  0  0
    7.4007    0.1284    0.9119 F   0  0  0  0  0  0  0  0  0  0  0  0
    7.3136    0.3490   -1.3115 F   0  0  0  0  0  0  0  0  0  0  0  0
    3.4773   -1.8368   -0.3006 C   0  0  0  0  0  0  0  0  0  0  0  0
    2.1108   -1.8232   -0.2756 C   0  0  0  0  0  0  0  0  0  0  0  0
    1.4008   -0.6379   -0.1550 C   0  0  0  0  0  0  0  0  0  0  0  0
    0.0223   -0.6161   -0.1292 C   0  0  0  0  0  0  0  0  0  0  0  0
   -2.7334   -0.1726    1.1689 C   0  0  0  0  0  0  0  0  0  0  0  0
   -2.5666    0.1766    2.4919 C   0  0  0  0  0  0  0  0  0  0  0  0
   -3.1916   -0.7016    3.2845 N   0  0  0  0  0  0  0  0  0  0  0  0
   -3.7342   -1.5766    2.4682 N   0  0  0  0  0  0  0  0  0  0  0  0
   -3.4771   -1.2852    1.2110 N   0  0  0  0  0  0  0  0  0  0  0  0
   -3.3670   -1.3565   -2.6056 H   0  0  0  0  0  0  0  0  0  0  0  0
   -2.7162   -1.9285   -1.0694 H   0  0  0  0  0  0  0  0  0  0  0  0
   -1.6236   -1.2694   -2.3113 H   0  0  0  0  0  0  0  0  0  0  0  0
   -2.3029    0.9506   -2.0406 H   0  0  0  0  0  0  0  0  0  0  0  0
   -4.7536    0.1205   -0.4838 H   0  0  0  0  0  0  0  0  0  0  0  0
   -4.4443    1.6942   -1.3857 H   0  0  0  0  0  0  0  0  0  0  0  0
   -4.6586    0.1916   -2.3280 H   0  0  0  0  0  0  0  0  0  0  0  0
   -2.1532    2.1257    1.1606 H   0  0  0  0  0  0  0  0  0  0  0  0
   -0.4507    2.6704    0.1788 H   0  0  0  0  0  0  0  0  0  0  0  0
    2.0184    2.6200    0.1315 H   0  0  0  0  0  0  0  0  0  0  0  0
    4.0673    1.4425   -0.0115 H   0  0  0  0  0  0  0  0  0  0  0  0
    6.0606    1.2709   -0.0599 H   0  0  0  0  0  0  0  0  0  0  0  0
    4.0010   -2.7678   -0.3946 H   0  0  0  0  0  0  0  0  0  0  0  0
    1.4973   -2.7221   -0.3468 H   0  0  0  0  0  0  0  0  0  0  0  0
   -0.5180   -1.5467   -0.2034 H   0  0  0  0  0  0  0  0  0  0  0  0
   -2.0062    1.0465    2.8844 H   0  0  0  0  0  0  0  0  0  0  0  0
   -3.2106   -0.6517    4.3323 H   0  0  0  0  0  0  0  0  0  0  0  0
  1  2  1  0
  2  3  1  0
  2  4  1  0
  4  5  1  0
  4  6  1  0
  6  7  2  0
  7  8  1  0
  8  9  2  0
  9 10  1  0
 10 11  2  0
 11 12  1  0
 12 13  1  0
 13 14  1  0
 13 15  1  0
 11 16  1  0
 16 17  2  0
 17 18  1  0
 18 19  2  0
  4 20  1  0
 20 21  2  0
 21 22  1  0
 22 23  1  0
 23 24  2  0
 19  6  1  0
 24 20  1  0
 18  9  1  0
  1 25  1  0
  1 26  1  0
  1 27  1  0
  2 28  1  0
  3 29  1  0
  3 30  1  0
  3 31  1  0
  5 32  1  0
  7 33  1  0
  8 34  1  0
 10 35  1  0
 13 36  1  0
 16 37  1  0
 17 38  1  0
 19 39  1  0
 21 40  1  0
 22 41  1  0
M  END
$$$$
