@<TRIPOS>MOLECULE
*****
 41 43 0 0 0
SMALL
GASTEIGER

@<TRIPOS>ATOM
      1 C          -2.6027   -1.1240   -1.8093 C.3     1  UNL1       -0.0594
      2 C          -2.7909    0.2555   -1.2920 C.3     1  UNL1       -0.0078
      3 C          -4.2672    0.5926   -1.3662 C.3     1  UNL1       -0.0594
      4 C          -2.1799    0.5718    0.0195 C.3     1  UNL1        0.1380
      5 O          -2.5163    1.9323    0.2609 O.3     1  UNL1       -0.3774
      6 C          -0.6891    0.5608   -0.0095 C.ar    1  UNL1       -0.0093
      7 C           0.0718    1.7222    0.0833 C.ar    1  UNL1       -0.0549
      8 C           1.4476    1.7090    0.0583 C.ar    1  UNL1       -0.0536
      9 C           2.1373    0.5213   -0.0620 C.ar    1  UNL1       -0.0144
     10 C           3.5388    0.5077   -0.0877 C.ar    1  UNL1       -0.0120
     11 C           4.2421   -0.6673   -0.2071 C.ar    1  UNL1        0.1275
     12 O           5.6196   -0.7636   -0.2399 O.3     1  UNL1       -0.4342
     13 C           6.5265    0.2873   -0.1597 C.3     1  UNL1        0.3893
     14 F           7.4007    0.1284    0.9119 F       1  UNL1       -0.1663
     15 F           7.3136    0.3490   -1.3115 F       1  UNL1       -0.1663
     16 C           3.4773   -1.8368   -0.3006 C.ar    1  UNL1       -0.0191
     17 C           2.1108   -1.8232   -0.2756 C.ar    1  UNL1       -0.0506
     18 C           1.4008   -0.6379   -0.1550 C.ar    1  UNL1       -0.0173
     19 C           0.0223   -0.6161   -0.1292 C.ar    1  UNL1       -0.0477
     20 C          -2.7334   -0.1726    1.1689 C.ar    1  UNL1        0.1186
     21 C          -2.5666    0.1766    2.4919 C.ar    1  UNL1        0.0487
     22 N          -3.1916   -0.7016    3.2845 N.ar    1  UNL1       -0.2646
     23 N          -3.7342   -1.5766    2.4682 N.ar    1  UNL1       -0.0681
     24 N          -3.4771   -1.2852    1.2110 N.ar    1  UNL1       -0.1314
     25 H          -3.3670   -1.3565   -2.6056 H       1  UNL1        0.0233
     26 H          -2.7162   -1.9285   -1.0694 H       1  UNL1        0.0233
     27 H          -1.6236   -1.2694   -2.3113 H       1  UNL1        0.0233
     28 H          -2.3029    0.9506   -2.0406 H       1  UNL1        0.0330
     29 H          -4.7536    0.1205   -0.4838 H       1  UNL1        0.0233
     30 H          -4.4443    1.6942   -1.3857 H       1  UNL1        0.0233
     31 H          -4.6586    0.1916   -2.3280 H       1  UNL1        0.0233
     32 H          -2.1532    2.1257    1.1606 H       1  UNL1        0.2112
     33 H          -0.4507    2.6704    0.1788 H       1  UNL1        0.0621
     34 H           2.0184    2.6200    0.1315 H       1  UNL1        0.0624
     35 H           4.0673    1.4425   -0.0115 H       1  UNL1        0.0660
     36 H           6.0606    1.2709   -0.0599 H       1  UNL1        0.1520
     37 H           4.0010   -2.7678   -0.3946 H       1  UNL1        0.0654
     38 H           1.4973   -2.7221   -0.3468 H       1  UNL1        0.0625
     39 H          -0.5180   -1.5467   -0.2034 H       1  UNL1        0.0627
     40 H          -2.0062    1.0465    2.8844 H       1  UNL1        0.0844
     41 H          -3.2106   -0.6517    4.3323 H       1  UNL1        0.1899
@<TRIPOS>BOND
     1     1     2    1
     2     2     3    1
     3     2     4    1
     4     4     5    1
     5     4     6    1
     6     6     7   ar
     7     7     8   ar
     8     8     9   ar
     9     9    10   ar
    10    10    11   ar
    11    11    12    1
    12    12    13    1
    13    13    14    1
    14    13    15    1
    15    11    16   ar
    16    16    17   ar
    17    17    18   ar
    18    18    19   ar
    19     4    20    1
    20    20    21   ar
    21    21    22   ar
    22    22    23   ar
    23    23    24   ar
    24    19     6   ar
    25    24    20   ar
    26    18     9   ar
    27     1    25    1
    28     1    26    1
    29     1    27    1
    30     2    28    1
    31     3    29    1
    32     3    30    1
    33     3    31    1
    34     5    32    1
    35     7    33    1
    36     8    34    1
    37    10    35    1
    38    13    36    1
    39    16    37    1
    40    17    38    1
    41    19    39    1
    42    21    40    1
    43    22    41    1
