
     RDKit          3D

 42 45  0  0  0  0  0  0  0  0999 V2000
    1.4429   -2.1462   -0.0745 O   0  0  0  0  0  0  0  0  0  0  0  0
    0.7530   -1.1065    0.0219 C   0  0  0  0  0  0  0  0  0  0  0  0
    1.1976    0.0349   -0.5347 N   0  0  0  0  0  0  0  0  0  0  0  0
    0.5499    1.2136   -0.4994 C   0  0  0  0  0  0  0  0  0  0  0  0
   -0.6672    1.3407    0.1367 C   0  0  0  0  0  0  0  0  0  0  0  0
   -1.1389    0.1596    0.7191 C   0  0  0  0  0  0  0  0  0  0  0  0
   -0.4616   -1.0375    0.6726 C   0  0  0  0  0  0  0  0  0  0  0  0
   -0.9782   -2.2505    1.2885 C   0  0  0  0  0  0  0  0  0  0  0  0
   -0.6725   -2.5692    2.6061 C   0  0  0  0  0  0  0  0  0  0  0  0
   -1.2116   -3.7469    3.1057 C   0  0  0  0  0  0  0  0  0  0  0  0
   -2.0072   -4.5719    2.3616 C   0  0  0  0  0  0  0  0  0  0  0  0
   -2.3011   -4.2310    1.0391 C   0  0  0  0  0  0  0  0  0  0  0  0
   -1.7870   -3.0679    0.4976 C   0  0  0  0  0  0  0  0  0  0  0  0
   -2.0834   -2.7057   -0.8662 C   0  0  0  0  0  0  0  0  0  0  0  0
   -2.3422   -2.4099   -1.9653 N   0  0  0  0  0  0  0  0  0  0  0  0
   -1.4845    2.5424    0.2592 C   0  0  0  0  0  0  0  0  0  0  0  0
   -2.6461    2.5299    0.9029 N   0  0  0  0  0  0  0  0  0  0  0  0
   -3.3561    3.6659    0.9841 C   0  0  0  0  0  0  0  0  0  0  0  0
   -2.9970    4.8915    0.4516 C   0  0  0  0  0  0  0  0  0  0  0  0
   -1.7894    4.9051   -0.2178 C   0  0  0  0  0  0  0  0  0  0  0  0
   -1.0603    3.7302   -0.2989 C   0  0  0  0  0  0  0  0  0  0  0  0
    2.4525    0.0056   -1.2184 C   0  0  0  0  0  0  0  0  0  0  0  0
    3.6170   -0.3247   -0.5206 C   0  0  0  0  0  0  0  0  0  0  0  0
    4.7785   -0.3269   -1.2630 C   0  0  0  0  0  0  0  0  0  0  0  0
    4.8219   -0.0289   -2.6014 C   0  0  0  0  0  0  0  0  0  0  0  0
    3.6466    0.2921   -3.2512 C   0  0  0  0  0  0  0  0  0  0  0  0
    2.4534    0.3110   -2.5616 C   0  0  0  0  0  0  0  0  0  0  0  0
    0.9322    2.1157   -0.9564 H   0  0  0  0  0  0  0  0  0  0  0  0
   -2.0880    0.1112    1.2554 H   0  0  0  0  0  0  0  0  0  0  0  0
   -0.0447   -1.9254    3.2048 H   0  0  0  0  0  0  0  0  0  0  0  0
   -0.9788   -4.0120    4.1456 H   0  0  0  0  0  0  0  0  0  0  0  0
   -2.3824   -5.4647    2.8284 H   0  0  0  0  0  0  0  0  0  0  0  0
   -2.9389   -4.9034    0.4603 H   0  0  0  0  0  0  0  0  0  0  0  0
   -4.3113    3.6431    1.5168 H   0  0  0  0  0  0  0  0  0  0  0  0
   -3.6236    5.7611    0.5596 H   0  0  0  0  0  0  0  0  0  0  0  0
   -1.4449    5.8449   -0.6642 H   0  0  0  0  0  0  0  0  0  0  0  0
   -0.1363    3.8400   -0.8382 H   0  0  0  0  0  0  0  0  0  0  0  0
    3.5921   -0.5625    0.5409 H   0  0  0  0  0  0  0  0  0  0  0  0
    5.6992   -0.5819   -0.7385 H   0  0  0  0  0  0  0  0  0  0  0  0
    5.7685   -0.0525   -3.1103 H   0  0  0  0  0  0  0  0  0  0  0  0
    3.6958    0.5230   -4.2980 H   0  0  0  0  0  0  0  0  0  0  0  0
    1.5320    0.5646   -3.0799 H   0  0  0  0  0  0  0  0  0  0  0  0
  1  2  2  0
  2  3  1  0
  3  4  1  0
  4  5  2  0
  5  6  1  0
  6  7  2  0
  7  8  1  0
  8  9  2  0
  9 10  1  0
 10 11  2  0
 11 12  1  0
 12 13  2  0
 13 14  1  0
 14 15  3  0
  5 16  1  0
 16 17  2  0
 17 18  1  0
 18 19  2  0
 19 20  1  0
 20 21  2  0
  3 22  1  0
 22 23  2  0
 23 24  1  0
 24 25  2  0
 25 26  1  0
 26 27  2  0
  7  2  1  0
 13  8  1  0
 21 16  1  0
 27 22  1  0
  4 28  1  0
  6 29  1  0
  9 30  1  0
 10 31  1  0
 11 32  1  0
 12 33  1  0
 18 34  1  0
 19 35  1  0
 20 36  1  0
 21 37  1  0
 23 38  1  0
 24 39  1  0
 25 40  1  0
 26 41  1  0
 27 42  1  0
M  END
$$$$
