
     RDKit          3D

 36 38  0  0  0  0  0  0  0  0999 V2000
   -4.8221    2.1925    0.9827 C   0  0  0  0  0  0  0  0  0  0  0  0
   -4.1149    1.3955    0.0240 O   0  0  0  0  0  0  0  0  0  0  0  0
   -2.8637    0.8671    0.3759 C   0  0  0  0  0  0  0  0  0  0  0  0
   -2.3088    1.0989    1.6069 C   0  0  0  0  0  0  0  0  0  0  0  0
   -1.0791    0.5457    1.8762 C   0  0  0  0  0  0  0  0  0  0  0  0
   -0.4666    0.7217    3.0769 N   0  0  0  0  0  0  0  0  0  0  0  0
    0.7275    0.1786    3.3538 C   0  0  0  0  0  0  0  0  0  0  0  0
    1.3261   -0.5581    2.4081 N   0  0  0  0  0  0  0  0  0  0  0  0
    0.7839   -0.7823    1.1850 C   0  0  0  0  0  0  0  0  0  0  0  0
    1.4462   -1.5873    0.2457 N   0  0  0  0  0  0  0  0  0  0  0  0
    2.5716   -1.0515   -0.4444 C   0  0  0  0  0  0  0  0  0  0  0  0
    3.3836   -1.9224   -1.1542 C   0  0  0  0  0  0  0  0  0  0  0  0
    4.5166   -1.4764   -1.8496 C   0  0  0  0  0  0  0  0  0  0  0  0
    4.8174   -0.1327   -1.8155 C   0  0  0  0  0  0  0  0  0  0  0  0
    3.9982    0.7547   -1.0985 C   0  0  0  0  0  0  0  0  0  0  0  0
    4.4374    2.6153   -1.0715 Br  0  0  0  0  0  0  0  0  0  0  0  0
    2.8893    0.2864   -0.4245 C   0  0  0  0  0  0  0  0  0  0  0  0
   -0.4273   -0.2284    0.9102 C   0  0  0  0  0  0  0  0  0  0  0  0
   -1.0230   -0.4433   -0.3354 C   0  0  0  0  0  0  0  0  0  0  0  0
   -2.2461    0.0966   -0.6253 C   0  0  0  0  0  0  0  0  0  0  0  0
   -2.8607   -0.0941   -1.8382 O   0  0  0  0  0  0  0  0  0  0  0  0
   -2.3122   -0.8336   -2.8677 C   0  0  0  0  0  0  0  0  0  0  0  0
   -4.9996    1.5506    1.8750 H   0  0  0  0  0  0  0  0  0  0  0  0
   -5.7876    2.4638    0.5105 H   0  0  0  0  0  0  0  0  0  0  0  0
   -4.2417    3.1082    1.2219 H   0  0  0  0  0  0  0  0  0  0  0  0
   -2.8333    1.6959    2.3264 H   0  0  0  0  0  0  0  0  0  0  0  0
    1.1936    0.3434    4.3377 H   0  0  0  0  0  0  0  0  0  0  0  0
    1.1369   -2.5639    0.0355 H   0  0  0  0  0  0  0  0  0  0  0  0
    3.1497   -2.9723   -1.1804 H   0  0  0  0  0  0  0  0  0  0  0  0
    5.1420   -2.1925   -2.4023 H   0  0  0  0  0  0  0  0  0  0  0  0
    5.6947    0.2594   -2.3403 H   0  0  0  0  0  0  0  0  0  0  0  0
    2.2724    0.9740    0.1160 H   0  0  0  0  0  0  0  0  0  0  0  0
   -0.4481   -1.0553   -1.0271 H   0  0  0  0  0  0  0  0  0  0  0  0
   -2.0400   -0.2041   -3.7519 H   0  0  0  0  0  0  0  0  0  0  0  0
   -3.1148   -1.5308   -3.2821 H   0  0  0  0  0  0  0  0  0  0  0  0
   -1.4976   -1.5194   -2.5977 H   0  0  0  0  0  0  0  0  0  0  0  0
  1  2  1  0
  2  3  1  0
  3  4  2  0
  4  5  1  0
  5  6  2  0
  6  7  1  0
  7  8  2  0
  8  9  1  0
  9 10  1  0
 10 11  1  0
 11 12  2  0
 12 13  1  0
 13 14  2  0
 14 15  1  0
 15 16  1  0
 15 17  2  0
  9 18  2  0
 18 19  1  0
 19 20  2  0
 20 21  1  0
 21 22  1  0
 20  3  1  0
 18  5  1  0
 17 11  1  0
  1 23  1  0
  1 24  1  0
  1 25  1  0
  4 26  1  0
  7 27  1  0
 10 28  1  0
 12 29  1  0
 13 30  1  0
 14 31  1  0
 17 32  1  0
 19 33  1  0
 22 34  1  0
 22 35  1  0
 22 36  1  0
M  END
$$$$
