@<TRIPOS>MOLECULE
*****
 36 38 0 0 0
SMALL
GASTEIGER

@<TRIPOS>ATOM
      1 C          -4.8221    2.1925    0.9827 C.3     1  UNL1        0.0790
      2 O          -4.1149    1.3955    0.0240 O.3     1  UNL1       -0.4914
      3 C          -2.8637    0.8671    0.3759 C.ar    1  UNL1        0.1635
      4 C          -2.3088    1.0989    1.6069 C.ar    1  UNL1        0.0098
      5 C          -1.0791    0.5457    1.8762 C.ar    1  UNL1        0.0797
      6 N          -0.4666    0.7217    3.0769 N.ar    1  UNL1       -0.2352
      7 C           0.7275    0.1786    3.3538 C.ar    1  UNL1        0.1187
      8 N           1.3261   -0.5581    2.4081 N.ar    1  UNL1       -0.2200
      9 C           0.7839   -0.7823    1.1850 C.ar    1  UNL1        0.1340
     10 N           1.4462   -1.5873    0.2457 N.pl3   1  UNL1       -0.2988
     11 C           2.5716   -1.0515   -0.4444 C.ar    1  UNL1        0.0334
     12 C           3.3836   -1.9224   -1.1542 C.ar    1  UNL1       -0.0404
     13 C           4.5166   -1.4764   -1.8496 C.ar    1  UNL1       -0.0590
     14 C           4.8174   -0.1327   -1.8155 C.ar    1  UNL1       -0.0476
     15 C           3.9982    0.7547   -1.0985 C.ar    1  UNL1        0.0196
     16 BR          4.4374    2.6153   -1.0715 Br      1  UNL1       -0.0502
     17 C           2.8893    0.2864   -0.4245 C.ar    1  UNL1       -0.0265
     18 C          -0.4273   -0.2284    0.9102 C.ar    1  UNL1        0.0441
     19 C          -1.0230   -0.4433   -0.3354 C.ar    1  UNL1       -0.0038
     20 C          -2.2461    0.0966   -0.6253 C.ar    1  UNL1        0.1623
     21 O          -2.8607   -0.0941   -1.8382 O.3     1  UNL1       -0.4914
     22 C          -2.3122   -0.8336   -2.8677 C.3     1  UNL1        0.0790
     23 H          -4.9996    1.5506    1.8750 H       1  UNL1        0.0660
     24 H          -5.7876    2.4638    0.5105 H       1  UNL1        0.0660
     25 H          -4.2417    3.1082    1.2219 H       1  UNL1        0.0660
     26 H          -2.8333    1.6959    2.3264 H       1  UNL1        0.0677
     27 H           1.1936    0.3434    4.3377 H       1  UNL1        0.1048
     28 H           1.1369   -2.5639    0.0355 H       1  UNL1        0.1536
     29 H           3.1497   -2.9723   -1.1804 H       1  UNL1        0.0636
     30 H           5.1420   -2.1925   -2.4023 H       1  UNL1        0.0618
     31 H           5.6947    0.2594   -2.3403 H       1  UNL1        0.0629
     32 H           2.2724    0.9740    0.1160 H       1  UNL1        0.0647
     33 H          -0.4481   -1.0553   -1.0271 H       1  UNL1        0.0663
     34 H          -2.0400   -0.2041   -3.7519 H       1  UNL1        0.0660
     35 H          -3.1148   -1.5308   -3.2821 H       1  UNL1        0.0660
     36 H          -1.4976   -1.5194   -2.5977 H       1  UNL1        0.0660
@<TRIPOS>BOND
     1     1     2    1
     2     2     3    1
     3     3     4   ar
     4     4     5   ar
     5     5     6   ar
     6     6     7   ar
     7     7     8   ar
     8     8     9   ar
     9     9    10    1
    10    10    11    1
    11    11    12   ar
    12    12    13   ar
    13    13    14   ar
    14    14    15   ar
    15    15    16    1
    16    15    17   ar
    17     9    18   ar
    18    18    19   ar
    19    19    20   ar
    20    20    21    1
    21    21    22    1
    22    20     3   ar
    23    18     5   ar
    24    17    11   ar
    25     1    23    1
    26     1    24    1
    27     1    25    1
    28     4    26    1
    29     7    27    1
    30    10    28    1
    31    12    29    1
    32    13    30    1
    33    14    31    1
    34    17    32    1
    35    19    33    1
    36    22    34    1
    37    22    35    1
    38    22    36    1
