@<TRIPOS>MOLECULE
*****
 35 36 0 0 0
SMALL
GASTEIGER

@<TRIPOS>ATOM
      1 C          -5.1191   -0.5838    1.9634 C.3     1  UNL1       -0.0332
      2 C          -4.1648    0.0232    0.9829 C.ar    1  UNL1        0.0302
      3 C          -2.8564   -0.3627    0.9642 C.ar    1  UNL1        0.0199
      4 N          -1.8962    0.1004    0.1383 N.ar    1  UNL1       -0.2738
      5 C          -0.5482   -0.3976    0.2283 C.3     1  UNL1        0.1398
      6 C          -0.2416   -1.4191   -0.8472 C.3     1  UNL1       -0.0048
      7 C           1.2828   -1.3314   -0.9078 C.3     1  UNL1       -0.0202
      8 C           1.5760   -0.2854    0.1148 C.3     1  UNL1        0.0851
      9 C           2.8417    0.4982   -0.1314 C.3     1  UNL1        0.0853
     10 O           3.9884   -0.2902   -0.0571 O.3     1  UNL1       -0.2842
     11 P           5.3137    0.7150   -0.3516 P.3     1  UNL1        0.4724
     12 O           6.7030   -0.1896   -0.6875 O.3     1  UNL1       -0.3026
     13 O           5.6156    1.6798    1.0094 O.3     1  UNL1       -0.3026
     14 O           5.0123    1.5907   -1.5455 O.2     1  UNL1       -0.2275
     15 O           0.4352    0.5469    0.0308 O.3     1  UNL1       -0.3510
     16 C          -2.2995    1.0357   -0.7443 C.ar    1  UNL1        0.3313
     17 O          -1.4512    1.5040   -1.5383 O.2     1  UNL1       -0.2464
     18 N          -3.5778    1.4611   -0.7787 N.ar    1  UNL1       -0.2747
     19 C          -4.5270    0.9939    0.0480 C.ar    1  UNL1        0.2568
     20 O          -5.7302    1.3683    0.0439 O.2     1  UNL1       -0.2674
     21 H          -6.1547   -0.5057    1.5789 H       1  UNL1        0.0280
     22 H          -4.9842   -0.1689    2.9643 H       1  UNL1        0.0280
     23 H          -4.8767   -1.6689    2.0081 H       1  UNL1        0.0280
     24 H          -2.5574   -1.1135    1.6810 H       1  UNL1        0.0816
     25 H          -0.4080   -0.8645    1.2144 H       1  UNL1        0.0839
     26 H          -0.6696   -1.0879   -1.7990 H       1  UNL1        0.0309
     27 H          -0.5889   -2.3929   -0.5012 H       1  UNL1        0.0309
     28 H           1.6278   -1.0135   -1.9117 H       1  UNL1        0.0292
     29 H           1.7117   -2.3188   -0.7038 H       1  UNL1        0.0292
     30 H           1.5361   -0.7118    1.1278 H       1  UNL1        0.0620
     31 H           2.8074    1.0786   -1.0527 H       1  UNL1        0.0591
     32 H           2.9146    1.2111    0.7364 H       1  UNL1        0.0591
     33 H           6.5918   -1.1473   -0.4565 H       1  UNL1        0.2220
     34 H           6.5899    1.8555    1.0881 H       1  UNL1        0.2220
     35 H          -3.8964    2.1907   -1.4659 H       1  UNL1        0.1734
@<TRIPOS>BOND
     1     1     2    1
     2     2     3   ar
     3     3     4   ar
     4     4     5    1
     5     5     6    1
     6     6     7    1
     7     7     8    1
     8     8     9    1
     9     9    10    1
    10    10    11    1
    11    11    12    1
    12    11    13    1
    13    11    14    2
    14     8    15    1
    15     4    16   ar
    16    16    17    2
    17    16    18   ar
    18    18    19   ar
    19    19    20    2
    20    19     2   ar
    21    15     5    1
    22     1    21    1
    23     1    22    1
    24     1    23    1
    25     3    24    1
    26     5    25    1
    27     6    26    1
    28     6    27    1
    29     7    28    1
    30     7    29    1
    31     8    30    1
    32     9    31    1
    33     9    32    1
    34    12    33    1
    35    13    34    1
    36    18    35    1
