@<TRIPOS>MOLECULE
*****
 56 58 0 0 0
SMALL
GASTEIGER

@<TRIPOS>ATOM
      1 C           8.4968   -1.8492    0.7114 C.3     1  UNL1       -0.0130
      2 N           8.2180   -0.9702   -0.4321 N.3     1  UNL1       -0.3069
      3 C           8.4106   -1.7915   -1.6156 C.3     1  UNL1       -0.0130
      4 C           6.8214   -0.5730   -0.2903 C.3     1  UNL1        0.0139
      5 C           6.3915    0.3389   -1.4097 C.3     1  UNL1        0.0246
      6 N           5.0037    0.7031   -1.2163 N.am    1  UNL1       -0.3101
      7 C           3.9249   -0.1887   -1.1768 C.2     1  UNL1        0.2441
      8 O           4.1568   -1.4215   -1.3224 O.2     1  UNL1       -0.2702
      9 C           2.5376    0.2280   -0.9751 C.ar    1  UNL1        0.0367
     10 C           2.1433    1.5250   -0.7976 C.ar    1  UNL1       -0.0490
     11 C           0.8411    1.9119   -0.6061 C.ar    1  UNL1       -0.0513
     12 C          -0.1493    0.9456   -0.5880 C.ar    1  UNL1        0.0090
     13 C          -1.5518    1.3680   -0.3763 C.ar    1  UNL1        0.1318
     14 N          -2.2455    2.2985   -0.1939 N.ar    1  UNL1       -0.1620
     15 N          -3.5222    2.3498   -0.0340 N.ar    1  UNL1       -0.2435
     16 C          -4.2716    3.5991    0.1892 C.3     1  UNL1        0.0329
     17 C          -4.1660    1.1951   -0.0784 C.ar    1  UNL1        0.1869
     18 N          -5.3972    0.7425    0.0245 N.2     1  UNL1       -0.2564
     19 C          -5.7041   -0.6182   -0.0833 C.3     1  UNL1        0.0536
     20 C          -7.2225   -0.7308    0.0471 C.3     1  UNL1       -0.0305
     21 C          -7.5928   -0.0913    1.3615 C.3     1  UNL1       -0.0511
     22 C          -6.4824    0.0518    2.3364 C.3     1  UNL1       -0.0529
     23 C          -5.4486   -1.0195    2.3270 C.3     1  UNL1       -0.0511
     24 C          -5.1485   -1.5471    0.9426 C.3     1  UNL1       -0.0305
     25 S          -2.8957    0.0261   -0.3561 S.2     1  UNL1       -0.0286
     26 C           0.2056   -0.3716   -0.7633 C.ar    1  UNL1       -0.0513
     27 C           1.5259   -0.7257   -0.9536 C.ar    1  UNL1       -0.0490
     28 H           7.7478   -2.6807    0.7063 H       1  UNL1        0.0391
     29 H           8.3230   -1.2639    1.6174 H       1  UNL1        0.0391
     30 H           9.4993   -2.2982    0.6324 H       1  UNL1        0.0391
     31 H           9.4296   -2.2311   -1.5434 H       1  UNL1        0.0391
     32 H           7.7120   -2.6616   -1.5646 H       1  UNL1        0.0391
     33 H           8.2623   -1.1940   -2.5170 H       1  UNL1        0.0391
     34 H           6.7410   -0.0758    0.6974 H       1  UNL1        0.0442
     35 H           6.2433   -1.5101   -0.3450 H       1  UNL1        0.0442
     36 H           6.4857   -0.1936   -2.3972 H       1  UNL1        0.0475
     37 H           7.0044    1.2466   -1.4861 H       1  UNL1        0.0475
     38 H           4.7840    1.7218   -1.0949 H       1  UNL1        0.1490
     39 H           2.8960    2.3121   -0.8056 H       1  UNL1        0.0625
     40 H           0.5603    2.9373   -0.4689 H       1  UNL1        0.0624
     41 H          -4.7445    3.9498   -0.7696 H       1  UNL1        0.0473
     42 H          -3.6568    4.3936    0.6007 H       1  UNL1        0.0473
     43 H          -5.1326    3.4247    0.8761 H       1  UNL1        0.0473
     44 H          -5.4391   -0.9935   -1.1108 H       1  UNL1        0.0545
     45 H          -7.5153   -1.8042    0.0552 H       1  UNL1        0.0286
     46 H          -7.7318   -0.1977   -0.7940 H       1  UNL1        0.0286
     47 H          -7.9455    0.9543    1.1183 H       1  UNL1        0.0266
     48 H          -8.4918   -0.5960    1.7754 H       1  UNL1        0.0266
     49 H          -6.9528    0.0366    3.3659 H       1  UNL1        0.0265
     50 H          -5.9689    1.0433    2.3081 H       1  UNL1        0.0265
     51 H          -4.5224   -0.6197    2.7889 H       1  UNL1        0.0266
     52 H          -5.7819   -1.8528    3.0131 H       1  UNL1        0.0266
     53 H          -4.1195   -1.8729    0.8019 H       1  UNL1        0.0286
     54 H          -5.7664   -2.4943    0.8516 H       1  UNL1        0.0286
     55 H          -0.5898   -1.1072   -0.7446 H       1  UNL1        0.0624
     56 H           1.7914   -1.7580   -1.0894 H       1  UNL1        0.0625
@<TRIPOS>BOND
     1     1     2    1
     2     2     3    1
     3     2     4    1
     4     4     5    1
     5     5     6    1
     6     6     7   am
     7     7     8    2
     8     7     9    1
     9     9    10   ar
    10    10    11   ar
    11    11    12   ar
    12    12    13    1
    13    13    14   ar
    14    14    15   ar
    15    15    16    1
    16    15    17   ar
    17    17    18    2
    18    18    19    1
    19    19    20    1
    20    20    21    1
    21    21    22    1
    22    22    23    1
    23    23    24    1
    24    17    25   ar
    25    12    26   ar
    26    26    27   ar
    27    27     9   ar
    28    25    13   ar
    29    24    19    1
    30     1    28    1
    31     1    29    1
    32     1    30    1
    33     3    31    1
    34     3    32    1
    35     3    33    1
    36     4    34    1
    37     4    35    1
    38     5    36    1
    39     5    37    1
    40     6    38    1
    41    10    39    1
    42    11    40    1
    43    16    41    1
    44    16    42    1
    45    16    43    1
    46    19    44    1
    47    20    45    1
    48    20    46    1
    49    21    47    1
    50    21    48    1
    51    22    49    1
    52    22    50    1
    53    23    51    1
    54    23    52    1
    55    24    53    1
    56    24    54    1
    57    26    55    1
    58    27    56    1
