@<TRIPOS>MOLECULE
*****
 53 56 0 0 0
SMALL
GASTEIGER

@<TRIPOS>ATOM
      1 N           5.8922    0.8429    1.1128 N.am    1  UNL1       -0.3291
      2 C           6.3945   -0.4263    0.7171 C.2     1  UNL1        0.2136
      3 O           7.5213   -0.7527    1.2108 O.2     1  UNL1       -0.2757
      4 C           5.6538   -1.3112   -0.2099 C.3     1  UNL1        0.0354
      5 C           5.4121   -0.6811   -1.5479 C.3     1  UNL1       -0.0405
      6 C           4.3205    0.3373   -1.5626 C.3     1  UNL1       -0.0368
      7 C           3.0596   -0.1154   -0.8598 C.3     1  UNL1        0.0079
      8 N           2.8202    0.7708    0.2213 N.3     1  UNL1       -0.3099
      9 C           1.6394    0.4721    0.9928 C.3     1  UNL1        0.0154
     10 C           1.2585    1.3070    2.1521 C.3     1  UNL1       -0.0287
     11 C           0.5508    1.5291    0.8553 C.3     1  UNL1        0.0024
     12 C          -0.8435    1.1163    0.6738 C.ar    1  UNL1       -0.0246
     13 C          -1.7367    1.8737   -0.0596 C.ar    1  UNL1       -0.0548
     14 C          -3.0592    1.4492   -0.2115 C.ar    1  UNL1       -0.0354
     15 C          -3.4886    0.2767    0.3644 C.ar    1  UNL1        0.0710
     16 C          -4.8523   -0.2171    0.2417 C.ar    1  UNL1        0.0009
     17 C          -5.2150   -1.4008    0.8449 C.ar    1  UNL1       -0.0525
     18 C          -6.4777   -1.9270    0.7729 C.ar    1  UNL1       -0.0606
     19 C          -7.4230   -1.2279    0.0587 C.ar    1  UNL1       -0.0501
     20 C          -7.0898   -0.0407   -0.5557 C.ar    1  UNL1        0.0554
     21 C          -8.1325    0.6813   -1.3139 C.3     1  UNL1        0.4174
     22 F          -8.8162   -0.1862   -2.1497 F       1  UNL1       -0.1659
     23 F          -9.0700    1.2187   -0.4389 F       1  UNL1       -0.1659
     24 F          -7.5803    1.7186   -2.0379 F       1  UNL1       -0.1659
     25 C          -5.7936    0.4743   -0.4667 C.ar    1  UNL1       -0.0409
     26 N          -2.5635   -0.4260    1.0745 N.ar    1  UNL1       -0.2547
     27 C          -1.2925   -0.0578    1.2445 C.ar    1  UNL1        0.0317
     28 C           3.2087   -1.5600   -0.4644 C.3     1  UNL1       -0.0368
     29 C           4.3801   -1.8035    0.4348 C.3     1  UNL1       -0.0405
     30 H           6.3242    1.6858    0.6770 H       1  UNL1        0.1449
     31 H           5.1173    0.9174    1.8163 H       1  UNL1        0.1449
     32 H           6.3101   -2.2111   -0.3983 H       1  UNL1        0.0394
     33 H           6.3493   -0.1705   -1.8647 H       1  UNL1        0.0273
     34 H           5.1520   -1.4831   -2.2820 H       1  UNL1        0.0273
     35 H           4.1147    0.6108   -2.6112 H       1  UNL1        0.0280
     36 H           4.7464    1.2735   -1.0959 H       1  UNL1        0.0280
     37 H           2.2246   -0.0730   -1.5994 H       1  UNL1        0.0460
     38 H           2.8663    1.7425   -0.1090 H       1  UNL1        0.1225
     39 H           1.2673   -0.5587    0.9384 H       1  UNL1        0.0466
     40 H           2.0056    2.0717    2.5034 H       1  UNL1        0.0287
     41 H           0.6823    0.8798    2.9730 H       1  UNL1        0.0287
     42 H           0.8208    2.5025    0.3600 H       1  UNL1        0.0365
     43 H          -1.4265    2.8080   -0.5283 H       1  UNL1        0.0621
     44 H          -3.7471    2.0569   -0.7910 H       1  UNL1        0.0639
     45 H          -4.4700   -1.9468    1.4048 H       1  UNL1        0.0624
     46 H          -6.7778   -2.8550    1.2409 H       1  UNL1        0.0618
     47 H          -8.4264   -1.6282   -0.0093 H       1  UNL1        0.0623
     48 H          -5.5992    1.3988   -0.9652 H       1  UNL1        0.0630
     49 H          -0.5723   -0.6311    1.8134 H       1  UNL1        0.0832
     50 H           3.4176   -2.1227   -1.4211 H       1  UNL1        0.0280
     51 H           2.3115   -2.0053   -0.0435 H       1  UNL1        0.0280
     52 H           4.2029   -1.3065    1.4135 H       1  UNL1        0.0273
     53 H           4.4290   -2.8900    0.6413 H       1  UNL1        0.0273
@<TRIPOS>BOND
     1     1     2   am
     2     2     3    2
     3     2     4    1
     4     4     5    1
     5     5     6    1
     6     6     7    1
     7     7     8    1
     8     8     9    1
     9     9    10    1
    10    10    11    1
    11    11    12    1
    12    12    13   ar
    13    13    14   ar
    14    14    15   ar
    15    15    16    1
    16    16    17   ar
    17    17    18   ar
    18    18    19   ar
    19    19    20   ar
    20    20    21    1
    21    21    22    1
    22    21    23    1
    23    21    24    1
    24    20    25   ar
    25    15    26   ar
    26    26    27   ar
    27     7    28    1
    28    28    29    1
    29    29     4    1
    30    11     9    1
    31    27    12   ar
    32    25    16   ar
    33     1    30    1
    34     1    31    1
    35     4    32    1
    36     5    33    1
    37     5    34    1
    38     6    35    1
    39     6    36    1
    40     7    37    1
    41     8    38    1
    42     9    39    1
    43    10    40    1
    44    10    41    1
    45    11    42    1
    46    13    43    1
    47    14    44    1
    48    17    45    1
    49    18    46    1
    50    19    47    1
    51    25    48    1
    52    27    49    1
    53    28    50    1
    54    28    51    1
    55    29    52    1
    56    29    53    1
