
     RDKit          3D

 57 60  0  0  0  0  0  0  0  0999 V2000
    5.9474    2.9501   -1.2008 C   0  0  0  0  0  0  0  0  0  0  0  0
    6.0892    1.8794   -0.2641 O   0  0  0  0  0  0  0  0  0  0  0  0
    5.2215    0.8065   -0.2487 C   0  0  0  0  0  0  0  0  0  0  0  0
    4.1899    0.7563   -1.1540 C   0  0  0  0  0  0  0  0  0  0  0  0
    3.2884   -0.2976   -1.1838 C   0  0  0  0  0  0  0  0  0  0  0  0
    3.4710   -1.3007   -0.2602 C   0  0  0  0  0  0  0  0  0  0  0  0
    4.5140   -1.2412    0.6483 C   0  0  0  0  0  0  0  0  0  0  0  0
    5.4201   -0.1860    0.6810 C   0  0  0  0  0  0  0  0  0  0  0  0
    6.4590   -0.1456    1.6002 O   0  0  0  0  0  0  0  0  0  0  0  0
    6.5823   -1.2108    2.5159 C   0  0  0  0  0  0  0  0  0  0  0  0
    2.4066   -2.3040   -0.4659 C   0  0  0  0  0  0  0  0  0  0  0  0
    2.4937   -3.4912   -0.1505 O   0  0  0  0  0  0  0  0  0  0  0  0
    1.3043   -1.5158   -1.1089 C   0  0  0  0  0  0  0  0  0  0  0  0
    0.7045   -0.6619   -0.0139 C   0  0  0  0  0  0  0  0  0  0  0  0
   -0.4183    0.1939   -0.4897 C   0  0  0  0  0  0  0  0  0  0  0  0
   -1.5488   -0.6369   -1.0546 C   0  0  0  0  0  0  0  0  0  0  0  0
   -2.8941   -0.0837   -0.6329 C   0  0  0  0  0  0  0  0  0  0  0  0
   -3.0574   -0.0482    0.7855 N   0  0  0  0  0  0  0  0  0  0  0  0
   -4.1218    0.8481    1.1906 C   0  0  0  0  0  0  0  0  0  0  0  0
   -5.4301    0.4502    0.6340 C   0  0  0  0  0  0  0  0  0  0  0  0
   -5.8289    0.9488   -0.5777 C   0  0  0  0  0  0  0  0  0  0  0  0
   -7.0519    0.5997   -1.1379 C   0  0  0  0  0  0  0  0  0  0  0  0
   -7.8773   -0.2648   -0.4591 C   0  0  0  0  0  0  0  0  0  0  0  0
   -7.4769   -0.7636    0.7546 C   0  0  0  0  0  0  0  0  0  0  0  0
   -6.2599   -0.4110    1.3032 C   0  0  0  0  0  0  0  0  0  0  0  0
   -1.8497    0.1660    1.5180 C   0  0  0  0  0  0  0  0  0  0  0  0
   -0.9082    1.0159    0.6941 C   0  0  0  0  0  0  0  0  0  0  0  0
    2.1110   -0.6274   -2.0226 C   0  0  0  0  0  0  0  0  0  0  0  0
    6.8539    3.5489   -1.2787 H   0  0  0  0  0  0  0  0  0  0  0  0
    5.8098    2.4480   -2.2001 H   0  0  0  0  0  0  0  0  0  0  0  0
    5.0300    3.5021   -0.9867 H   0  0  0  0  0  0  0  0  0  0  0  0
    4.0113    1.5333   -1.9031 H   0  0  0  0  0  0  0  0  0  0  0  0
    4.6645   -2.0365    1.3855 H   0  0  0  0  0  0  0  0  0  0  0  0
    7.5121   -1.1528    3.1107 H   0  0  0  0  0  0  0  0  0  0  0  0
    5.7295   -1.1593    3.2130 H   0  0  0  0  0  0  0  0  0  0  0  0
    6.5996   -2.2009    2.0127 H   0  0  0  0  0  0  0  0  0  0  0  0
    0.5797   -2.1443   -1.6215 H   0  0  0  0  0  0  0  0  0  0  0  0
    0.3645   -1.3197    0.8151 H   0  0  0  0  0  0  0  0  0  0  0  0
    1.5160   -0.0163    0.3792 H   0  0  0  0  0  0  0  0  0  0  0  0
   -0.0617    0.8895   -1.2748 H   0  0  0  0  0  0  0  0  0  0  0  0
   -1.5125   -0.5980   -2.1618 H   0  0  0  0  0  0  0  0  0  0  0  0
   -1.3907   -1.6727   -0.7041 H   0  0  0  0  0  0  0  0  0  0  0  0
   -2.9321    0.9731   -0.9977 H   0  0  0  0  0  0  0  0  0  0  0  0
   -3.6877   -0.6858   -1.0888 H   0  0  0  0  0  0  0  0  0  0  0  0
   -3.9085    1.8876    0.8535 H   0  0  0  0  0  0  0  0  0  0  0  0
   -4.1916    0.8868    2.3021 H   0  0  0  0  0  0  0  0  0  0  0  0
   -5.2276    1.6339   -1.1639 H   0  0  0  0  0  0  0  0  0  0  0  0
   -7.3686    0.9886   -2.0884 H   0  0  0  0  0  0  0  0  0  0  0  0
   -8.8424   -0.5490   -0.8863 H   0  0  0  0  0  0  0  0  0  0  0  0
   -8.1262   -1.4454    1.2917 H   0  0  0  0  0  0  0  0  0  0  0  0
   -5.9451   -0.7978    2.2483 H   0  0  0  0  0  0  0  0  0  0  0  0
   -2.0886    0.6896    2.4731 H   0  0  0  0  0  0  0  0  0  0  0  0
   -1.3859   -0.8173    1.7346 H   0  0  0  0  0  0  0  0  0  0  0  0
   -0.0596    1.2826    1.3831 H   0  0  0  0  0  0  0  0  0  0  0  0
   -1.4530    1.9127    0.3823 H   0  0  0  0  0  0  0  0  0  0  0  0
    2.4672   -1.2686   -2.8583 H   0  0  0  0  0  0  0  0  0  0  0  0
    1.5640    0.2628   -2.3651 H   0  0  0  0  0  0  0  0  0  0  0  0
  1  2  1  0
  2  3  1  0
  3  4  2  0
  4  5  1  0
  5  6  2  0
  6  7  1  0
  7  8  2  0
  8  9  1  0
  9 10  1  0
  6 11  1  0
 11 12  2  0
 11 13  1  0
 13 14  1  0
 14 15  1  0
 15 16  1  0
 16 17  1  0
 17 18  1  0
 18 19  1  0
 19 20  1  0
 20 21  2  0
 21 22  1  0
 22 23  2  0
 23 24  1  0
 24 25  2  0
 18 26  1  0
 26 27  1  0
 13 28  1  0
  8  3  1  0
 27 15  1  0
 28  5  1  0
 25 20  1  0
  1 29  1  0
  1 30  1  0
  1 31  1  0
  4 32  1  0
  7 33  1  0
 10 34  1  0
 10 35  1  0
 10 36  1  0
 13 37  1  0
 14 38  1  0
 14 39  1  0
 15 40  1  0
 16 41  1  0
 16 42  1  0
 17 43  1  0
 17 44  1  0
 19 45  1  0
 19 46  1  0
 21 47  1  0
 22 48  1  0
 23 49  1  0
 24 50  1  0
 25 51  1  0
 26 52  1  0
 26 53  1  0
 27 54  1  0
 27 55  1  0
 28 56  1  0
 28 57  1  0
M  END
$$$$
