@<TRIPOS>MOLECULE
*****
 57 60 0 0 0
SMALL
GASTEIGER

@<TRIPOS>ATOM
      1 C           5.9474    2.9501   -1.2008 C.3     1  UNL1        0.0790
      2 O           6.0892    1.8794   -0.2641 O.3     1  UNL1       -0.4914
      3 C           5.2215    0.8065   -0.2487 C.ar    1  UNL1        0.1618
      4 C           4.1899    0.7563   -1.1540 C.ar    1  UNL1       -0.0124
      5 C           3.2884   -0.2976   -1.1838 C.ar    1  UNL1       -0.0325
      6 C           3.4710   -1.3007   -0.2602 C.ar    1  UNL1        0.0246
      7 C           4.5140   -1.2412    0.6483 C.ar    1  UNL1       -0.0056
      8 C           5.4201   -0.1860    0.6810 C.ar    1  UNL1        0.1622
      9 O           6.4590   -0.1456    1.6002 O.3     1  UNL1       -0.4914
     10 C           6.5823   -1.2108    2.5159 C.3     1  UNL1        0.0790
     11 C           2.4066   -2.3040   -0.4659 C.2     1  UNL1        0.1669
     12 O           2.4937   -3.4912   -0.1505 O.2     1  UNL1       -0.2917
     13 C           1.3043   -1.5158   -1.1089 C.3     1  UNL1        0.0264
     14 C           0.7045   -0.6619   -0.0139 C.3     1  UNL1       -0.0399
     15 C          -0.4183    0.1939   -0.4897 C.3     1  UNL1       -0.0381
     16 C          -1.5488   -0.6369   -1.0546 C.3     1  UNL1       -0.0373
     17 C          -2.8941   -0.0837   -0.6329 C.3     1  UNL1       -0.0005
     18 N          -3.0574   -0.0482    0.7855 N.3     1  UNL1       -0.2981
     19 C          -4.1218    0.8481    1.1906 C.3     1  UNL1        0.0240
     20 C          -5.4301    0.4502    0.6340 C.ar    1  UNL1       -0.0334
     21 C          -5.8289    0.9488   -0.5777 C.ar    1  UNL1       -0.0573
     22 C          -7.0519    0.5997   -1.1379 C.ar    1  UNL1       -0.0615
     23 C          -7.8773   -0.2648   -0.4591 C.ar    1  UNL1       -0.0617
     24 C          -7.4769   -0.7636    0.7546 C.ar    1  UNL1       -0.0615
     25 C          -6.2599   -0.4110    1.3032 C.ar    1  UNL1       -0.0573
     26 C          -1.8497    0.1660    1.5180 C.3     1  UNL1       -0.0005
     27 C          -0.9082    1.0159    0.6941 C.3     1  UNL1       -0.0373
     28 C           2.1110   -0.6274   -2.0226 C.3     1  UNL1       -0.0170
     29 H           6.8539    3.5489   -1.2787 H       1  UNL1        0.0660
     30 H           5.8098    2.4480   -2.2001 H       1  UNL1        0.0660
     31 H           5.0300    3.5021   -0.9867 H       1  UNL1        0.0660
     32 H           4.0113    1.5333   -1.9031 H       1  UNL1        0.0658
     33 H           4.6645   -2.0365    1.3855 H       1  UNL1        0.0662
     34 H           7.5121   -1.1528    3.1107 H       1  UNL1        0.0660
     35 H           5.7295   -1.1593    3.2130 H       1  UNL1        0.0660
     36 H           6.5996   -2.2009    2.0127 H       1  UNL1        0.0660
     37 H           0.5797   -2.1443   -1.6215 H       1  UNL1        0.0384
     38 H           0.3645   -1.3197    0.8151 H       1  UNL1        0.0275
     39 H           1.5160   -0.0163    0.3792 H       1  UNL1        0.0275
     40 H          -0.0617    0.8895   -1.2748 H       1  UNL1        0.0302
     41 H          -1.5125   -0.5980   -2.1618 H       1  UNL1        0.0280
     42 H          -1.3907   -1.6727   -0.7041 H       1  UNL1        0.0280
     43 H          -2.9321    0.9731   -0.9977 H       1  UNL1        0.0427
     44 H          -3.6877   -0.6858   -1.0888 H       1  UNL1        0.0427
     45 H          -3.9085    1.8876    0.8535 H       1  UNL1        0.0476
     46 H          -4.1916    0.8868    2.3021 H       1  UNL1        0.0476
     47 H          -5.2276    1.6339   -1.1639 H       1  UNL1        0.0621
     48 H          -7.3686    0.9886   -2.0884 H       1  UNL1        0.0618
     49 H          -8.8424   -0.5490   -0.8863 H       1  UNL1        0.0618
     50 H          -8.1262   -1.4454    1.2917 H       1  UNL1        0.0618
     51 H          -5.9451   -0.7978    2.2483 H       1  UNL1        0.0621
     52 H          -2.0886    0.6896    2.4731 H       1  UNL1        0.0427
     53 H          -1.3859   -0.8173    1.7346 H       1  UNL1        0.0427
     54 H          -0.0596    1.2826    1.3831 H       1  UNL1        0.0280
     55 H          -1.4530    1.9127    0.3823 H       1  UNL1        0.0280
     56 H           2.4672   -1.2686   -2.8583 H       1  UNL1        0.0320
     57 H           1.5640    0.2628   -2.3651 H       1  UNL1        0.0320
@<TRIPOS>BOND
     1     1     2    1
     2     2     3    1
     3     3     4   ar
     4     4     5   ar
     5     5     6   ar
     6     6     7   ar
     7     7     8   ar
     8     8     9    1
     9     9    10    1
    10     6    11    1
    11    11    12    2
    12    11    13    1
    13    13    14    1
    14    14    15    1
    15    15    16    1
    16    16    17    1
    17    17    18    1
    18    18    19    1
    19    19    20    1
    20    20    21   ar
    21    21    22   ar
    22    22    23   ar
    23    23    24   ar
    24    24    25   ar
    25    18    26    1
    26    26    27    1
    27    13    28    1
    28     8     3   ar
    29    27    15    1
    30    28     5    1
    31    25    20   ar
    32     1    29    1
    33     1    30    1
    34     1    31    1
    35     4    32    1
    36     7    33    1
    37    10    34    1
    38    10    35    1
    39    10    36    1
    40    13    37    1
    41    14    38    1
    42    14    39    1
    43    15    40    1
    44    16    41    1
    45    16    42    1
    46    17    43    1
    47    17    44    1
    48    19    45    1
    49    19    46    1
    50    21    47    1
    51    22    48    1
    52    23    49    1
    53    24    50    1
    54    25    51    1
    55    26    52    1
    56    26    53    1
    57    27    54    1
    58    27    55    1
    59    28    56    1
    60    28    57    1
