@<TRIPOS>MOLECULE
*****
 38 40 0 0 0
SMALL
GASTEIGER

@<TRIPOS>ATOM
      1 O           2.1841   -2.5136    0.0954 O.2     1  UNL1        0.0000
      2 C           2.4595   -1.2819    0.0915 C.2     1  UNL1        0.0000
      3 C           3.6964   -0.6716   -0.3297 C.ar    1  UNL1        0.0000
      4 C           4.8869   -1.1835   -0.8254 C.ar    1  UNL1        0.0000
      5 C           5.9288   -0.3417   -1.1534 C.ar    1  UNL1        0.0000
      6 C           5.7944    1.0310   -0.9895 C.ar    1  UNL1        0.0000
      7 C           4.6216    1.5301   -0.5016 C.ar    1  UNL1        0.0000
      8 C           3.5580    0.6841   -0.1657 C.ar    1  UNL1        0.0000
      9 C           2.2197    0.9837    0.3689 C.3     1  UNL1        0.0000
     10 N           1.5503   -0.2862    0.5197 N.am    1  UNL1        0.0000
     11 C           0.2074   -0.4164    1.0207 C.3     1  UNL1        0.0000
     12 C          -0.7401   -0.3530   -0.1144 C.2     1  UNL1        0.0000
     13 O          -0.2730   -0.2053   -1.2718 O.2     1  UNL1        0.0000
     14 N          -2.1480   -0.4560    0.0895 N.am    1  UNL1        0.0000
     15 C          -2.7669   -0.6272    1.3868 C.3     1  UNL1        0.0000
     16 C          -4.2536   -0.4590    1.0992 C.3     1  UNL1        0.0000
     17 C          -4.3240   -1.1202   -0.2753 C.3     1  UNL1        0.0000
     18 C          -3.1456   -0.4053   -0.9530 C.3     1  UNL1        0.0000
     19 B          -3.6392    1.0899   -1.2018 B       1  UNL1        0.0000
     20 O          -2.7794    2.1777   -0.6946 O.3     1  UNL1        0.0000
     21 O          -5.0451    1.4254   -1.4081 O.3     1  UNL1        0.0000
     22 H           4.9457   -2.2529   -0.9356 H       1  UNL1        0.0000
     23 H           6.8605   -0.7335   -1.5406 H       1  UNL1        0.0000
     24 H           6.6326    1.6620   -1.2572 H       1  UNL1        0.0000
     25 H           4.4924    2.6035   -0.3643 H       1  UNL1        0.0000
     26 H           2.3239    1.5033    1.3421 H       1  UNL1        0.0000
     27 H           1.6639    1.5935   -0.3620 H       1  UNL1        0.0000
     28 H          -0.0325    0.3110    1.8179 H       1  UNL1        0.0000
     29 H           0.1515   -1.4259    1.5130 H       1  UNL1        0.0000
     30 H          -2.5722   -1.6862    1.6924 H       1  UNL1        0.0000
     31 H          -2.4007    0.0989    2.1355 H       1  UNL1        0.0000
     32 H          -4.8890   -0.9456    1.8388 H       1  UNL1        0.0000
     33 H          -4.4598    0.6266    0.9635 H       1  UNL1        0.0000
     34 H          -5.2671   -0.9427   -0.7865 H       1  UNL1        0.0000
     35 H          -4.0550   -2.1950   -0.1612 H       1  UNL1        0.0000
     36 H          -2.8418   -0.9014   -1.8785 H       1  UNL1        0.0000
     37 H          -3.1461    3.0568   -0.9636 H       1  UNL1        0.0000
     38 H          -5.3986    1.0263   -2.2607 H       1  UNL1        0.0000
@<TRIPOS>BOND
     1     1     2    2
     2     2     3    1
     3     3     4   ar
     4     4     5   ar
     5     5     6   ar
     6     6     7   ar
     7     7     8   ar
     8     8     9    1
     9     9    10    1
    10    10    11    1
    11    11    12    1
    12    12    13    2
    13    12    14   am
    14    14    15    1
    15    15    16    1
    16    16    17    1
    17    17    18    1
    18    18    19    1
    19    19    20    1
    20    19    21    1
    21    10     2   am
    22    18    14    1
    23     8     3   ar
    24     4    22    1
    25     5    23    1
    26     6    24    1
    27     7    25    1
    28     9    26    1
    29     9    27    1
    30    11    28    1
    31    11    29    1
    32    15    30    1
    33    15    31    1
    34    16    32    1
    35    16    33    1
    36    17    34    1
    37    17    35    1
    38    18    36    1
    39    20    37    1
    40    21    38    1
