@<TRIPOS>MOLECULE
*****
 90 95 0 0 0
SMALL
GASTEIGER

@<TRIPOS>ATOM
      1 C          -8.7380   -6.3385    1.3688 C.3     1  UNL1        0.0788
      2 O          -8.4236   -5.6484    0.1962 O.3     1  UNL1       -0.4951
      3 C          -8.2370   -4.2819    0.1707 C.ar    1  UNL1        0.1202
      4 C          -8.3747   -3.5918    1.3697 C.ar    1  UNL1       -0.0179
      5 C          -8.1918   -2.2237    1.3714 C.ar    1  UNL1       -0.0327
      6 C          -7.8742   -1.5020    0.2180 C.ar    1  UNL1        0.0677
      7 N          -7.6851   -0.1031    0.2580 N.ar    1  UNL1       -0.2181
      8 N          -8.5793    0.8093    0.5421 N.ar    1  UNL1       -0.1694
      9 C          -8.0645    2.0275    0.4891 C.ar    1  UNL1        0.0679
     10 C          -8.7347    3.3392    0.7501 C.3     1  UNL1       -0.0025
     11 C          -7.8119    4.1686    1.6128 C.3     1  UNL1       -0.0572
     12 C          -8.8620    3.9939   -0.6216 C.3     1  UNL1       -0.0572
     13 C          -6.7190    1.8668    0.1381 C.ar    1  UNL1        0.0018
     14 C          -6.5089    0.5202   -0.0004 C.ar    1  UNL1        0.1299
     15 N          -5.2804   -0.1343   -0.3416 N.am    1  UNL1       -0.2538
     16 C          -4.1202    0.6109   -0.5113 C.2     1  UNL1        0.3092
     17 O          -4.0169    1.8628   -0.3835 O.2     1  UNL1       -0.2521
     18 N          -2.8880   -0.0504   -0.8652 N.am    1  UNL1       -0.2686
     19 C          -1.6923    0.6878   -1.0300 C.ar    1  UNL1        0.0427
     20 C          -1.3591    1.1896   -2.2587 C.ar    1  UNL1       -0.0363
     21 C          -0.2085    1.9224   -2.3836 C.ar    1  UNL1       -0.0169
     22 C           0.6368    2.1814   -1.3259 C.ar    1  UNL1        0.1381
     23 O           1.7757    2.9118   -1.4668 O.3     1  UNL1       -0.4373
     24 C           3.0911    2.4712   -1.2761 C.ar    1  UNL1        0.2249
     25 C           4.1250    3.3724   -1.4381 C.ar    1  UNL1        0.0186
     26 C           5.4094    2.9384   -1.2507 C.ar    1  UNL1        0.0362
     27 N           5.6047    1.6583   -0.9172 N.ar    1  UNL1       -0.2225
     28 C           4.6523    0.7424   -0.7465 C.ar    1  UNL1        0.2226
     29 N           4.8748   -0.5965   -0.3810 N.pl3   1  UNL1       -0.2834
     30 C           6.1369   -1.1835   -0.1287 C.ar    1  UNL1        0.0378
     31 C           6.1776   -2.5054    0.3717 C.ar    1  UNL1        0.0013
     32 C           7.3581   -3.1429    0.6436 C.ar    1  UNL1        0.1226
     33 O           7.4151   -4.4430    1.1375 O.3     1  UNL1       -0.4950
     34 C           6.2419   -5.1906    1.3908 C.3     1  UNL1        0.0788
     35 C           8.5645   -2.5095    0.4358 C.ar    1  UNL1       -0.0077
     36 C           8.5844   -1.2220   -0.0502 C.ar    1  UNL1        0.0419
     37 C           9.8514   -0.5483   -0.2622 C.2     1  UNL1        0.2443
     38 O          10.8994   -1.1726    0.0394 O.2     1  UNL1       -0.2702
     39 N          10.0032    0.7542   -0.7800 N.am    1  UNL1       -0.3092
     40 C          11.2216    1.4684   -1.0013 C.3     1  UNL1        0.0351
     41 C          12.0596    1.7388    0.1981 C.3     1  UNL1        0.0597
     42 O          12.4993    0.6358    0.8740 O.3     1  UNL1       -0.3935
     43 C           7.3648   -0.6052   -0.3155 C.ar    1  UNL1       -0.0281
     44 N           3.3771    1.2116   -0.9430 N.ar    1  UNL1       -0.1789
     45 C           0.2980    1.6749   -0.0894 C.ar    1  UNL1        0.0262
     46 C           1.0833    1.8981    1.0076 C.ar    1  UNL1       -0.0505
     47 C           0.7569    1.3966    2.2719 C.ar    1  UNL1       -0.0611
     48 C          -0.3939    0.6621    2.3874 C.ar    1  UNL1       -0.0611
     49 C          -1.2042    0.4237    1.3024 C.ar    1  UNL1       -0.0521
     50 C          -0.8835    0.9173    0.0561 C.ar    1  UNL1        0.0069
     51 C          -7.7494   -2.2358   -0.9480 C.ar    1  UNL1       -0.0327
     52 C          -7.9228   -3.5981   -0.9928 C.ar    1  UNL1       -0.0179
     53 H          -9.6252   -5.8820    1.8528 H       1  UNL1        0.0660
     54 H          -7.8872   -6.3198    2.0819 H       1  UNL1        0.0660
     55 H          -8.9665   -7.4042    1.1819 H       1  UNL1        0.0660
     56 H          -8.6170   -4.0658    2.3000 H       1  UNL1        0.0655
     57 H          -8.2847   -1.6182    2.2747 H       1  UNL1        0.0640
     58 H          -9.6955    3.2267    1.2386 H       1  UNL1        0.0359
     59 H          -8.2176    5.1851    1.6968 H       1  UNL1        0.0236
     60 H          -6.8160    4.2760    1.1189 H       1  UNL1        0.0236
     61 H          -7.7502    3.7303    2.6220 H       1  UNL1        0.0236
     62 H          -9.7342    3.5503   -1.1721 H       1  UNL1        0.0236
     63 H          -9.0707    5.0768   -0.5613 H       1  UNL1        0.0236
     64 H          -7.9545    3.8037   -1.2083 H       1  UNL1        0.0236
     65 H          -6.0378    2.7094    0.0183 H       1  UNL1        0.0671
     66 H          -5.3153   -1.1907   -0.4587 H       1  UNL1        0.1578
     67 H          -2.8597   -1.0775   -1.0055 H       1  UNL1        0.1564
     68 H          -2.0168    0.9976   -3.1230 H       1  UNL1        0.0637
     69 H           0.0546    2.3170   -3.3368 H       1  UNL1        0.0655
     70 H           3.8818    4.4007   -1.7113 H       1  UNL1        0.0686
     71 H           6.2534    3.6368   -1.3733 H       1  UNL1        0.0832
     72 H           4.0033   -1.2061   -0.2908 H       1  UNL1        0.1550
     73 H           5.2405   -3.0146    0.5391 H       1  UNL1        0.0673
     74 H           5.5735   -5.1346    0.5111 H       1  UNL1        0.0660
     75 H           5.7322   -4.6997    2.2585 H       1  UNL1        0.0660
     76 H           6.5307   -6.2251    1.6412 H       1  UNL1        0.0660
     77 H           9.5034   -2.9982    0.6460 H       1  UNL1        0.0662
     78 H           9.0858    1.2387   -1.0297 H       1  UNL1        0.1491
     79 H          10.9598    2.4743   -1.4444 H       1  UNL1        0.0485
     80 H          11.8714    1.0029   -1.7735 H       1  UNL1        0.0485
     81 H          12.9565    2.3204   -0.1663 H       1  UNL1        0.0573
     82 H          11.5578    2.4784    0.8906 H       1  UNL1        0.0573
     83 H          13.4207    0.4039    0.5746 H       1  UNL1        0.2095
     84 H           7.3742    0.3983   -0.6998 H       1  UNL1        0.0644
     85 H           1.9670    2.4870    0.9323 H       1  UNL1        0.0625
     86 H           1.4195    1.6068    3.1031 H       1  UNL1        0.0618
     87 H          -0.6518    0.2665    3.3672 H       1  UNL1        0.0618
     88 H          -2.1094   -0.1695    1.4623 H       1  UNL1        0.0624
     89 H          -7.5051   -1.7111   -1.8586 H       1  UNL1        0.0640
     90 H          -7.8101   -4.0993   -1.9312 H       1  UNL1        0.0655
@<TRIPOS>BOND
     1     1     2    1
     2     2     3    1
     3     3     4   ar
     4     4     5   ar
     5     5     6   ar
     6     6     7    1
     7     7     8   ar
     8     8     9   ar
     9     9    10    1
    10    10    11    1
    11    10    12    1
    12     9    13   ar
    13    13    14   ar
    14    14    15    1
    15    15    16   am
    16    16    17    2
    17    16    18   am
    18    18    19    1
    19    19    20   ar
    20    20    21   ar
    21    21    22   ar
    22    22    23    1
    23    23    24    1
    24    24    25   ar
    25    25    26   ar
    26    26    27   ar
    27    27    28   ar
    28    28    29    1
    29    29    30    1
    30    30    31   ar
    31    31    32   ar
    32    32    33    1
    33    33    34    1
    34    32    35   ar
    35    35    36   ar
    36    36    37    1
    37    37    38    2
    38    37    39   am
    39    39    40    1
    40    40    41    1
    41    41    42    1
    42    36    43   ar
    43    28    44   ar
    44    22    45   ar
    45    45    46   ar
    46    46    47   ar
    47    47    48   ar
    48    48    49   ar
    49    49    50   ar
    50     6    51   ar
    51    51    52   ar
    52    52     3   ar
    53    14     7   ar
    54    50    19   ar
    55    44    24   ar
    56    50    45   ar
    57    43    30   ar
    58     1    53    1
    59     1    54    1
    60     1    55    1
    61     4    56    1
    62     5    57    1
    63    10    58    1
    64    11    59    1
    65    11    60    1
    66    11    61    1
    67    12    62    1
    68    12    63    1
    69    12    64    1
    70    13    65    1
    71    15    66    1
    72    18    67    1
    73    20    68    1
    74    21    69    1
    75    25    70    1
    76    26    71    1
    77    29    72    1
    78    31    73    1
    79    34    74    1
    80    34    75    1
    81    34    76    1
    82    35    77    1
    83    39    78    1
    84    40    79    1
    85    40    80    1
    86    41    81    1
    87    41    82    1
    88    42    83    1
    89    43    84    1
    90    46    85    1
    91    47    86    1
    92    48    87    1
    93    49    88    1
    94    51    89    1
    95    52    90    1
