@<TRIPOS>MOLECULE
*****
 43 45 0 0 0
SMALL
GASTEIGER

@<TRIPOS>ATOM
      1 O           4.3228    1.2943   -3.6303 O.2     1  UNL1       -0.1498
      2 S           3.9941    0.4932   -2.3792 S.O2    1  UNL1        0.0766
      3 O           4.5787   -0.9110   -2.5910 O.2     1  UNL1       -0.1498
      4 N           4.7097    1.1867   -1.0040 N.pl3   1  UNL1       -0.1937
      5 C           4.7240    0.6112    0.3322 C.ar    1  UNL1        0.1774
      6 N           4.4264   -0.2453    1.0073 N.ar    1  UNL1       -0.2321
      7 C           4.6104   -0.4779    2.2826 C.ar    1  UNL1        0.0369
      8 C           5.2910    0.4823    2.9557 C.ar    1  UNL1       -0.0030
      9 S           5.6259    1.6919    1.6500 S.2     1  UNL1       -0.0594
     10 C           2.2792    0.2846   -2.2337 C.ar    1  UNL1        0.1450
     11 C           1.4077    1.1205   -2.9462 C.ar    1  UNL1       -0.0121
     12 C           0.0508    0.9941   -2.8063 C.ar    1  UNL1        0.0638
     13 CL         -0.9762    2.0866   -3.7396 Cl      1  UNL1       -0.0816
     14 C          -0.5300    0.0414   -1.9604 C.ar    1  UNL1        0.0485
     15 N          -1.9255   -0.0291   -1.9014 N.pl3   1  UNL1       -0.3423
     16 C          -2.6296   -0.9441   -1.0509 C.3     1  UNL1        0.0131
     17 C          -2.5865   -0.5035    0.3839 C.3     1  UNL1       -0.0130
     18 C          -3.2459    0.8692    0.4750 C.3     1  UNL1       -0.0465
     19 C          -3.0828    1.3932    1.8847 C.3     1  UNL1       -0.0401
     20 C          -3.5311    0.3416    2.8461 C.3     1  UNL1       -0.0041
     21 N          -4.2513   -0.6888    2.1577 N.3     1  UNL1       -0.3157
     22 C          -3.4052   -1.4317    1.2560 C.3     1  UNL1        0.0001
     23 C           0.3267   -0.7742   -1.2676 C.ar    1  UNL1       -0.0022
     24 C           1.7145   -0.6384   -1.4168 C.ar    1  UNL1        0.1517
     25 F           2.4638   -1.5354   -0.7136 F       1  UNL1       -0.2034
     26 H           5.1986    2.1323   -1.1123 H       1  UNL1        0.1758
     27 H           4.2517   -1.3839    2.8156 H       1  UNL1        0.0835
     28 H           5.6012    0.5931    3.9880 H       1  UNL1        0.0710
     29 H           1.8757    1.8527   -3.5968 H       1  UNL1        0.0653
     30 H          -2.4864    0.6310   -2.5205 H       1  UNL1        0.1461
     31 H          -3.6748   -1.0554   -1.4181 H       1  UNL1        0.0464
     32 H          -2.1484   -1.9655   -1.1161 H       1  UNL1        0.0464
     33 H          -1.5506   -0.4475    0.7236 H       1  UNL1        0.0328
     34 H          -4.3076    0.7573    0.2152 H       1  UNL1        0.0269
     35 H          -2.7640    1.5647   -0.2413 H       1  UNL1        0.0269
     36 H          -3.6273    2.3301    2.0291 H       1  UNL1        0.0278
     37 H          -1.9903    1.5671    2.0546 H       1  UNL1        0.0278
     38 H          -2.6576   -0.1458    3.3599 H       1  UNL1        0.0424
     39 H          -4.1558    0.7514    3.6657 H       1  UNL1        0.0424
     40 H          -5.1253   -0.3556    1.7177 H       1  UNL1        0.1219
     41 H          -4.0104   -2.0769    0.5925 H       1  UNL1        0.0427
     42 H          -2.7454   -2.0667    1.8731 H       1  UNL1        0.0427
     43 H          -0.0446   -1.5299   -0.6203 H       1  UNL1        0.0666
@<TRIPOS>BOND
     1     1     2    2
     2     2     3    2
     3     2     4    1
     4     4     5    1
     5     5     6   ar
     6     6     7   ar
     7     7     8   ar
     8     8     9   ar
     9     2    10    1
    10    10    11   ar
    11    11    12   ar
    12    12    13    1
    13    12    14   ar
    14    14    15    1
    15    15    16    1
    16    16    17    1
    17    17    18    1
    18    18    19    1
    19    19    20    1
    20    20    21    1
    21    21    22    1
    22    14    23   ar
    23    23    24   ar
    24    24    25    1
    25     9     5   ar
    26    24    10   ar
    27    22    17    1
    28     4    26    1
    29     7    27    1
    30     8    28    1
    31    11    29    1
    32    15    30    1
    33    16    31    1
    34    16    32    1
    35    17    33    1
    36    18    34    1
    37    18    35    1
    38    19    36    1
    39    19    37    1
    40    20    38    1
    41    20    39    1
    42    21    40    1
    43    22    41    1
    44    22    42    1
    45    23    43    1
