
     RDKit          3D

 43 45  0  0  0  0  0  0  0  0999 V2000
    4.3228    1.2943   -3.6303 O   0  0  0  0  0  0  0  0  0  0  0  0
    3.9941    0.4932   -2.3792 S   0  0  0  0  0  6  0  0  0  0  0  0
    4.5787   -0.9110   -2.5910 O   0  0  0  0  0  0  0  0  0  0  0  0
    4.7097    1.1867   -1.0040 N   0  0  0  0  0  0  0  0  0  0  0  0
    4.7240    0.6112    0.3322 C   0  0  0  0  0  0  0  0  0  0  0  0
    4.4264   -0.2453    1.0073 N   0  0  0  0  0  0  0  0  0  0  0  0
    4.6104   -0.4779    2.2826 C   0  0  0  0  0  0  0  0  0  0  0  0
    5.2910    0.4823    2.9557 C   0  0  0  0  0  0  0  0  0  0  0  0
    5.6259    1.6919    1.6500 S   0  0  0  0  0  0  0  0  0  0  0  0
    2.2792    0.2846   -2.2337 C   0  0  0  0  0  0  0  0  0  0  0  0
    1.4077    1.1205   -2.9462 C   0  0  0  0  0  0  0  0  0  0  0  0
    0.0508    0.9941   -2.8063 C   0  0  0  0  0  0  0  0  0  0  0  0
   -0.9762    2.0866   -3.7396 Cl  0  0  0  0  0  0  0  0  0  0  0  0
   -0.5300    0.0414   -1.9604 C   0  0  0  0  0  0  0  0  0  0  0  0
   -1.9255   -0.0291   -1.9014 N   0  0  0  0  0  0  0  0  0  0  0  0
   -2.6296   -0.9441   -1.0509 C   0  0  0  0  0  0  0  0  0  0  0  0
   -2.5865   -0.5035    0.3839 C   0  0  1  0  0  0  0  0  0  0  0  0
   -3.2459    0.8692    0.4750 C   0  0  0  0  0  0  0  0  0  0  0  0
   -3.0828    1.3932    1.8847 C   0  0  0  0  0  0  0  0  0  0  0  0
   -3.5311    0.3416    2.8461 C   0  0  0  0  0  0  0  0  0  0  0  0
   -4.2513   -0.6888    2.1577 N   0  0  0  0  0  0  0  0  0  0  0  0
   -3.4052   -1.4317    1.2560 C   0  0  0  0  0  0  0  0  0  0  0  0
    0.3267   -0.7742   -1.2676 C   0  0  0  0  0  0  0  0  0  0  0  0
    1.7145   -0.6384   -1.4168 C   0  0  0  0  0  0  0  0  0  0  0  0
    2.4638   -1.5354   -0.7136 F   0  0  0  0  0  0  0  0  0  0  0  0
    5.1986    2.1323   -1.1123 H   0  0  0  0  0  0  0  0  0  0  0  0
    4.2517   -1.3839    2.8156 H   0  0  0  0  0  0  0  0  0  0  0  0
    5.6012    0.5931    3.9880 H   0  0  0  0  0  0  0  0  0  0  0  0
    1.8757    1.8527   -3.5968 H   0  0  0  0  0  0  0  0  0  0  0  0
   -2.4864    0.6310   -2.5205 H   0  0  0  0  0  0  0  0  0  0  0  0
   -3.6748   -1.0554   -1.4181 H   0  0  0  0  0  0  0  0  0  0  0  0
   -2.1484   -1.9655   -1.1161 H   0  0  0  0  0  0  0  0  0  0  0  0
   -1.5506   -0.4475    0.7236 H   0  0  0  0  0  0  0  0  0  0  0  0
   -4.3076    0.7573    0.2152 H   0  0  0  0  0  0  0  0  0  0  0  0
   -2.7640    1.5647   -0.2413 H   0  0  0  0  0  0  0  0  0  0  0  0
   -3.6273    2.3301    2.0291 H   0  0  0  0  0  0  0  0  0  0  0  0
   -1.9903    1.5671    2.0546 H   0  0  0  0  0  0  0  0  0  0  0  0
   -2.6576   -0.1458    3.3599 H   0  0  0  0  0  0  0  0  0  0  0  0
   -4.1558    0.7514    3.6657 H   0  0  0  0  0  0  0  0  0  0  0  0
   -5.1253   -0.3556    1.7177 H   0  0  0  0  0  0  0  0  0  0  0  0
   -4.0104   -2.0769    0.5925 H   0  0  0  0  0  0  0  0  0  0  0  0
   -2.7454   -2.0667    1.8731 H   0  0  0  0  0  0  0  0  0  0  0  0
   -0.0446   -1.5299   -0.6203 H   0  0  0  0  0  0  0  0  0  0  0  0
  1  2  2  0
  2  3  2  0
  2  4  1  0
  4  5  1  0
  5  6  2  0
  6  7  1  0
  7  8  2  0
  8  9  1  0
  2 10  1  0
 10 11  2  0
 11 12  1  0
 12 13  1  0
 12 14  2  0
 14 15  1  0
 15 16  1  0
 16 17  1  0
 17 18  1  0
 18 19  1  0
 19 20  1  0
 20 21  1  0
 21 22  1  0
 14 23  1  0
 23 24  2  0
 24 25  1  0
  9  5  1  0
 24 10  1  0
 22 17  1  0
  4 26  1  0
  7 27  1  0
  8 28  1  0
 11 29  1  0
 15 30  1  0
 16 31  1  0
 16 32  1  0
 17 33  1  1
 18 34  1  0
 18 35  1  0
 19 36  1  0
 19 37  1  0
 20 38  1  0
 20 39  1  0
 21 40  1  0
 22 41  1  0
 22 42  1  0
 23 43  1  0
M  END
$$$$
