@<TRIPOS>MOLECULE
*****
 44 47 0 0 0
SMALL
GASTEIGER

@<TRIPOS>ATOM
      1 O          -0.9620    1.4393    0.5658 O.2     1  UNL1       -0.2683
      2 C          -1.2748    0.2728    0.2138 C.2     1  UNL1        0.2672
      3 N          -0.2589   -0.6353   -0.0636 N.am    1  UNL1       -0.2803
      4 C           1.1297   -0.4098    0.0009 C.ar    1  UNL1        0.0337
      5 C           1.7342    0.7654    0.3548 C.ar    1  UNL1       -0.0399
      6 C           3.1335    0.9203    0.3978 C.ar    1  UNL1       -0.0522
      7 C           3.9638   -0.1123    0.0832 C.ar    1  UNL1       -0.0163
      8 C           5.4097   -0.0163    0.1058 C.ar    1  UNL1        0.0019
      9 C           6.2190   -0.9687    0.6848 C.ar    1  UNL1       -0.0525
     10 C           7.5854   -0.8772    0.7087 C.ar    1  UNL1       -0.0597
     11 C           8.1888    0.2098    0.1320 C.ar    1  UNL1       -0.0419
     12 C           7.4038    1.1940   -0.4636 C.ar    1  UNL1        0.0598
     13 CL          8.1763    2.5616   -1.1884 Cl      1  UNL1       -0.0820
     14 C           6.0258    1.0733   -0.4718 C.ar    1  UNL1        0.0669
     15 CL          5.1184    2.3422   -1.2380 Cl      1  UNL1       -0.0814
     16 C           3.3893   -1.3061   -0.2764 C.ar    1  UNL1       -0.0522
     17 C           2.0262   -1.4492   -0.3160 C.ar    1  UNL1       -0.0399
     18 C          -2.6963   -0.1148    0.1004 C.2     1  UNL1        0.1520
     19 C          -3.5665    0.8211    0.3858 C.2     1  UNL1        0.1532
     20 O          -3.1323    2.1044    0.7728 O.2     1  UNL1       -0.5040
     21 C          -4.9870    0.6107    0.3260 C.ar    1  UNL1        0.0451
     22 C          -5.8532    1.6659    0.6475 C.ar    1  UNL1       -0.0491
     23 C          -7.2200    1.5602    0.6192 C.ar    1  UNL1       -0.0610
     24 C          -7.8021    0.3617    0.2582 C.ar    1  UNL1       -0.0599
     25 C          -6.9675   -0.6722   -0.0568 C.ar    1  UNL1       -0.0344
     26 C          -5.6173   -0.5534   -0.0244 C.ar    1  UNL1        0.1191
     27 S          -4.6530   -1.9195   -0.4403 S.O2    1  UNL1        0.0733
     28 O          -4.8535   -2.3864   -1.8496 O.2     1  UNL1       -0.1499
     29 O          -4.9358   -3.0155    0.5568 O.2     1  UNL1       -0.1499
     30 N          -2.9931   -1.4281   -0.2961 N.pl3   1  UNL1       -0.2079
     31 H          -0.5195   -1.6307   -0.3640 H       1  UNL1        0.1552
     32 H           1.1302    1.6234    0.6159 H       1  UNL1        0.0636
     33 H           3.5310    1.8773    0.6881 H       1  UNL1        0.0624
     34 H           5.7657   -1.8305    1.1435 H       1  UNL1        0.0624
     35 H           8.2331   -1.6196    1.1610 H       1  UNL1        0.0618
     36 H           9.2600    0.3112    0.1341 H       1  UNL1        0.0633
     37 H           4.0372   -2.1513   -0.5338 H       1  UNL1        0.0624
     38 H           1.6364   -2.3928   -0.6003 H       1  UNL1        0.0636
     39 H          -2.8470    2.2168    1.7284 H       1  UNL1        0.2923
     40 H          -5.4390    2.6397    0.9409 H       1  UNL1        0.0625
     41 H          -7.8659    2.3992    0.8747 H       1  UNL1        0.0618
     42 H          -8.8857    0.2911    0.2398 H       1  UNL1        0.0618
     43 H          -7.4509   -1.6171   -0.3413 H       1  UNL1        0.0637
     44 H          -2.3158   -2.1548   -0.5177 H       1  UNL1        0.1740
@<TRIPOS>BOND
     1     1     2    2
     2     2     3   am
     3     3     4    1
     4     4     5   ar
     5     5     6   ar
     6     6     7   ar
     7     7     8    1
     8     8     9   ar
     9     9    10   ar
    10    10    11   ar
    11    11    12   ar
    12    12    13    1
    13    12    14   ar
    14    14    15    1
    15     7    16   ar
    16    16    17   ar
    17     2    18    1
    18    18    19    2
    19    19    20    1
    20    19    21    1
    21    21    22   ar
    22    22    23   ar
    23    23    24   ar
    24    24    25   ar
    25    25    26   ar
    26    26    27    1
    27    27    28    2
    28    27    29    2
    29    27    30    1
    30    17     4   ar
    31    30    18    1
    32    14     8   ar
    33    26    21   ar
    34     3    31    1
    35     5    32    1
    36     6    33    1
    37     9    34    1
    38    10    35    1
    39    11    36    1
    40    16    37    1
    41    17    38    1
    42    20    39    1
    43    22    40    1
    44    23    41    1
    45    24    42    1
    46    25    43    1
    47    30    44    1
