
     RDKit          3D

 44 47  0  0  0  0  0  0  0  0999 V2000
   -0.9620    1.4393    0.5658 O   0  0  0  0  0  0  0  0  0  0  0  0
   -1.2748    0.2728    0.2138 C   0  0  0  0  0  0  0  0  0  0  0  0
   -0.2589   -0.6353   -0.0636 N   0  0  0  0  0  0  0  0  0  0  0  0
    1.1297   -0.4098    0.0009 C   0  0  0  0  0  0  0  0  0  0  0  0
    1.7342    0.7654    0.3548 C   0  0  0  0  0  0  0  0  0  0  0  0
    3.1335    0.9203    0.3978 C   0  0  0  0  0  0  0  0  0  0  0  0
    3.9638   -0.1123    0.0832 C   0  0  0  0  0  0  0  0  0  0  0  0
    5.4097   -0.0163    0.1058 C   0  0  0  0  0  0  0  0  0  0  0  0
    6.2190   -0.9687    0.6848 C   0  0  0  0  0  0  0  0  0  0  0  0
    7.5854   -0.8772    0.7087 C   0  0  0  0  0  0  0  0  0  0  0  0
    8.1888    0.2098    0.1320 C   0  0  0  0  0  0  0  0  0  0  0  0
    7.4038    1.1940   -0.4636 C   0  0  0  0  0  0  0  0  0  0  0  0
    8.1763    2.5616   -1.1884 Cl  0  0  0  0  0  0  0  0  0  0  0  0
    6.0258    1.0733   -0.4718 C   0  0  0  0  0  0  0  0  0  0  0  0
    5.1184    2.3422   -1.2380 Cl  0  0  0  0  0  0  0  0  0  0  0  0
    3.3893   -1.3061   -0.2764 C   0  0  0  0  0  0  0  0  0  0  0  0
    2.0262   -1.4492   -0.3160 C   0  0  0  0  0  0  0  0  0  0  0  0
   -2.6963   -0.1148    0.1004 C   0  0  0  0  0  0  0  0  0  0  0  0
   -3.5665    0.8211    0.3858 C   0  0  0  0  0  0  0  0  0  0  0  0
   -3.1323    2.1044    0.7728 O   0  0  0  0  0  0  0  0  0  0  0  0
   -4.9870    0.6107    0.3260 C   0  0  0  0  0  0  0  0  0  0  0  0
   -5.8532    1.6659    0.6475 C   0  0  0  0  0  0  0  0  0  0  0  0
   -7.2200    1.5602    0.6192 C   0  0  0  0  0  0  0  0  0  0  0  0
   -7.8021    0.3617    0.2582 C   0  0  0  0  0  0  0  0  0  0  0  0
   -6.9675   -0.6722   -0.0568 C   0  0  0  0  0  0  0  0  0  0  0  0
   -5.6173   -0.5534   -0.0244 C   0  0  0  0  0  0  0  0  0  0  0  0
   -4.6530   -1.9195   -0.4403 S   0  0  0  0  0  6  0  0  0  0  0  0
   -4.8535   -2.3864   -1.8496 O   0  0  0  0  0  0  0  0  0  0  0  0
   -4.9358   -3.0155    0.5568 O   0  0  0  0  0  0  0  0  0  0  0  0
   -2.9931   -1.4281   -0.2961 N   0  0  0  0  0  0  0  0  0  0  0  0
   -0.5195   -1.6307   -0.3640 H   0  0  0  0  0  0  0  0  0  0  0  0
    1.1302    1.6234    0.6159 H   0  0  0  0  0  0  0  0  0  0  0  0
    3.5310    1.8773    0.6881 H   0  0  0  0  0  0  0  0  0  0  0  0
    5.7657   -1.8305    1.1435 H   0  0  0  0  0  0  0  0  0  0  0  0
    8.2331   -1.6196    1.1610 H   0  0  0  0  0  0  0  0  0  0  0  0
    9.2600    0.3112    0.1341 H   0  0  0  0  0  0  0  0  0  0  0  0
    4.0372   -2.1513   -0.5338 H   0  0  0  0  0  0  0  0  0  0  0  0
    1.6364   -2.3928   -0.6003 H   0  0  0  0  0  0  0  0  0  0  0  0
   -2.8470    2.2168    1.7284 H   0  0  0  0  0  0  0  0  0  0  0  0
   -5.4390    2.6397    0.9409 H   0  0  0  0  0  0  0  0  0  0  0  0
   -7.8659    2.3992    0.8747 H   0  0  0  0  0  0  0  0  0  0  0  0
   -8.8857    0.2911    0.2398 H   0  0  0  0  0  0  0  0  0  0  0  0
   -7.4509   -1.6171   -0.3413 H   0  0  0  0  0  0  0  0  0  0  0  0
   -2.3158   -2.1548   -0.5177 H   0  0  0  0  0  0  0  0  0  0  0  0
  1  2  2  0
  2  3  1  0
  3  4  1  0
  4  5  2  0
  5  6  1  0
  6  7  2  0
  7  8  1  0
  8  9  2  0
  9 10  1  0
 10 11  2  0
 11 12  1  0
 12 13  1  0
 12 14  2  0
 14 15  1  0
  7 16  1  0
 16 17  2  0
  2 18  1  0
 18 19  2  0
 19 20  1  0
 19 21  1  0
 21 22  2  0
 22 23  1  0
 23 24  2  0
 24 25  1  0
 25 26  2  0
 26 27  1  0
 27 28  2  0
 27 29  2  0
 27 30  1  0
 17  4  1  0
 30 18  1  0
 14  8  1  0
 26 21  1  0
  3 31  1  0
  5 32  1  0
  6 33  1  0
  9 34  1  0
 10 35  1  0
 11 36  1  0
 16 37  1  0
 17 38  1  0
 20 39  1  0
 22 40  1  0
 23 41  1  0
 24 42  1  0
 25 43  1  0
 30 44  1  0
M  END
$$$$
