
     RDKit          3D

 48 49  0  0  0  0  0  0  0  0999 V2000
   -2.9584    0.5019    0.0084 C   0  0  2  0  0  0  0  0  0  0  0  0
   -1.9777   -0.4662    0.1980 N   0  0  0  0  0  0  0  0  0  0  0  0
   -1.9283   -1.1196    1.4599 C   0  0  0  0  0  0  0  0  0  0  0  0
   -3.2157   -1.8397    1.7878 C   0  0  0  0  0  0  0  0  0  0  0  0
   -4.1483   -1.8815    0.2010 S   0  0  0  0  0  0  0  0  0  0  0  0
   -4.3083   -0.1296   -0.2526 C   0  0  0  0  0  0  0  0  0  0  0  0
   -5.3936    0.4753    0.6136 C   0  0  0  0  0  0  0  0  0  0  0  0
   -4.6933   -0.1042   -1.7171 C   0  0  0  0  0  0  0  0  0  0  0  0
   -0.9550   -0.9713   -0.9895 S   0  0  0  0  0  0  0  0  0  0  0  0
   -1.4459   -0.4940   -2.3486 O   0  0  0  0  0  0  0  0  0  0  0  0
   -1.0036   -2.4922   -1.1039 O   0  0  0  0  0  0  0  0  0  0  0  0
    0.7332   -0.5411   -0.8152 C   0  0  0  0  0  0  0  0  0  0  0  0
    1.4016    0.5629   -1.3003 C   0  0  0  0  0  0  0  0  0  0  0  0
    2.7412    0.7328   -1.0560 C   0  0  0  0  0  0  0  0  0  0  0  0
    3.4957   -0.1631   -0.3278 C   0  0  0  0  0  0  0  0  0  0  0  0
    4.8451    0.1143   -0.1450 O   0  0  0  0  0  0  0  0  0  0  0  0
    5.5928   -0.8254    0.6073 C   0  0  0  0  0  0  0  0  0  0  0  0
    6.9734   -0.2999    0.6508 C   0  0  0  0  0  0  0  0  0  0  0  0
    8.1023    0.1324    0.6810 C   0  0  0  0  0  0  0  0  0  0  0  0
    9.4713    0.6500    0.7301 C   0  0  0  0  0  0  0  0  0  0  0  0
    2.8804   -1.2782    0.1775 C   0  0  0  0  0  0  0  0  0  0  0  0
    1.5338   -1.4267   -0.0814 C   0  0  0  0  0  0  0  0  0  0  0  0
   -2.6263    1.5457   -0.9784 C   0  0  0  0  0  0  0  0  0  0  0  0
   -1.8327    2.0494   -1.8236 O   0  0  0  0  0  0  0  0  0  0  0  0
   -3.7293    2.4763   -1.0427 N   0  0  0  0  0  0  0  0  0  0  0  0
   -3.7893    3.5822   -1.8484 O   0  0  0  0  0  0  0  0  0  0  0  0
   -3.0869    1.0569    0.9885 H   0  0  0  0  0  0  0  0  0  0  0  0
   -1.1245   -1.8832    1.4020 H   0  0  0  0  0  0  0  0  0  0  0  0
   -1.6788   -0.4814    2.3283 H   0  0  0  0  0  0  0  0  0  0  0  0
   -3.7741   -1.2198    2.5195 H   0  0  0  0  0  0  0  0  0  0  0  0
   -2.9836   -2.8385    2.1529 H   0  0  0  0  0  0  0  0  0  0  0  0
   -5.0400    1.2253    1.3228 H   0  0  0  0  0  0  0  0  0  0  0  0
   -6.1992    0.8447   -0.0520 H   0  0  0  0  0  0  0  0  0  0  0  0
   -5.8897   -0.3191    1.2383 H   0  0  0  0  0  0  0  0  0  0  0  0
   -4.7179   -1.1088   -2.1869 H   0  0  0  0  0  0  0  0  0  0  0  0
   -4.0081    0.4956   -2.3218 H   0  0  0  0  0  0  0  0  0  0  0  0
   -5.7529    0.2701   -1.8328 H   0  0  0  0  0  0  0  0  0  0  0  0
    0.7700    1.2340   -1.8649 H   0  0  0  0  0  0  0  0  0  0  0  0
    3.1966    1.6393   -1.4784 H   0  0  0  0  0  0  0  0  0  0  0  0
    5.1537   -0.8118    1.6324 H   0  0  0  0  0  0  0  0  0  0  0  0
    5.5599   -1.8180    0.1269 H   0  0  0  0  0  0  0  0  0  0  0  0
    9.8317    0.5538    1.7538 H   0  0  0  0  0  0  0  0  0  0  0  0
    9.5109    1.6737    0.3039 H   0  0  0  0  0  0  0  0  0  0  0  0
   10.1549    0.0453    0.0660 H   0  0  0  0  0  0  0  0  0  0  0  0
    3.4269   -1.9904    0.7427 H   0  0  0  0  0  0  0  0  0  0  0  0
    1.0852   -2.3375    0.3452 H   0  0  0  0  0  0  0  0  0  0  0  0
   -4.6840    2.6146   -0.5907 H   0  0  0  0  0  0  0  0  0  0  0  0
   -3.5152    4.3647   -1.3106 H   0  0  0  0  0  0  0  0  0  0  0  0
  1  2  1  0
  2  3  1  0
  3  4  1  0
  4  5  1  0
  5  6  1  0
  6  7  1  0
  6  8  1  0
  2  9  1  0
  9 10  2  0
  9 11  2  0
  9 12  1  0
 12 13  2  0
 13 14  1  0
 14 15  2  0
 15 16  1  0
 16 17  1  0
 17 18  1  0
 18 19  3  0
 19 20  1  0
 15 21  1  0
 21 22  2  0
  1 23  1  0
 23 24  2  0
 23 25  1  0
 25 26  1  0
  6  1  1  0
 22 12  1  0
  1 27  1  1
  3 28  1  0
  3 29  1  0
  4 30  1  0
  4 31  1  0
  7 32  1  0
  7 33  1  0
  7 34  1  0
  8 35  1  0
  8 36  1  0
  8 37  1  0
 13 38  1  0
 14 39  1  0
 17 40  1  0
 17 41  1  0
 20 42  1  0
 20 43  1  0
 20 44  1  0
 21 45  1  0
 22 46  1  0
 25 47  1  0
 26 48  1  0
M  END
$$$$
