@<TRIPOS>MOLECULE
*****
 48 49 0 0 0
SMALL
GASTEIGER

@<TRIPOS>ATOM
      1 C          -2.9584    0.5019    0.0084 C.3     1  UNL1        0.1237
      2 N          -1.9777   -0.4662    0.1980 N.3     1  UNL1       -0.1626
      3 C          -1.9283   -1.1196    1.4599 C.3     1  UNL1        0.0304
      4 C          -3.2157   -1.8397    1.7878 C.3     1  UNL1        0.0087
      5 S          -4.1483   -1.8815    0.2010 S.3     1  UNL1       -0.1511
      6 C          -4.3083   -0.1296   -0.2526 C.3     1  UNL1        0.0367
      7 C          -5.3936    0.4753    0.6136 C.3     1  UNL1       -0.0487
      8 C          -4.6933   -0.1042   -1.7171 C.3     1  UNL1       -0.0487
      9 S          -0.9550   -0.9713   -0.9895 S.O2    1  UNL1        0.0616
     10 O          -1.4459   -0.4940   -2.3486 O.2     1  UNL1       -0.1528
     11 O          -1.0036   -2.4922   -1.1039 O.2     1  UNL1       -0.1528
     12 C           0.7332   -0.5411   -0.8152 C.ar    1  UNL1        0.1057
     13 C           1.4016    0.5629   -1.3003 C.ar    1  UNL1       -0.0319
     14 C           2.7412    0.7328   -1.0560 C.ar    1  UNL1       -0.0180
     15 C           3.4957   -0.1631   -0.3278 C.ar    1  UNL1        0.1220
     16 O           4.8451    0.1143   -0.1450 O.3     1  UNL1       -0.4795
     17 C           5.5928   -0.8254    0.6073 C.3     1  UNL1        0.1499
     18 C           6.9734   -0.2999    0.6508 C.1     1  UNL1       -0.0617
     19 C           8.1023    0.1324    0.6810 C.1     1  UNL1       -0.1022
     20 C           9.4713    0.6500    0.7301 C.3     1  UNL1       -0.0025
     21 C           2.8804   -1.2782    0.1775 C.ar    1  UNL1       -0.0180
     22 C           1.5338   -1.4267   -0.0814 C.ar    1  UNL1       -0.0319
     23 C          -2.6263    1.5457   -0.9784 C.2     1  UNL1        0.2557
     24 O          -1.8327    2.0494   -1.8236 O.2     1  UNL1       -0.2719
     25 N          -3.7293    2.4763   -1.0427 N.am    1  UNL1       -0.1961
     26 O          -3.7893    3.5822   -1.8484 O.3     1  UNL1       -0.2951
     27 H          -3.0869    1.0569    0.9885 H       1  UNL1        0.0590
     28 H          -1.1245   -1.8832    1.4020 H       1  UNL1        0.0452
     29 H          -1.6788   -0.4814    2.3283 H       1  UNL1        0.0452
     30 H          -3.7741   -1.2198    2.5195 H       1  UNL1        0.0389
     31 H          -2.9836   -2.8385    2.1529 H       1  UNL1        0.0389
     32 H          -5.0400    1.2253    1.3228 H       1  UNL1        0.0244
     33 H          -6.1992    0.8447   -0.0520 H       1  UNL1        0.0244
     34 H          -5.8897   -0.3191    1.2383 H       1  UNL1        0.0244
     35 H          -4.7179   -1.1088   -2.1869 H       1  UNL1        0.0244
     36 H          -4.0081    0.4956   -2.3218 H       1  UNL1        0.0244
     37 H          -5.7529    0.2701   -1.8328 H       1  UNL1        0.0244
     38 H           0.7700    1.2340   -1.8649 H       1  UNL1        0.0638
     39 H           3.1966    1.6393   -1.4784 H       1  UNL1        0.0655
     40 H           5.1537   -0.8118    1.6324 H       1  UNL1        0.0837
     41 H           5.5599   -1.8180    0.1269 H       1  UNL1        0.0837
     42 H           9.8317    0.5538    1.7538 H       1  UNL1        0.0362
     43 H           9.5109    1.6737    0.3039 H       1  UNL1        0.0362
     44 H          10.1549    0.0453    0.0660 H       1  UNL1        0.0362
     45 H           3.4269   -1.9904    0.7427 H       1  UNL1        0.0655
     46 H           1.0852   -2.3375    0.3452 H       1  UNL1        0.0638
     47 H          -4.6840    2.6146   -0.5907 H       1  UNL1        0.1822
     48 H          -3.5152    4.3647   -1.3106 H       1  UNL1        0.2414
@<TRIPOS>BOND
     1     1     2    1
     2     2     3    1
     3     3     4    1
     4     4     5    1
     5     5     6    1
     6     6     7    1
     7     6     8    1
     8     2     9    1
     9     9    10    2
    10     9    11    2
    11     9    12    1
    12    12    13   ar
    13    13    14   ar
    14    14    15   ar
    15    15    16    1
    16    16    17    1
    17    17    18    1
    18    18    19    3
    19    19    20    1
    20    15    21   ar
    21    21    22   ar
    22     1    23    1
    23    23    24    2
    24    23    25   am
    25    25    26    1
    26     6     1    1
    27    22    12   ar
    28     1    27    1
    29     3    28    1
    30     3    29    1
    31     4    30    1
    32     4    31    1
    33     7    32    1
    34     7    33    1
    35     7    34    1
    36     8    35    1
    37     8    36    1
    38     8    37    1
    39    13    38    1
    40    14    39    1
    41    17    40    1
    42    17    41    1
    43    20    42    1
    44    20    43    1
    45    20    44    1
    46    21    45    1
    47    22    46    1
    48    25    47    1
    49    26    48    1
