@<TRIPOS>MOLECULE
*****
 73 77 0 0 0
SMALL
GASTEIGER

@<TRIPOS>ATOM
      1 C          -8.8303    3.0626    2.2825 C.3     1  UNL1        0.0805
      2 O          -8.0033    1.9342    2.0682 O.3     1  UNL1       -0.4774
      3 C          -7.7215    1.4982    0.7721 C.ar    1  UNL1        0.2552
      4 N          -8.1391    2.0132   -0.4044 N.ar    1  UNL1       -0.1317
      5 N          -7.6678    1.3324   -1.4303 N.ar    1  UNL1       -0.2692
      6 C          -7.8822    1.5591   -2.8509 C.3     1  UNL1        0.0304
      7 C          -6.9121    0.3324   -0.9060 C.ar    1  UNL1        0.0503
      8 C          -6.9296    0.4140    0.4668 C.ar    1  UNL1        0.1152
      9 N          -6.2763   -0.4383    1.3927 N.pl3   1  UNL1       -0.2782
     10 C          -5.4779   -1.5209    0.8700 C.ar    1  UNL1        0.2202
     11 N          -6.0347   -2.7043    0.5807 N.ar    1  UNL1       -0.2224
     12 C          -5.3682   -3.7593    0.0933 C.ar    1  UNL1        0.0361
     13 C          -3.9951   -3.5807   -0.1177 C.ar    1  UNL1       -0.0062
     14 C          -3.1549   -4.6818   -0.6549 C.3     1  UNL1       -0.0362
     15 C          -3.3797   -2.3788    0.1666 C.ar    1  UNL1        0.0809
     16 C          -1.9486   -2.2394   -0.0577 C.ar    1  UNL1        0.0258
     17 C          -1.1824   -2.4354   -1.1857 C.ar    1  UNL1        0.0120
     18 N           0.1149   -2.1792   -0.9053 N.ar    1  UNL1       -0.3586
     19 C           0.2229   -1.8210    0.3730 C.ar    1  UNL1        0.0686
     20 C           1.3270   -1.4763    1.1013 C.ar    1  UNL1        0.0576
     21 N           2.6417   -1.4299    0.6049 N.am    1  UNL1       -0.2825
     22 C           3.1322   -0.2131    0.0750 C.2     1  UNL1        0.2342
     23 O           2.3647    0.7736    0.0742 O.2     1  UNL1       -0.2738
     24 C           4.5057   -0.0900   -0.4657 C.3     1  UNL1        0.0848
     25 C           4.5811   -1.0055   -1.6660 C.3     1  UNL1       -0.0409
     26 N           4.7894    1.2641   -0.7462 N.3     1  UNL1       -0.2890
     27 C           4.8657    2.0385    0.4450 C.3     1  UNL1        0.0124
     28 C           6.1269    1.7457    1.2505 C.3     1  UNL1        0.0117
     29 N           7.2523    1.9953    0.4150 N.3     1  UNL1       -0.3002
     30 C           7.7888    3.3048    0.5238 C.3     1  UNL1       -0.0124
     31 C           7.2410    1.3958   -0.8683 C.3     1  UNL1        0.0201
     32 C           8.3178    1.9790   -1.7460 C.3     1  UNL1       -0.0483
     33 C           5.9241    1.5042   -1.5921 C.3     1  UNL1        0.0150
     34 C           1.1440   -1.1461    2.4429 C.ar    1  UNL1       -0.0384
     35 C          -0.1062   -1.1717    2.9945 C.ar    1  UNL1       -0.0593
     36 C          -1.1972   -1.5203    2.2453 C.ar    1  UNL1       -0.0518
     37 C          -1.0394   -1.8489    0.9238 C.ar    1  UNL1        0.0107
     38 N          -4.1544   -1.3930    0.6520 N.ar    1  UNL1       -0.2139
     39 H          -8.6854    3.4130    3.3228 H       1  UNL1        0.0660
     40 H          -8.5174    3.8721    1.5941 H       1  UNL1        0.0660
     41 H          -9.9050    2.8161    2.1786 H       1  UNL1        0.0660
     42 H          -7.0495    2.1887   -3.2193 H       1  UNL1        0.0473
     43 H          -7.8209    0.5856   -3.3845 H       1  UNL1        0.0473
     44 H          -8.8734    2.0259   -2.9835 H       1  UNL1        0.0473
     45 H          -6.3880   -0.4005   -1.5006 H       1  UNL1        0.0846
     46 H          -6.3802   -0.2730    2.4172 H       1  UNL1        0.1552
     47 H          -5.8330   -4.7085   -0.1347 H       1  UNL1        0.0834
     48 H          -2.1182   -4.5791   -0.2685 H       1  UNL1        0.0279
     49 H          -3.0584   -4.6246   -1.7763 H       1  UNL1        0.0279
     50 H          -3.5526   -5.6752   -0.4353 H       1  UNL1        0.0279
     51 H          -1.6097   -2.7500   -2.1371 H       1  UNL1        0.0814
     52 H           0.8873   -2.2569   -1.5976 H       1  UNL1        0.1654
     53 H           3.2283   -2.3018    0.6404 H       1  UNL1        0.1549
     54 H           5.2355   -0.4294    0.3211 H       1  UNL1        0.0556
     55 H           3.8758   -0.6180   -2.4229 H       1  UNL1        0.0249
     56 H           5.5878   -1.2082   -2.0262 H       1  UNL1        0.0249
     57 H           4.1522   -1.9960   -1.3305 H       1  UNL1        0.0249
     58 H           4.0339    1.8947    1.1424 H       1  UNL1        0.0439
     59 H           4.8945    3.1207    0.2024 H       1  UNL1        0.0439
     60 H           6.1425    2.4887    2.0750 H       1  UNL1        0.0439
     61 H           6.1079    0.7558    1.7303 H       1  UNL1        0.0439
     62 H           7.0997    4.0257    1.0465 H       1  UNL1        0.0391
     63 H           8.7093    3.2865    1.1797 H       1  UNL1        0.0391
     64 H           8.0761    3.7905   -0.4059 H       1  UNL1        0.0391
     65 H           7.5095    0.3067   -0.7338 H       1  UNL1        0.0472
     66 H           8.7036    1.1805   -2.4471 H       1  UNL1        0.0245
     67 H           7.9594    2.7935   -2.4068 H       1  UNL1        0.0245
     68 H           9.2192    2.2788   -1.1598 H       1  UNL1        0.0245
     69 H           5.8436    2.5467   -1.9747 H       1  UNL1        0.0442
     70 H           5.9667    0.8448   -2.4709 H       1  UNL1        0.0442
     71 H           2.0128   -0.8665    3.0481 H       1  UNL1        0.0637
     72 H          -0.2059   -0.9088    4.0369 H       1  UNL1        0.0618
     73 H          -2.1875   -1.5458    2.6636 H       1  UNL1        0.0624
@<TRIPOS>BOND
     1     1     2    1
     2     2     3    1
     3     3     4   ar
     4     4     5   ar
     5     5     6    1
     6     5     7   ar
     7     7     8   ar
     8     8     9    1
     9     9    10    1
    10    10    11   ar
    11    11    12   ar
    12    12    13   ar
    13    13    14    1
    14    13    15   ar
    15    15    16    1
    16    16    17   ar
    17    17    18   ar
    18    18    19   ar
    19    19    20   ar
    20    20    21    1
    21    21    22   am
    22    22    23    2
    23    22    24    1
    24    24    25    1
    25    24    26    1
    26    26    27    1
    27    27    28    1
    28    28    29    1
    29    29    30    1
    30    29    31    1
    31    31    32    1
    32    31    33    1
    33    20    34   ar
    34    34    35   ar
    35    35    36   ar
    36    36    37   ar
    37    15    38   ar
    38     8     3   ar
    39    38    10   ar
    40    37    16   ar
    41    37    19   ar
    42    33    26    1
    43     1    39    1
    44     1    40    1
    45     1    41    1
    46     6    42    1
    47     6    43    1
    48     6    44    1
    49     7    45    1
    50     9    46    1
    51    12    47    1
    52    14    48    1
    53    14    49    1
    54    14    50    1
    55    17    51    1
    56    18    52    1
    57    21    53    1
    58    24    54    1
    59    25    55    1
    60    25    56    1
    61    25    57    1
    62    27    58    1
    63    27    59    1
    64    28    60    1
    65    28    61    1
    66    30    62    1
    67    30    63    1
    68    30    64    1
    69    31    65    1
    70    32    66    1
    71    32    67    1
    72    32    68    1
    73    33    69    1
    74    33    70    1
    75    34    71    1
    76    35    72    1
    77    36    73    1
