@<TRIPOS>MOLECULE
*****
 37 40 0 0 0
SMALL
GASTEIGER

@<TRIPOS>ATOM
      1 O           5.1526   -1.8339    1.7087 O.2     1  UNL1       -0.4086
      2 N           3.8174   -2.1890    1.5694 N.2     1  UNL1       -0.0817
      3 C           3.0516   -1.4608    0.8284 C.2     1  UNL1        0.1733
      4 C           1.6134   -1.6804    0.5627 C.2     1  UNL1        0.2733
      5 O           0.9981   -2.6519    1.0760 O.2     1  UNL1       -0.2678
      6 N           1.1055   -0.6650   -0.3128 N.am    1  UNL1       -0.2610
      7 C          -0.2519   -0.6578   -0.7326 C.3     1  UNL1        0.0487
      8 C          -1.1949    0.0829    0.0917 C.ar    1  UNL1        0.0151
      9 C          -2.5417   -0.2668   -0.0691 C.ar    1  UNL1        0.1338
     10 O          -2.9031   -1.2877   -0.9689 O.3     1  UNL1       -0.4655
     11 C          -4.2816   -1.3881   -1.3606 C.3     1  UNL1        0.1911
     12 O          -5.0651   -1.3276   -0.2108 O.3     1  UNL1       -0.3392
     13 C          -5.0117   -0.0806    0.3972 C.3     1  UNL1        0.0799
     14 C          -3.5974    0.2962    0.5796 C.ar    1  UNL1        0.0230
     15 C          -3.3478    1.3011    1.4801 C.ar    1  UNL1       -0.0176
     16 C          -2.0475    1.6946    1.6866 C.ar    1  UNL1        0.1243
     17 F          -1.7531    2.6800    2.5614 F       1  UNL1       -0.2055
     18 C          -0.9822    1.0978    1.0054 C.ar    1  UNL1       -0.0183
     19 C           2.2176    0.1749   -0.5863 C.ar    1  UNL1        0.0466
     20 C           2.2365    1.3185   -1.3957 C.ar    1  UNL1       -0.0369
     21 C           3.4307    1.9882   -1.5216 C.ar    1  UNL1       -0.0247
     22 C           4.5527    1.5565   -0.8834 C.ar    1  UNL1        0.1241
     23 F           5.7328    2.2240   -1.0160 F       1  UNL1       -0.2055
     24 C           4.5693    0.4414   -0.0837 C.ar    1  UNL1       -0.0152
     25 C           3.3662   -0.2528    0.0570 C.ar    1  UNL1        0.0328
     26 H           5.8952   -2.4713    1.4265 H       1  UNL1        0.3278
     27 H          -0.6584   -1.7051   -0.8682 H       1  UNL1        0.0519
     28 H          -0.3124   -0.2442   -1.7847 H       1  UNL1        0.0519
     29 H          -4.3840   -2.4063   -1.7861 H       1  UNL1        0.1017
     30 H          -4.5278   -0.5802   -2.0851 H       1  UNL1        0.1017
     31 H          -5.5859   -0.1766    1.3412 H       1  UNL1        0.0612
     32 H          -5.5194    0.6795   -0.2551 H       1  UNL1        0.0612
     33 H          -4.1233    1.8028    2.0384 H       1  UNL1        0.0651
     34 H           0.0697    1.3627    1.1231 H       1  UNL1        0.0650
     35 H           1.3354    1.6511   -1.8952 H       1  UNL1        0.0637
     36 H           3.4963    2.8665   -2.1286 H       1  UNL1        0.0647
     37 H           5.4484    0.1073    0.4111 H       1  UNL1        0.0653
@<TRIPOS>BOND
     1     1     2    1
     2     2     3    2
     3     3     4    1
     4     4     5    2
     5     4     6   am
     6     6     7    1
     7     7     8    1
     8     8     9   ar
     9     9    10    1
    10    10    11    1
    11    11    12    1
    12    12    13    1
    13    13    14    1
    14    14    15   ar
    15    15    16   ar
    16    16    17    1
    17    16    18   ar
    18     6    19    1
    19    19    20   ar
    20    20    21   ar
    21    21    22   ar
    22    22    23    1
    23    22    24   ar
    24    24    25   ar
    25    25     3    1
    26    18     8   ar
    27    25    19   ar
    28    14     9   ar
    29     1    26    1
    30     7    27    1
    31     7    28    1
    32    11    29    1
    33    11    30    1
    34    13    31    1
    35    13    32    1
    36    15    33    1
    37    18    34    1
    38    20    35    1
    39    21    36    1
    40    24    37    1
