
     RDKit          3D

 37 40  0  0  0  0  0  0  0  0999 V2000
    5.1526   -1.8339    1.7087 O   0  0  0  0  0  0  0  0  0  0  0  0
    3.8174   -2.1890    1.5694 N   0  0  0  0  0  0  0  0  0  0  0  0
    3.0516   -1.4608    0.8284 C   0  0  0  0  0  0  0  0  0  0  0  0
    1.6134   -1.6804    0.5627 C   0  0  0  0  0  0  0  0  0  0  0  0
    0.9981   -2.6519    1.0760 O   0  0  0  0  0  0  0  0  0  0  0  0
    1.1055   -0.6650   -0.3128 N   0  0  0  0  0  0  0  0  0  0  0  0
   -0.2519   -0.6578   -0.7326 C   0  0  0  0  0  0  0  0  0  0  0  0
   -1.1949    0.0829    0.0917 C   0  0  0  0  0  0  0  0  0  0  0  0
   -2.5417   -0.2668   -0.0691 C   0  0  0  0  0  0  0  0  0  0  0  0
   -2.9031   -1.2877   -0.9689 O   0  0  0  0  0  0  0  0  0  0  0  0
   -4.2816   -1.3881   -1.3606 C   0  0  0  0  0  0  0  0  0  0  0  0
   -5.0651   -1.3276   -0.2108 O   0  0  0  0  0  0  0  0  0  0  0  0
   -5.0117   -0.0806    0.3972 C   0  0  0  0  0  0  0  0  0  0  0  0
   -3.5974    0.2962    0.5796 C   0  0  0  0  0  0  0  0  0  0  0  0
   -3.3478    1.3011    1.4801 C   0  0  0  0  0  0  0  0  0  0  0  0
   -2.0475    1.6946    1.6866 C   0  0  0  0  0  0  0  0  0  0  0  0
   -1.7531    2.6800    2.5614 F   0  0  0  0  0  0  0  0  0  0  0  0
   -0.9822    1.0978    1.0054 C   0  0  0  0  0  0  0  0  0  0  0  0
    2.2176    0.1749   -0.5863 C   0  0  0  0  0  0  0  0  0  0  0  0
    2.2365    1.3185   -1.3957 C   0  0  0  0  0  0  0  0  0  0  0  0
    3.4307    1.9882   -1.5216 C   0  0  0  0  0  0  0  0  0  0  0  0
    4.5527    1.5565   -0.8834 C   0  0  0  0  0  0  0  0  0  0  0  0
    5.7328    2.2240   -1.0160 F   0  0  0  0  0  0  0  0  0  0  0  0
    4.5693    0.4414   -0.0837 C   0  0  0  0  0  0  0  0  0  0  0  0
    3.3662   -0.2528    0.0570 C   0  0  0  0  0  0  0  0  0  0  0  0
    5.8952   -2.4713    1.4265 H   0  0  0  0  0  0  0  0  0  0  0  0
   -0.6584   -1.7051   -0.8682 H   0  0  0  0  0  0  0  0  0  0  0  0
   -0.3124   -0.2442   -1.7847 H   0  0  0  0  0  0  0  0  0  0  0  0
   -4.3840   -2.4063   -1.7861 H   0  0  0  0  0  0  0  0  0  0  0  0
   -4.5278   -0.5802   -2.0851 H   0  0  0  0  0  0  0  0  0  0  0  0
   -5.5859   -0.1766    1.3412 H   0  0  0  0  0  0  0  0  0  0  0  0
   -5.5194    0.6795   -0.2551 H   0  0  0  0  0  0  0  0  0  0  0  0
   -4.1233    1.8028    2.0384 H   0  0  0  0  0  0  0  0  0  0  0  0
    0.0697    1.3627    1.1231 H   0  0  0  0  0  0  0  0  0  0  0  0
    1.3354    1.6511   -1.8952 H   0  0  0  0  0  0  0  0  0  0  0  0
    3.4963    2.8665   -2.1286 H   0  0  0  0  0  0  0  0  0  0  0  0
    5.4484    0.1073    0.4111 H   0  0  0  0  0  0  0  0  0  0  0  0
  1  2  1  0
  2  3  2  0
  3  4  1  0
  4  5  2  0
  4  6  1  0
  6  7  1  0
  7  8  1  0
  8  9  2  0
  9 10  1  0
 10 11  1  0
 11 12  1  0
 12 13  1  0
 13 14  1  0
 14 15  2  0
 15 16  1  0
 16 17  1  0
 16 18  2  0
  6 19  1  0
 19 20  2  0
 20 21  1  0
 21 22  2  0
 22 23  1  0
 22 24  1  0
 24 25  2  0
 25  3  1  0
 18  8  1  0
 25 19  1  0
 14  9  1  0
  1 26  1  0
  7 27  1  0
  7 28  1  0
 11 29  1  0
 11 30  1  0
 13 31  1  0
 13 32  1  0
 15 33  1  0
 18 34  1  0
 20 35  1  0
 21 36  1  0
 24 37  1  0
M  END
$$$$
