@<TRIPOS>MOLECULE
*****
 63 66 0 0 0
SMALL
GASTEIGER

@<TRIPOS>ATOM
      1 C           0.7834   -2.5241   -0.5505 C.3     1  UNL1       -0.0421
      2 C           1.2231   -1.5405    0.5584 C.3     1  UNL1        0.0515
      3 C           2.4705   -0.9387    0.1077 C.ar    1  UNL1       -0.0271
      4 C           3.6424   -1.2996    0.7754 C.ar    1  UNL1       -0.0562
      5 C           4.8768   -0.8120    0.4311 C.ar    1  UNL1       -0.0536
      6 C           5.0188    0.0763   -0.6131 C.ar    1  UNL1       -0.0151
      7 C           6.3159    0.6062   -0.9956 C.ar    1  UNL1        0.0175
      8 C           7.4300   -0.1931   -1.1105 C.ar    1  UNL1       -0.0486
      9 C           8.6666    0.3288   -1.4778 C.ar    1  UNL1       -0.0257
     10 C           8.8070    1.6696   -1.7377 C.ar    1  UNL1        0.1262
     11 F          10.0007    2.2230   -2.1008 F       1  UNL1       -0.2054
     12 C           7.7065    2.4800   -1.6278 C.ar    1  UNL1        0.0094
     13 C           6.4734    1.9479   -1.2595 C.ar    1  UNL1        0.1338
     14 F           5.4168    2.7638   -1.1604 F       1  UNL1       -0.2048
     15 C           3.8660    0.4462   -1.2882 C.ar    1  UNL1       -0.0536
     16 C           2.6169   -0.0509   -0.9358 C.ar    1  UNL1       -0.0562
     17 N           0.1533   -0.6738    0.9059 N.am    1  UNL1       -0.2605
     18 C          -0.4080    0.3292    0.0612 C.3     1  UNL1        0.0224
     19 C          -1.7324    0.8816    0.5419 C.3     1  UNL1        0.0075
     20 C          -2.5256   -0.1351    1.3001 C.3     1  UNL1        0.1426
     21 C          -2.7973   -1.3798    0.5041 C.3     1  UNL1        0.0058
     22 C          -3.5597   -1.0795   -0.7462 C.3     1  UNL1        0.0224
     23 N          -4.8527   -0.4786   -0.5230 N.3     1  UNL1       -0.1800
     24 S          -5.6483   -0.1683   -2.0468 S.O2    1  UNL1        0.0921
     25 N          -4.7083    0.9388   -2.9756 N.3     1  UNL1       -0.1934
     26 O          -5.8428   -1.4677   -2.7965 O.2     1  UNL1       -0.1415
     27 O          -6.9994    0.4297   -1.8246 O.2     1  UNL1       -0.1415
     28 C          -3.7890    0.4314    1.7787 C.ar    1  UNL1       -0.0039
     29 C          -4.6530   -0.3264    2.5592 C.ar    1  UNL1       -0.0521
     30 C          -5.8531    0.1526    3.0366 C.ar    1  UNL1       -0.0261
     31 C          -6.2383    1.4394    2.7409 C.ar    1  UNL1        0.1234
     32 F          -7.4295    1.9396    3.2049 F       1  UNL1       -0.2055
     33 C          -5.3958    2.2106    1.9670 C.ar    1  UNL1       -0.0261
     34 C          -4.1971    1.7222    1.4942 C.ar    1  UNL1       -0.0521
     35 O          -1.7514   -0.4370    2.4737 O.3     1  UNL1       -0.4388
     36 C          -0.4353   -0.8024    2.2218 C.2     1  UNL1        0.4042
     37 O           0.3076   -1.2681    3.1481 O.2     1  UNL1       -0.2262
     38 H           0.0967   -3.2464   -0.0874 H       1  UNL1        0.0251
     39 H           1.6776   -3.0842   -0.8722 H       1  UNL1        0.0251
     40 H           0.3844   -1.9964   -1.4164 H       1  UNL1        0.0251
     41 H           1.4539   -2.2311    1.4167 H       1  UNL1        0.0549
     42 H           3.6230   -2.0046    1.6225 H       1  UNL1        0.0621
     43 H           5.7717   -1.1031    0.9596 H       1  UNL1        0.0624
     44 H           7.3541   -1.2563   -0.9123 H       1  UNL1        0.0625
     45 H           9.5317   -0.3041   -1.5649 H       1  UNL1        0.0646
     46 H           7.8323    3.5348   -1.8357 H       1  UNL1        0.0675
     47 H           3.9434    1.1480   -2.1201 H       1  UNL1        0.0624
     48 H           1.7487    0.2569   -1.4982 H       1  UNL1        0.0621
     49 H           0.2564    1.2473   -0.0005 H       1  UNL1        0.0467
     50 H          -0.5579    0.0023   -0.9839 H       1  UNL1        0.0467
     51 H          -2.2847    1.2645   -0.3466 H       1  UNL1        0.0322
     52 H          -1.5391    1.7223    1.2553 H       1  UNL1        0.0322
     53 H          -1.9037   -1.9908    0.3426 H       1  UNL1        0.0320
     54 H          -3.4880   -2.0035    1.1463 H       1  UNL1        0.0320
     55 H          -2.9488   -0.5010   -1.4608 H       1  UNL1        0.0443
     56 H          -3.7732   -2.0777   -1.2323 H       1  UNL1        0.0443
     57 H          -5.5053   -1.1738   -0.0460 H       1  UNL1        0.1491
     58 H          -4.7392    1.8628   -2.5164 H       1  UNL1        0.1453
     59 H          -3.7209    0.6167   -3.0039 H       1  UNL1        0.1453
     60 H          -4.4204   -1.3617    2.8405 H       1  UNL1        0.0622
     61 H          -6.5180   -0.4677    3.6520 H       1  UNL1        0.0646
     62 H          -5.6992    3.2301    1.7317 H       1  UNL1        0.0646
     63 H          -3.5341    2.3176    0.8897 H       1  UNL1        0.0622
@<TRIPOS>BOND
     1     1     2    1
     2     2     3    1
     3     3     4   ar
     4     4     5   ar
     5     5     6   ar
     6     6     7    1
     7     7     8   ar
     8     8     9   ar
     9     9    10   ar
    10    10    11    1
    11    10    12   ar
    12    12    13   ar
    13    13    14    1
    14     6    15   ar
    15    15    16   ar
    16     2    17    1
    17    17    18    1
    18    18    19    1
    19    19    20    1
    20    20    21    1
    21    21    22    1
    22    22    23    1
    23    23    24    1
    24    24    25    1
    25    24    26    2
    26    24    27    2
    27    20    28    1
    28    28    29   ar
    29    29    30   ar
    30    30    31   ar
    31    31    32    1
    32    31    33   ar
    33    33    34   ar
    34    20    35    1
    35    35    36    1
    36    36    37    2
    37    16     3   ar
    38    36    17   am
    39    13     7   ar
    40    34    28   ar
    41     1    38    1
    42     1    39    1
    43     1    40    1
    44     2    41    1
    45     4    42    1
    46     5    43    1
    47     8    44    1
    48     9    45    1
    49    12    46    1
    50    15    47    1
    51    16    48    1
    52    18    49    1
    53    18    50    1
    54    19    51    1
    55    19    52    1
    56    21    53    1
    57    21    54    1
    58    22    55    1
    59    22    56    1
    60    23    57    1
    61    25    58    1
    62    25    59    1
    63    29    60    1
    64    30    61    1
    65    33    62    1
    66    34    63    1
