@<TRIPOS>MOLECULE
*****
 37 40 0 0 0
SMALL
GASTEIGER

@<TRIPOS>ATOM
      1 O          -4.4561    2.8067    1.8883 O.2     1  UNL1       -0.2490
      2 C          -3.6464    2.0693    1.2595 C.2     1  UNL1        0.3247
      3 O          -2.3921    1.8586    1.8132 O.3     1  UNL1       -0.4794
      4 C          -3.9641    1.4273   -0.0205 C.3     1  UNL1        0.1202
      5 N          -2.8400    0.6424   -0.5006 N.ar    1  UNL1       -0.3356
      6 C          -1.8420    1.0820   -1.2945 C.ar    1  UNL1        0.0099
      7 C          -0.9447    0.0432   -1.5437 C.ar    1  UNL1       -0.0158
      8 C           0.2849    0.1250   -2.3585 C.3     1  UNL1        0.0233
      9 C           1.5317    0.2383   -1.5317 C.ar    1  UNL1        0.0840
     10 N           2.2235    1.0228   -0.9769 N.ar    1  UNL1       -0.2408
     11 C           3.3209    0.8492   -0.3002 C.ar    1  UNL1        0.1135
     12 C           4.1250    1.7955    0.3495 C.ar    1  UNL1        0.1497
     13 F           3.8253    3.1179    0.3478 F       1  UNL1       -0.2032
     14 C           5.2546    1.4046    1.0155 C.ar    1  UNL1       -0.0243
     15 C           5.6840    0.1073    1.1038 C.ar    1  UNL1       -0.0579
     16 C           4.9056   -0.8482    0.4691 C.ar    1  UNL1       -0.0457
     17 C           3.7583   -0.4634   -0.2090 C.ar    1  UNL1        0.0420
     18 S           2.5111   -1.3412   -1.1323 S.2     1  UNL1       -0.0717
     19 C          -1.4520   -1.0383   -0.8629 C.ar    1  UNL1        0.0034
     20 C          -1.0243   -2.3497   -0.7225 C.ar    1  UNL1       -0.0523
     21 C          -1.7771   -3.2259    0.0490 C.ar    1  UNL1       -0.0611
     22 C          -2.9399   -2.8487    0.6868 C.ar    1  UNL1       -0.0598
     23 C          -3.3558   -1.5461    0.5409 C.ar    1  UNL1       -0.0376
     24 C          -2.6325   -0.6555   -0.2161 C.ar    1  UNL1        0.0498
     25 H          -2.1998    2.0061    2.8001 H       1  UNL1        0.2951
     26 H          -4.2291    2.2412   -0.7420 H       1  UNL1        0.0607
     27 H          -4.8517    0.7680    0.0384 H       1  UNL1        0.0607
     28 H          -1.7178    2.0632   -1.6935 H       1  UNL1        0.0812
     29 H           0.2520    0.9691   -3.0770 H       1  UNL1        0.0383
     30 H           0.3524   -0.7900   -3.0208 H       1  UNL1        0.0383
     31 H           5.8558    2.1922    1.5128 H       1  UNL1        0.0647
     32 H           6.5641   -0.1410    1.6308 H       1  UNL1        0.0619
     33 H           5.1656   -1.9094    0.4832 H       1  UNL1        0.0629
     34 H          -0.1339   -2.6713   -1.2058 H       1  UNL1        0.0624
     35 H          -1.4264   -4.2437    0.1460 H       1  UNL1        0.0618
     36 H          -3.5193   -3.5317    1.2832 H       1  UNL1        0.0618
     37 H          -4.2700   -1.2259    1.0347 H       1  UNL1        0.0638
@<TRIPOS>BOND
     1     1     2    2
     2     2     3    1
     3     2     4    1
     4     4     5    1
     5     5     6   ar
     6     6     7   ar
     7     7     8    1
     8     8     9    1
     9     9    10   ar
    10    10    11   ar
    11    11    12   ar
    12    12    13    1
    13    12    14   ar
    14    14    15   ar
    15    15    16   ar
    16    16    17   ar
    17    17    18   ar
    18     7    19   ar
    19    19    20   ar
    20    20    21   ar
    21    21    22   ar
    22    22    23   ar
    23    23    24   ar
    24    24     5   ar
    25    18     9   ar
    26    24    19   ar
    27    17    11   ar
    28     3    25    1
    29     4    26    1
    30     4    27    1
    31     6    28    1
    32     8    29    1
    33     8    30    1
    34    14    31    1
    35    15    32    1
    36    16    33    1
    37    20    34    1
    38    21    35    1
    39    22    36    1
    40    23    37    1
