
     RDKit          3D

 37 40  0  0  0  0  0  0  0  0999 V2000
   -4.4561    2.8067    1.8883 O   0  0  0  0  0  0  0  0  0  0  0  0
   -3.6464    2.0693    1.2595 C   0  0  0  0  0  0  0  0  0  0  0  0
   -2.3921    1.8586    1.8132 O   0  0  0  0  0  0  0  0  0  0  0  0
   -3.9641    1.4273   -0.0205 C   0  0  0  0  0  0  0  0  0  0  0  0
   -2.8400    0.6424   -0.5006 N   0  0  0  0  0  0  0  0  0  0  0  0
   -1.8420    1.0820   -1.2945 C   0  0  0  0  0  0  0  0  0  0  0  0
   -0.9447    0.0432   -1.5437 C   0  0  0  0  0  0  0  0  0  0  0  0
    0.2849    0.1250   -2.3585 C   0  0  0  0  0  0  0  0  0  0  0  0
    1.5317    0.2383   -1.5317 C   0  0  0  0  0  0  0  0  0  0  0  0
    2.2235    1.0228   -0.9769 N   0  0  0  0  0  0  0  0  0  0  0  0
    3.3209    0.8492   -0.3002 C   0  0  0  0  0  0  0  0  0  0  0  0
    4.1250    1.7955    0.3495 C   0  0  0  0  0  0  0  0  0  0  0  0
    3.8253    3.1179    0.3478 F   0  0  0  0  0  0  0  0  0  0  0  0
    5.2546    1.4046    1.0155 C   0  0  0  0  0  0  0  0  0  0  0  0
    5.6840    0.1073    1.1038 C   0  0  0  0  0  0  0  0  0  0  0  0
    4.9056   -0.8482    0.4691 C   0  0  0  0  0  0  0  0  0  0  0  0
    3.7583   -0.4634   -0.2090 C   0  0  0  0  0  0  0  0  0  0  0  0
    2.5111   -1.3412   -1.1323 S   0  0  0  0  0  0  0  0  0  0  0  0
   -1.4520   -1.0383   -0.8629 C   0  0  0  0  0  0  0  0  0  0  0  0
   -1.0243   -2.3497   -0.7225 C   0  0  0  0  0  0  0  0  0  0  0  0
   -1.7771   -3.2259    0.0490 C   0  0  0  0  0  0  0  0  0  0  0  0
   -2.9399   -2.8487    0.6868 C   0  0  0  0  0  0  0  0  0  0  0  0
   -3.3558   -1.5461    0.5409 C   0  0  0  0  0  0  0  0  0  0  0  0
   -2.6325   -0.6555   -0.2161 C   0  0  0  0  0  0  0  0  0  0  0  0
   -2.1998    2.0061    2.8001 H   0  0  0  0  0  0  0  0  0  0  0  0
   -4.2291    2.2412   -0.7420 H   0  0  0  0  0  0  0  0  0  0  0  0
   -4.8517    0.7680    0.0384 H   0  0  0  0  0  0  0  0  0  0  0  0
   -1.7178    2.0632   -1.6935 H   0  0  0  0  0  0  0  0  0  0  0  0
    0.2520    0.9691   -3.0770 H   0  0  0  0  0  0  0  0  0  0  0  0
    0.3524   -0.7900   -3.0208 H   0  0  0  0  0  0  0  0  0  0  0  0
    5.8558    2.1922    1.5128 H   0  0  0  0  0  0  0  0  0  0  0  0
    6.5641   -0.1410    1.6308 H   0  0  0  0  0  0  0  0  0  0  0  0
    5.1656   -1.9094    0.4832 H   0  0  0  0  0  0  0  0  0  0  0  0
   -0.1339   -2.6713   -1.2058 H   0  0  0  0  0  0  0  0  0  0  0  0
   -1.4264   -4.2437    0.1460 H   0  0  0  0  0  0  0  0  0  0  0  0
   -3.5193   -3.5317    1.2832 H   0  0  0  0  0  0  0  0  0  0  0  0
   -4.2700   -1.2259    1.0347 H   0  0  0  0  0  0  0  0  0  0  0  0
  1  2  2  0
  2  3  1  0
  2  4  1  0
  4  5  1  0
  5  6  1  0
  6  7  2  0
  7  8  1  0
  8  9  1  0
  9 10  2  0
 10 11  1  0
 11 12  2  0
 12 13  1  0
 12 14  1  0
 14 15  2  0
 15 16  1  0
 16 17  2  0
 17 18  1  0
  7 19  1  0
 19 20  2  0
 20 21  1  0
 21 22  2  0
 22 23  1  0
 23 24  2  0
 24  5  1  0
 18  9  1  0
 24 19  1  0
 17 11  1  0
  3 25  1  0
  4 26  1  0
  4 27  1  0
  6 28  1  0
  8 29  1  0
  8 30  1  0
 14 31  1  0
 15 32  1  0
 16 33  1  0
 20 34  1  0
 21 35  1  0
 22 36  1  0
 23 37  1  0
M  END
$$$$
