
     RDKit          3D

 61 64  0  0  0  0  0  0  0  0999 V2000
    7.3531    0.1151    4.0825 C   0  0  0  0  0  0  0  0  0  0  0  0
    6.2394   -0.7226    4.2872 O   0  0  0  0  0  0  0  0  0  0  0  0
    5.1223   -0.7525    3.4781 C   0  0  0  0  0  0  0  0  0  0  0  0
    4.9990    0.0497    2.3797 C   0  0  0  0  0  0  0  0  0  0  0  0
    3.8893    0.0113    1.5878 C   0  0  0  0  0  0  0  0  0  0  0  0
    3.8060    0.9016    0.4189 C   0  0  1  0  0  0  0  0  0  0  0  0
    5.0062    0.9275   -0.2860 O   0  0  0  0  0  0  0  0  0  0  0  0
    2.6717    0.3835   -0.4765 C   0  0  0  0  0  0  0  0  0  0  0  0
    1.4367    0.3430    0.2027 N   0  0  0  0  0  0  0  0  0  0  0  0
    0.8096    1.5411    0.5732 C   0  0  0  0  0  0  0  0  0  0  0  0
   -0.4195    1.8846   -0.2240 C   0  0  0  0  0  0  0  0  0  0  0  0
   -0.6799    0.9167   -1.1707 N   0  0  0  0  0  0  0  0  0  0  0  0
   -1.2611    1.2488   -2.4059 C   0  0  0  0  0  0  0  0  0  0  0  0
   -2.6826    1.7160   -2.3942 C   0  0  2  0  0  0  0  0  0  0  0  0
   -2.8650    2.8690   -1.6307 O   0  0  0  0  0  0  0  0  0  0  0  0
   -3.6378    0.7163   -1.8434 C   0  0  0  0  0  0  0  0  0  0  0  0
   -3.9615    0.7608   -0.4791 C   0  0  0  0  0  0  0  0  0  0  0  0
   -4.8349   -0.1283    0.0785 C   0  0  0  0  0  0  0  0  0  0  0  0
   -5.4322   -1.1018   -0.6750 C   0  0  0  0  0  0  0  0  0  0  0  0
   -5.1230   -1.1547   -2.0137 C   0  0  0  0  0  0  0  0  0  0  0  0
   -4.2273   -0.2506   -2.6067 C   0  0  0  0  0  0  0  0  0  0  0  0
   -3.9204   -0.3472   -4.0628 C   0  0  0  0  0  0  0  0  0  0  0  0
   -5.8652   -2.2540   -2.6481 C   0  0  0  0  0  0  0  0  0  0  0  0
   -6.5961   -2.8334   -1.5993 O   0  0  0  0  0  0  0  0  0  0  0  0
   -6.3803   -2.1804   -0.4054 C   0  0  0  0  0  0  0  0  0  0  0  0
   -6.8482   -2.3793    0.7556 O   0  0  0  0  0  0  0  0  0  0  0  0
   -0.6178   -0.4651   -0.8399 C   0  0  0  0  0  0  0  0  0  0  0  0
    0.5996   -0.7674    0.0057 C   0  0  0  0  0  0  0  0  0  0  0  0
    2.8827   -0.8172    1.8639 N   0  0  0  0  0  0  0  0  0  0  0  0
    2.9559   -1.6272    2.9342 C   0  0  0  0  0  0  0  0  0  0  0  0
    4.0714   -1.6216    3.7709 C   0  0  0  0  0  0  0  0  0  0  0  0
    4.1519   -2.4829    4.8942 C   0  0  0  0  0  0  0  0  0  0  0  0
    4.1998   -3.2137    5.8457 N   0  0  0  0  0  0  0  0  0  0  0  0
    7.0627    1.1311    3.7319 H   0  0  0  0  0  0  0  0  0  0  0  0
    8.1078   -0.3094    3.4041 H   0  0  0  0  0  0  0  0  0  0  0  0
    7.8891    0.2987    5.0584 H   0  0  0  0  0  0  0  0  0  0  0  0
    5.8426    0.7361    2.1564 H   0  0  0  0  0  0  0  0  0  0  0  0
    3.5752    1.9462    0.7154 H   0  0  0  0  0  0  0  0  0  0  0  0
    5.3499    1.8486   -0.4063 H   0  0  0  0  0  0  0  0  0  0  0  0
    2.9116   -0.6577   -0.8220 H   0  0  0  0  0  0  0  0  0  0  0  0
    2.7268    1.0083   -1.3824 H   0  0  0  0  0  0  0  0  0  0  0  0
    1.5140    2.4100    0.6340 H   0  0  0  0  0  0  0  0  0  0  0  0
    0.4655    1.4049    1.6497 H   0  0  0  0  0  0  0  0  0  0  0  0
   -0.2674    2.8719   -0.7788 H   0  0  0  0  0  0  0  0  0  0  0  0
   -1.2409    2.1412    0.4821 H   0  0  0  0  0  0  0  0  0  0  0  0
   -0.5976    1.9922   -2.9234 H   0  0  0  0  0  0  0  0  0  0  0  0
   -1.2103    0.3529   -3.0648 H   0  0  0  0  0  0  0  0  0  0  0  0
   -2.9673    1.9906   -3.4317 H   0  0  0  0  0  0  0  0  0  0  0  0
   -3.7695    3.0071   -1.3192 H   0  0  0  0  0  0  0  0  0  0  0  0
   -3.5040    1.5199    0.1309 H   0  0  0  0  0  0  0  0  0  0  0  0
   -5.0619   -0.0643    1.1395 H   0  0  0  0  0  0  0  0  0  0  0  0
   -3.9401    0.6159   -4.5710 H   0  0  0  0  0  0  0  0  0  0  0  0
   -2.9328   -0.8285   -4.2237 H   0  0  0  0  0  0  0  0  0  0  0  0
   -4.6764   -0.9999   -4.5591 H   0  0  0  0  0  0  0  0  0  0  0  0
   -6.5340   -1.8443   -3.4375 H   0  0  0  0  0  0  0  0  0  0  0  0
   -5.1326   -2.9502   -3.1139 H   0  0  0  0  0  0  0  0  0  0  0  0
   -1.5332   -0.7991   -0.3395 H   0  0  0  0  0  0  0  0  0  0  0  0
   -0.4976   -1.0441   -1.7821 H   0  0  0  0  0  0  0  0  0  0  0  0
    0.2323   -1.1129    0.9960 H   0  0  0  0  0  0  0  0  0  0  0  0
    1.1892   -1.6323   -0.3916 H   0  0  0  0  0  0  0  0  0  0  0  0
    2.1570   -2.3180    3.1979 H   0  0  0  0  0  0  0  0  0  0  0  0
  1  2  1  0
  2  3  1  0
  3  4  2  0
  4  5  1  0
  5  6  1  0
  6  7  1  0
  6  8  1  0
  8  9  1  0
  9 10  1  0
 10 11  1  0
 11 12  1  0
 12 13  1  0
 13 14  1  0
 14 15  1  0
 14 16  1  0
 16 17  2  0
 17 18  1  0
 18 19  2  0
 19 20  1  0
 20 21  2  0
 21 22  1  0
 20 23  1  0
 23 24  1  0
 24 25  1  0
 25 26  2  0
 12 27  1  0
 27 28  1  0
  5 29  2  0
 29 30  1  0
 30 31  2  0
 31 32  1  0
 32 33  3  0
 31  3  1  0
 28  9  1  0
 21 16  1  0
 25 19  1  0
  1 34  1  0
  1 35  1  0
  1 36  1  0
  4 37  1  0
  6 38  1  1
  7 39  1  0
  8 40  1  0
  8 41  1  0
 10 42  1  0
 10 43  1  0
 11 44  1  0
 11 45  1  0
 13 46  1  0
 13 47  1  0
 14 48  1  6
 15 49  1  0
 17 50  1  0
 18 51  1  0
 22 52  1  0
 22 53  1  0
 22 54  1  0
 23 55  1  0
 23 56  1  0
 27 57  1  0
 27 58  1  0
 28 59  1  0
 28 60  1  0
 30 61  1  0
M  END
$$$$
