@<TRIPOS>MOLECULE
*****
 61 64 0 0 0
SMALL
GASTEIGER

@<TRIPOS>ATOM
      1 C           7.3531    0.1151    4.0825 C.3     1  UNL1        0.0788
      2 O           6.2394   -0.7226    4.2872 O.3     1  UNL1       -0.4937
      3 C           5.1223   -0.7525    3.4781 C.ar    1  UNL1        0.1407
      4 C           4.9990    0.0497    2.3797 C.ar    1  UNL1        0.0052
      5 C           3.8893    0.0113    1.5878 C.ar    1  UNL1        0.0744
      6 C           3.8060    0.9016    0.4189 C.3     1  UNL1        0.1097
      7 O           5.0062    0.9275   -0.2860 O.3     1  UNL1       -0.3844
      8 C           2.6717    0.3835   -0.4765 C.3     1  UNL1        0.0306
      9 N           1.4367    0.3430    0.2027 N.3     1  UNL1       -0.2971
     10 C           0.8096    1.5411    0.5732 C.3     1  UNL1        0.0118
     11 C          -0.4195    1.8846   -0.2240 C.3     1  UNL1        0.0118
     12 N          -0.6799    0.9167   -1.1707 N.3     1  UNL1       -0.2971
     13 C          -1.2611    1.2488   -2.4059 C.3     1  UNL1        0.0292
     14 C          -2.6826    1.7160   -2.3942 C.3     1  UNL1        0.0931
     15 O          -2.8650    2.8690   -1.6307 O.3     1  UNL1       -0.3859
     16 C          -3.6378    0.7163   -1.8434 C.ar    1  UNL1       -0.0146
     17 C          -3.9615    0.7608   -0.4791 C.ar    1  UNL1       -0.0550
     18 C          -4.8349   -0.1283    0.0785 C.ar    1  UNL1       -0.0470
     19 C          -5.4322   -1.1018   -0.6750 C.ar    1  UNL1        0.0656
     20 C          -5.1230   -1.1547   -2.0137 C.ar    1  UNL1        0.0069
     21 C          -4.2273   -0.2506   -2.6067 C.ar    1  UNL1       -0.0376
     22 C          -3.9204   -0.3472   -4.0628 C.3     1  UNL1       -0.0390
     23 C          -5.8652   -2.2540   -2.6481 C.3     1  UNL1        0.1189
     24 O          -6.5961   -2.8334   -1.5993 O.3     1  UNL1       -0.4564
     25 C          -6.3803   -2.1804   -0.4054 C.2     1  UNL1        0.3399
     26 O          -6.8482   -2.3793    0.7556 O.2     1  UNL1       -0.2449
     27 C          -0.6178   -0.4651   -0.8399 C.3     1  UNL1        0.0118
     28 C           0.5996   -0.7674    0.0057 C.3     1  UNL1        0.0118
     29 N           2.8827   -0.8172    1.8639 N.ar    1  UNL1       -0.2557
     30 C           2.9559   -1.6272    2.9342 C.ar    1  UNL1        0.0489
     31 C           4.0714   -1.6216    3.7709 C.ar    1  UNL1        0.1113
     32 C           4.1519   -2.4829    4.8942 C.1     1  UNL1        0.1044
     33 N           4.1998   -3.2137    5.8457 N.1     1  UNL1       -0.1907
     34 H           7.0627    1.1311    3.7319 H       1  UNL1        0.0660
     35 H           8.1078   -0.3094    3.4041 H       1  UNL1        0.0660
     36 H           7.8891    0.2987    5.0584 H       1  UNL1        0.0660
     37 H           5.8426    0.7361    2.1564 H       1  UNL1        0.0673
     38 H           3.5752    1.9462    0.7154 H       1  UNL1        0.0672
     39 H           5.3499    1.8486   -0.4063 H       1  UNL1        0.2104
     40 H           2.9116   -0.6577   -0.8220 H       1  UNL1        0.0456
     41 H           2.7268    1.0083   -1.3824 H       1  UNL1        0.0456
     42 H           1.5140    2.4100    0.6340 H       1  UNL1        0.0439
     43 H           0.4655    1.4049    1.6497 H       1  UNL1        0.0439
     44 H          -0.2674    2.8719   -0.7788 H       1  UNL1        0.0439
     45 H          -1.2409    2.1412    0.4821 H       1  UNL1        0.0439
     46 H          -0.5976    1.9922   -2.9234 H       1  UNL1        0.0455
     47 H          -1.2103    0.3529   -3.0648 H       1  UNL1        0.0455
     48 H          -2.9673    1.9906   -3.4317 H       1  UNL1        0.0656
     49 H          -3.7695    3.0071   -1.3192 H       1  UNL1        0.2103
     50 H          -3.5040    1.5199    0.1309 H       1  UNL1        0.0621
     51 H          -5.0619   -0.0643    1.1395 H       1  UNL1        0.0626
     52 H          -3.9401    0.6159   -4.5710 H       1  UNL1        0.0278
     53 H          -2.9328   -0.8285   -4.2237 H       1  UNL1        0.0278
     54 H          -4.6764   -0.9999   -4.5591 H       1  UNL1        0.0278
     55 H          -6.5340   -1.8443   -3.4375 H       1  UNL1        0.0749
     56 H          -5.1326   -2.9502   -3.1139 H       1  UNL1        0.0749
     57 H          -1.5332   -0.7991   -0.3395 H       1  UNL1        0.0439
     58 H          -0.4976   -1.0441   -1.7821 H       1  UNL1        0.0439
     59 H           0.2323   -1.1129    0.9960 H       1  UNL1        0.0439
     60 H           1.1892   -1.6323   -0.3916 H       1  UNL1        0.0439
     61 H           2.1570   -2.3180    3.1979 H       1  UNL1        0.0844
@<TRIPOS>BOND
     1     1     2    1
     2     2     3    1
     3     3     4   ar
     4     4     5   ar
     5     5     6    1
     6     6     7    1
     7     6     8    1
     8     8     9    1
     9     9    10    1
    10    10    11    1
    11    11    12    1
    12    12    13    1
    13    13    14    1
    14    14    15    1
    15    14    16    1
    16    16    17   ar
    17    17    18   ar
    18    18    19   ar
    19    19    20   ar
    20    20    21   ar
    21    21    22    1
    22    20    23    1
    23    23    24    1
    24    24    25    1
    25    25    26    2
    26    12    27    1
    27    27    28    1
    28     5    29   ar
    29    29    30   ar
    30    30    31   ar
    31    31    32    1
    32    32    33    3
    33    31     3   ar
    34    28     9    1
    35    21    16   ar
    36    25    19    1
    37     1    34    1
    38     1    35    1
    39     1    36    1
    40     4    37    1
    41     6    38    1
    42     7    39    1
    43     8    40    1
    44     8    41    1
    45    10    42    1
    46    10    43    1
    47    11    44    1
    48    11    45    1
    49    13    46    1
    50    13    47    1
    51    14    48    1
    52    15    49    1
    53    17    50    1
    54    18    51    1
    55    22    52    1
    56    22    53    1
    57    22    54    1
    58    23    55    1
    59    23    56    1
    60    27    57    1
    61    27    58    1
    62    28    59    1
    63    28    60    1
    64    30    61    1
