
     RDKit          3D

 61 68  0  0  0  0  0  0  0  0999 V2000
   -5.2322    1.0277   -0.2757 C   0  0  0  0  0  0  0  0  0  0  0  0
   -4.0246    1.6741   -0.7050 N   0  0  0  0  0  0  0  0  0  0  0  0
   -2.9511    1.3615    0.1768 C   0  0  2  0  0  0  0  0  0  0  0  0
   -1.6625    2.1003   -0.2294 C   0  0  0  0  0  0  0  0  0  0  0  0
   -0.7394    1.9392    0.9786 C   0  0  1  0  0  0  0  0  0  0  0  0
   -1.0706    0.9200    1.7922 O   0  0  0  0  0  0  0  0  0  0  0  0
   -1.4953   -0.2760    1.2121 C   0  0  1  0  0  0  0  0  0  0  0  0
   -2.1217   -1.0326    2.3788 C   0  0  0  0  0  0  0  0  0  0  0  0
   -2.5334   -0.1073    0.1506 C   0  0  2  0  0  0  0  0  0  0  0  0
   -2.0272   -0.3400   -1.1315 O   0  0  0  0  0  0  0  0  0  0  0  0
   -2.7910   -1.2833   -1.8151 C   0  0  0  0  0  0  0  0  0  0  0  0
   -0.3435   -1.0381    0.7173 N   0  0  0  0  0  0  0  0  0  0  0  0
   -0.2675   -2.3697    0.5905 C   0  0  0  0  0  0  0  0  0  0  0  0
   -1.1509   -3.3923    0.7875 C   0  0  0  0  0  0  0  0  0  0  0  0
   -0.8363   -4.7161    0.5722 C   0  0  0  0  0  0  0  0  0  0  0  0
    0.4256   -5.0619    0.1342 C   0  0  0  0  0  0  0  0  0  0  0  0
    1.3478   -4.0449   -0.0774 C   0  0  0  0  0  0  0  0  0  0  0  0
    0.9953   -2.7374    0.1490 C   0  0  0  0  0  0  0  0  0  0  0  0
    1.7248   -1.5822   -0.0065 C   0  0  0  0  0  0  0  0  0  0  0  0
    3.0255   -1.3319   -0.4220 C   0  0  0  0  0  0  0  0  0  0  0  0
    3.4945   -0.0249   -0.4901 C   0  0  0  0  0  0  0  0  0  0  0  0
    2.6329    1.0160   -0.1354 C   0  0  0  0  0  0  0  0  0  0  0  0
    2.7455    2.3628   -0.1067 C   0  0  0  0  0  0  0  0  0  0  0  0
    3.7569    3.2390   -0.3947 C   0  0  0  0  0  0  0  0  0  0  0  0
    3.5251    4.5966   -0.2539 C   0  0  0  0  0  0  0  0  0  0  0  0
    2.3182    5.0892    0.1637 C   0  0  0  0  0  0  0  0  0  0  0  0
    1.2980    4.2119    0.4545 C   0  0  0  0  0  0  0  0  0  0  0  0
    1.5085    2.8492    0.3204 C   0  0  0  0  0  0  0  0  0  0  0  0
    0.6621    1.8623    0.5494 N   0  0  0  0  0  0  0  0  0  0  0  0
    1.3255    0.7250    0.2804 C   0  0  0  0  0  0  0  0  0  0  0  0
    0.8760   -0.5752    0.3461 C   0  0  0  0  0  0  0  0  0  0  0  0
    4.8572   -0.0881   -0.9447 C   0  0  0  0  0  0  0  0  0  0  0  0
    5.6413    0.8682   -1.1400 O   0  0  0  0  0  0  0  0  0  0  0  0
    5.2043   -1.4694   -1.1515 N   0  0  0  0  0  0  0  0  0  0  0  0
    4.0820   -2.2814   -0.8371 C   0  0  0  0  0  0  0  0  0  0  0  0
   -5.0616    0.3953    0.5998 H   0  0  0  0  0  0  0  0  0  0  0  0
   -6.0052    1.8007   -0.0071 H   0  0  0  0  0  0  0  0  0  0  0  0
   -5.6395    0.3994   -1.1096 H   0  0  0  0  0  0  0  0  0  0  0  0
   -4.1495    2.7082   -0.6903 H   0  0  0  0  0  0  0  0  0  0  0  0
   -3.1958    1.6714    1.2144 H   0  0  0  0  0  0  0  0  0  0  0  0
   -1.2121    1.5763   -1.1132 H   0  0  0  0  0  0  0  0  0  0  0  0
   -1.8714    3.1436   -0.4650 H   0  0  0  0  0  0  0  0  0  0  0  0
   -0.8641    2.8916    1.5520 H   0  0  0  0  0  0  0  0  0  0  0  0
   -3.1158   -1.4261    2.1767 H   0  0  0  0  0  0  0  0  0  0  0  0
   -2.2947   -0.3287    3.2585 H   0  0  0  0  0  0  0  0  0  0  0  0
   -1.4640   -1.8039    2.8050 H   0  0  0  0  0  0  0  0  0  0  0  0
   -3.4228   -0.7489    0.2709 H   0  0  0  0  0  0  0  0  0  0  0  0
   -2.8216   -2.2705   -1.2925 H   0  0  0  0  0  0  0  0  0  0  0  0
   -3.8439   -0.9549   -1.9087 H   0  0  0  0  0  0  0  0  0  0  0  0
   -2.3442   -1.4986   -2.8182 H   0  0  0  0  0  0  0  0  0  0  0  0
   -2.1408   -3.1813    1.1016 H   0  0  0  0  0  0  0  0  0  0  0  0
   -1.5592   -5.5031    0.7386 H   0  0  0  0  0  0  0  0  0  0  0  0
    0.7042   -6.0929   -0.0441 H   0  0  0  0  0  0  0  0  0  0  0  0
    2.3386   -4.3133   -0.4214 H   0  0  0  0  0  0  0  0  0  0  0  0
    4.7293    2.9747   -0.7246 H   0  0  0  0  0  0  0  0  0  0  0  0
    4.3015    5.3264   -0.4722 H   0  0  0  0  0  0  0  0  0  0  0  0
    2.1609    6.1549    0.2662 H   0  0  0  0  0  0  0  0  0  0  0  0
    0.3454    4.5952    0.7838 H   0  0  0  0  0  0  0  0  0  0  0  0
    6.1327   -1.7903   -1.4783 H   0  0  0  0  0  0  0  0  0  0  0  0
    3.7311   -2.8234   -1.7408 H   0  0  0  0  0  0  0  0  0  0  0  0
    4.3628   -2.9921   -0.0207 H   0  0  0  0  0  0  0  0  0  0  0  0
  1  2  1  0
  2  3  1  0
  3  4  1  0
  4  5  1  0
  5  6  1  0
  6  7  1  0
  7  8  1  1
  7  9  1  0
  9 10  1  0
 10 11  1  0
  7 12  1  0
 12 13  1  0
 13 14  2  0
 14 15  1  0
 15 16  2  0
 16 17  1  0
 17 18  2  0
 18 19  1  0
 19 20  2  0
 20 21  1  0
 21 22  2  0
 22 23  1  0
 23 24  2  0
 24 25  1  0
 25 26  2  0
 26 27  1  0
 27 28  2  0
 28 29  1  0
 29 30  1  0
 30 31  2  0
 21 32  1  0
 32 33  2  0
 32 34  1  0
 34 35  1  0
  9  3  1  0
 31 12  1  0
 29  5  1  0
 18 13  1  0
 31 19  1  0
 35 20  1  0
 30 22  1  0
 28 23  1  0
  1 36  1  0
  1 37  1  0
  1 38  1  0
  2 39  1  0
  3 40  1  1
  4 41  1  0
  4 42  1  0
  5 43  1  1
  8 44  1  0
  8 45  1  0
  8 46  1  0
  9 47  1  1
 11 48  1  0
 11 49  1  0
 11 50  1  0
 14 51  1  0
 15 52  1  0
 16 53  1  0
 17 54  1  0
 24 55  1  0
 25 56  1  0
 26 57  1  0
 27 58  1  0
 34 59  1  0
 35 60  1  0
 35 61  1  0
M  END
$$$$
