@<TRIPOS>MOLECULE
*****
 61 68 0 0 0
SMALL
GASTEIGER

@<TRIPOS>ATOM
      1 C          -5.2322    1.0277   -0.2757 C.3     1  UNL1       -0.0155
      2 N          -4.0246    1.6741   -0.7050 N.3     1  UNL1       -0.3136
      3 C          -2.9511    1.3615    0.1768 C.3     1  UNL1        0.0423
      4 C          -1.6625    2.1003   -0.2294 C.3     1  UNL1        0.0107
      5 C          -0.7394    1.9392    0.9786 C.3     1  UNL1        0.1402
      6 O          -1.0706    0.9200    1.7922 O.3     1  UNL1       -0.3282
      7 C          -1.4953   -0.2760    1.2121 C.3     1  UNL1        0.1741
      8 C          -2.1217   -1.0326    2.3788 C.3     1  UNL1       -0.0136
      9 C          -2.5334   -0.1073    0.1506 C.3     1  UNL1        0.1214
     10 O          -2.0272   -0.3400   -1.1315 O.3     1  UNL1       -0.3735
     11 C          -2.7910   -1.2833   -1.8151 C.3     1  UNL1        0.0371
     12 N          -0.3435   -1.0381    0.7173 N.ar    1  UNL1       -0.3070
     13 C          -0.2675   -2.3697    0.5905 C.ar    1  UNL1        0.0527
     14 C          -1.1509   -3.3923    0.7875 C.ar    1  UNL1       -0.0375
     15 C          -0.8363   -4.7161    0.5722 C.ar    1  UNL1       -0.0598
     16 C           0.4256   -5.0619    0.1342 C.ar    1  UNL1       -0.0611
     17 C           1.3478   -4.0449   -0.0774 C.ar    1  UNL1       -0.0520
     18 C           0.9953   -2.7374    0.1490 C.ar    1  UNL1        0.0081
     19 C           1.7248   -1.5822   -0.0065 C.ar    1  UNL1        0.0151
     20 C           3.0255   -1.3319   -0.4220 C.ar    1  UNL1       -0.0078
     21 C           3.4945   -0.0249   -0.4901 C.ar    1  UNL1        0.0518
     22 C           2.6329    1.0160   -0.1354 C.ar    1  UNL1        0.0221
     23 C           2.7455    2.3628   -0.1067 C.ar    1  UNL1        0.0085
     24 C           3.7569    3.2390   -0.3947 C.ar    1  UNL1       -0.0520
     25 C           3.5251    4.5966   -0.2539 C.ar    1  UNL1       -0.0611
     26 C           2.3182    5.0892    0.1637 C.ar    1  UNL1       -0.0598
     27 C           1.2980    4.2119    0.4545 C.ar    1  UNL1       -0.0375
     28 C           1.5085    2.8492    0.3204 C.ar    1  UNL1        0.0524
     29 N           0.6621    1.8623    0.5494 N.ar    1  UNL1       -0.3115
     30 C           1.3255    0.7250    0.2804 C.ar    1  UNL1        0.0774
     31 C           0.8760   -0.5752    0.3461 C.ar    1  UNL1        0.0772
     32 C           4.8572   -0.0881   -0.9447 C.2     1  UNL1        0.2453
     33 O           5.6413    0.8682   -1.1400 O.2     1  UNL1       -0.2702
     34 N           5.2043   -1.4694   -1.1515 N.am    1  UNL1       -0.3072
     35 C           4.0820   -2.2814   -0.8371 C.3     1  UNL1        0.0385
     36 H          -5.0616    0.3953    0.5998 H       1  UNL1        0.0388
     37 H          -6.0052    1.8007   -0.0071 H       1  UNL1        0.0388
     38 H          -5.6395    0.3994   -1.1096 H       1  UNL1        0.0388
     39 H          -4.1495    2.7082   -0.6903 H       1  UNL1        0.1220
     40 H          -3.1958    1.6714    1.2144 H       1  UNL1        0.0489
     41 H          -1.2121    1.5763   -1.1132 H       1  UNL1        0.0325
     42 H          -1.8714    3.1436   -0.4650 H       1  UNL1        0.0325
     43 H          -0.8641    2.8916    1.5520 H       1  UNL1        0.0839
     44 H          -3.1158   -1.4261    2.1767 H       1  UNL1        0.0277
     45 H          -2.2947   -0.3287    3.2585 H       1  UNL1        0.0277
     46 H          -1.4640   -1.8039    2.8050 H       1  UNL1        0.0277
     47 H          -3.4228   -0.7489    0.2709 H       1  UNL1        0.0660
     48 H          -2.8216   -2.2705   -1.2925 H       1  UNL1        0.0524
     49 H          -3.8439   -0.9549   -1.9087 H       1  UNL1        0.0524
     50 H          -2.3442   -1.4986   -2.8182 H       1  UNL1        0.0524
     51 H          -2.1408   -3.1813    1.1016 H       1  UNL1        0.0638
     52 H          -1.5592   -5.5031    0.7386 H       1  UNL1        0.0618
     53 H           0.7042   -6.0929   -0.0441 H       1  UNL1        0.0618
     54 H           2.3386   -4.3133   -0.4214 H       1  UNL1        0.0624
     55 H           4.7293    2.9747   -0.7246 H       1  UNL1        0.0624
     56 H           4.3015    5.3264   -0.4722 H       1  UNL1        0.0618
     57 H           2.1609    6.1549    0.2662 H       1  UNL1        0.0618
     58 H           0.3454    4.5952    0.7838 H       1  UNL1        0.0638
     59 H           6.1327   -1.7903   -1.4783 H       1  UNL1        0.1493
     60 H           3.7311   -2.8234   -1.7408 H       1  UNL1        0.0512
     61 H           4.3628   -2.9921   -0.0207 H       1  UNL1        0.0512
@<TRIPOS>BOND
     1     1     2    1
     2     2     3    1
     3     3     4    1
     4     4     5    1
     5     5     6    1
     6     6     7    1
     7     7     8    1
     8     7     9    1
     9     9    10    1
    10    10    11    1
    11     7    12    1
    12    12    13   ar
    13    13    14   ar
    14    14    15   ar
    15    15    16   ar
    16    16    17   ar
    17    17    18   ar
    18    18    19   ar
    19    19    20   ar
    20    20    21   ar
    21    21    22   ar
    22    22    23   ar
    23    23    24   ar
    24    24    25   ar
    25    25    26   ar
    26    26    27   ar
    27    27    28   ar
    28    28    29   ar
    29    29    30   ar
    30    30    31   ar
    31    21    32    1
    32    32    33    2
    33    32    34   am
    34    34    35    1
    35     9     3    1
    36    31    12   ar
    37    29     5    1
    38    18    13   ar
    39    31    19   ar
    40    35    20    1
    41    30    22   ar
    42    28    23   ar
    43     1    36    1
    44     1    37    1
    45     1    38    1
    46     2    39    1
    47     3    40    1
    48     4    41    1
    49     4    42    1
    50     5    43    1
    51     8    44    1
    52     8    45    1
    53     8    46    1
    54     9    47    1
    55    11    48    1
    56    11    49    1
    57    11    50    1
    58    14    51    1
    59    15    52    1
    60    16    53    1
    61    17    54    1
    62    24    55    1
    63    25    56    1
    64    26    57    1
    65    27    58    1
    66    34    59    1
    67    35    60    1
    68    35    61    1
