@<TRIPOS>MOLECULE
*****
 75 78 0 0 0
SMALL
GASTEIGER

@<TRIPOS>ATOM
      1 C          -0.8743   -6.1699    0.8523 C.3     1  UNL1       -0.0653
      2 C          -0.7520   -4.8784    0.0009 C.3     1  UNL1       -0.0559
      3 C          -1.9591   -4.7777   -0.8689 C.3     1  UNL1       -0.0533
      4 C          -2.0823   -3.6733   -1.8306 C.3     1  UNL1       -0.0524
      5 C          -2.1463   -2.2703   -1.4528 C.3     1  UNL1       -0.0428
      6 C          -0.9968   -1.6119   -0.7458 C.3     1  UNL1        0.0276
      7 C           0.1946   -1.7328   -1.6127 C.3     1  UNL1       -0.0178
      8 C           1.4530   -1.1831   -1.1513 C.ar    1  UNL1       -0.0466
      9 C           1.8877    0.0486   -1.5602 C.ar    1  UNL1       -0.0578
     10 C           3.0990    0.6155   -1.1079 C.ar    1  UNL1       -0.0494
     11 C           3.8896   -0.0644   -0.2307 C.ar    1  UNL1        0.0367
     12 C           5.1359    0.4596    0.2679 C.2     1  UNL1        0.2441
     13 O           5.8209   -0.2366    1.0853 O.2     1  UNL1       -0.2702
     14 N           5.6011    1.7337   -0.1415 N.am    1  UNL1       -0.3108
     15 C           6.8622    2.2350    0.3724 C.3     1  UNL1        0.0220
     16 C           7.9948    1.3322   -0.0272 C.3     1  UNL1        0.0603
     17 C           9.2610    1.9162    0.5352 C.2     1  UNL1        0.3062
     18 O          10.3154    1.2602    0.2799 O.2     1  UNL1       -0.2510
     19 O           9.2725    3.0790    1.2735 O.3     1  UNL1       -0.4806
     20 C           3.4751   -1.3152    0.2003 C.ar    1  UNL1       -0.0494
     21 C           2.2947   -1.8401   -0.2551 C.ar    1  UNL1       -0.0578
     22 C          -1.4693   -0.1975   -0.5202 C.2     1  UNL1        0.1831
     23 O          -1.0197    0.7366   -1.1665 O.2     1  UNL1       -0.2902
     24 C          -2.4932    0.0014    0.5131 C.ar    1  UNL1        0.0906
     25 C          -3.0608   -0.9425    1.3388 C.ar    1  UNL1       -0.0252
     26 C          -3.9968   -0.2900    2.1511 C.ar    1  UNL1        0.0023
     27 C          -4.8469   -0.7272    3.1446 C.ar    1  UNL1       -0.0342
     28 C          -5.6690    0.1792    3.7756 C.ar    1  UNL1        0.0417
     29 CL         -6.7779   -0.3452    5.0601 Cl      1  UNL1       -0.0835
     30 C          -5.6283    1.5043    3.4046 C.ar    1  UNL1       -0.0414
     31 C          -4.7724    1.9168    2.4113 C.ar    1  UNL1       -0.0359
     32 C          -3.9314    1.0247    1.7570 C.ar    1  UNL1        0.0545
     33 N          -3.0391    1.2243    0.7784 N.ar    1  UNL1       -0.3062
     34 C          -2.6961    2.4419    0.1196 C.ar    1  UNL1        0.0478
     35 C          -1.4686    3.0561    0.2651 C.ar    1  UNL1       -0.0378
     36 C          -1.1682    4.2466   -0.3947 C.ar    1  UNL1       -0.0593
     37 C          -2.0809    4.8491   -1.2110 C.ar    1  UNL1       -0.0500
     38 C          -3.3168    4.2464   -1.3681 C.ar    1  UNL1        0.0568
     39 C          -4.2878    4.9287   -2.2642 C.3     1  UNL1        0.4175
     40 F          -5.0993    5.8074   -1.5481 F       1  UNL1       -0.1659
     41 F          -5.1456    3.9518   -2.7619 F       1  UNL1       -0.1659
     42 F          -3.6899    5.6489   -3.2576 F       1  UNL1       -0.1659
     43 C          -3.6049    3.0670   -0.7101 C.ar    1  UNL1       -0.0262
     44 H          -0.1426   -6.1084    1.6589 H       1  UNL1        0.0230
     45 H          -1.8923   -6.2523    1.2311 H       1  UNL1        0.0230
     46 H          -0.6440   -7.0283    0.2220 H       1  UNL1        0.0230
     47 H          -0.6241   -4.0981    0.7447 H       1  UNL1        0.0263
     48 H           0.1651   -5.0267   -0.5919 H       1  UNL1        0.0263
     49 H          -2.8874   -4.7490   -0.2169 H       1  UNL1        0.0265
     50 H          -2.0212   -5.7932   -1.3927 H       1  UNL1        0.0265
     51 H          -1.3093   -3.8566   -2.6648 H       1  UNL1        0.0265
     52 H          -3.0686   -3.8909   -2.4009 H       1  UNL1        0.0265
     53 H          -3.1243   -2.0745   -0.9091 H       1  UNL1        0.0272
     54 H          -2.2381   -1.6566   -2.4294 H       1  UNL1        0.0272
     55 H          -0.7939   -2.0338    0.2418 H       1  UNL1        0.0385
     56 H           0.0228   -1.3416   -2.6567 H       1  UNL1        0.0320
     57 H           0.3500   -2.8385   -1.7927 H       1  UNL1        0.0320
     58 H           1.3657    0.6760   -2.2644 H       1  UNL1        0.0620
     59 H           3.3893    1.5926   -1.4659 H       1  UNL1        0.0625
     60 H           5.0553    2.3153   -0.8030 H       1  UNL1        0.1490
     61 H           7.0378    3.2511   -0.0189 H       1  UNL1        0.0467
     62 H           6.7620    2.2249    1.4850 H       1  UNL1        0.0467
     63 H           7.8933    0.2867    0.2944 H       1  UNL1        0.0393
     64 H           8.0487    1.3210   -1.1429 H       1  UNL1        0.0393
     65 H          10.1792    3.4072    1.6240 H       1  UNL1        0.2951
     66 H           4.0968   -1.8664    0.8989 H       1  UNL1        0.0625
     67 H           1.9652   -2.8146    0.0766 H       1  UNL1        0.0620
     68 H          -2.8633   -2.0022    1.4079 H       1  UNL1        0.0646
     69 H          -4.8466   -1.7663    3.4020 H       1  UNL1        0.0639
     70 H          -6.2707    2.2092    3.8986 H       1  UNL1        0.0633
     71 H          -4.7220    2.9661    2.0985 H       1  UNL1        0.0639
     72 H          -0.7462    2.5793    0.9113 H       1  UNL1        0.0638
     73 H          -0.1989    4.7294   -0.2783 H       1  UNL1        0.0618
     74 H          -1.8323    5.7760   -1.7181 H       1  UNL1        0.0623
     75 H          -4.5891    2.6075   -0.8488 H       1  UNL1        0.0644
@<TRIPOS>BOND
     1     1     2    1
     2     2     3    1
     3     3     4    1
     4     4     5    1
     5     5     6    1
     6     6     7    1
     7     7     8    1
     8     8     9   ar
     9     9    10   ar
    10    10    11   ar
    11    11    12    1
    12    12    13    2
    13    12    14   am
    14    14    15    1
    15    15    16    1
    16    16    17    1
    17    17    18    2
    18    17    19    1
    19    11    20   ar
    20    20    21   ar
    21     6    22    1
    22    22    23    2
    23    22    24    1
    24    24    25   ar
    25    25    26   ar
    26    26    27   ar
    27    27    28   ar
    28    28    29    1
    29    28    30   ar
    30    30    31   ar
    31    31    32   ar
    32    32    33   ar
    33    33    34    1
    34    34    35   ar
    35    35    36   ar
    36    36    37   ar
    37    37    38   ar
    38    38    39    1
    39    39    40    1
    40    39    41    1
    41    39    42    1
    42    38    43   ar
    43    21     8   ar
    44    33    24   ar
    45    43    34   ar
    46    32    26   ar
    47     1    44    1
    48     1    45    1
    49     1    46    1
    50     2    47    1
    51     2    48    1
    52     3    49    1
    53     3    50    1
    54     4    51    1
    55     4    52    1
    56     5    53    1
    57     5    54    1
    58     6    55    1
    59     7    56    1
    60     7    57    1
    61     9    58    1
    62    10    59    1
    63    14    60    1
    64    15    61    1
    65    15    62    1
    66    16    63    1
    67    16    64    1
    68    19    65    1
    69    20    66    1
    70    21    67    1
    71    25    68    1
    72    27    69    1
    73    30    70    1
    74    31    71    1
    75    35    72    1
    76    36    73    1
    77    37    74    1
    78    43    75    1
