
     RDKit          3D

 75 78  0  0  0  0  0  0  0  0999 V2000
   -0.8743   -6.1699    0.8523 C   0  0  0  0  0  0  0  0  0  0  0  0
   -0.7520   -4.8784    0.0009 C   0  0  0  0  0  0  0  0  0  0  0  0
   -1.9591   -4.7777   -0.8689 C   0  0  0  0  0  0  0  0  0  0  0  0
   -2.0823   -3.6733   -1.8306 C   0  0  0  0  0  0  0  0  0  0  0  0
   -2.1463   -2.2703   -1.4528 C   0  0  0  0  0  0  0  0  0  0  0  0
   -0.9968   -1.6119   -0.7458 C   0  0  1  0  0  0  0  0  0  0  0  0
    0.1946   -1.7328   -1.6127 C   0  0  0  0  0  0  0  0  0  0  0  0
    1.4530   -1.1831   -1.1513 C   0  0  0  0  0  0  0  0  0  0  0  0
    1.8877    0.0486   -1.5602 C   0  0  0  0  0  0  0  0  0  0  0  0
    3.0990    0.6155   -1.1079 C   0  0  0  0  0  0  0  0  0  0  0  0
    3.8896   -0.0644   -0.2307 C   0  0  0  0  0  0  0  0  0  0  0  0
    5.1359    0.4596    0.2679 C   0  0  0  0  0  0  0  0  0  0  0  0
    5.8209   -0.2366    1.0853 O   0  0  0  0  0  0  0  0  0  0  0  0
    5.6011    1.7337   -0.1415 N   0  0  0  0  0  0  0  0  0  0  0  0
    6.8622    2.2350    0.3724 C   0  0  0  0  0  0  0  0  0  0  0  0
    7.9948    1.3322   -0.0272 C   0  0  0  0  0  0  0  0  0  0  0  0
    9.2610    1.9162    0.5352 C   0  0  0  0  0  0  0  0  0  0  0  0
   10.3154    1.2602    0.2799 O   0  0  0  0  0  0  0  0  0  0  0  0
    9.2725    3.0790    1.2735 O   0  0  0  0  0  0  0  0  0  0  0  0
    3.4751   -1.3152    0.2003 C   0  0  0  0  0  0  0  0  0  0  0  0
    2.2947   -1.8401   -0.2551 C   0  0  0  0  0  0  0  0  0  0  0  0
   -1.4693   -0.1975   -0.5202 C   0  0  0  0  0  0  0  0  0  0  0  0
   -1.0197    0.7366   -1.1665 O   0  0  0  0  0  0  0  0  0  0  0  0
   -2.4932    0.0014    0.5131 C   0  0  0  0  0  0  0  0  0  0  0  0
   -3.0608   -0.9425    1.3388 C   0  0  0  0  0  0  0  0  0  0  0  0
   -3.9968   -0.2900    2.1511 C   0  0  0  0  0  0  0  0  0  0  0  0
   -4.8469   -0.7272    3.1446 C   0  0  0  0  0  0  0  0  0  0  0  0
   -5.6690    0.1792    3.7756 C   0  0  0  0  0  0  0  0  0  0  0  0
   -6.7779   -0.3452    5.0601 Cl  0  0  0  0  0  0  0  0  0  0  0  0
   -5.6283    1.5043    3.4046 C   0  0  0  0  0  0  0  0  0  0  0  0
   -4.7724    1.9168    2.4113 C   0  0  0  0  0  0  0  0  0  0  0  0
   -3.9314    1.0247    1.7570 C   0  0  0  0  0  0  0  0  0  0  0  0
   -3.0391    1.2243    0.7784 N   0  0  0  0  0  0  0  0  0  0  0  0
   -2.6961    2.4419    0.1196 C   0  0  0  0  0  0  0  0  0  0  0  0
   -1.4686    3.0561    0.2651 C   0  0  0  0  0  0  0  0  0  0  0  0
   -1.1682    4.2466   -0.3947 C   0  0  0  0  0  0  0  0  0  0  0  0
   -2.0809    4.8491   -1.2110 C   0  0  0  0  0  0  0  0  0  0  0  0
   -3.3168    4.2464   -1.3681 C   0  0  0  0  0  0  0  0  0  0  0  0
   -4.2878    4.9287   -2.2642 C   0  0  0  0  0  0  0  0  0  0  0  0
   -5.0993    5.8074   -1.5481 F   0  0  0  0  0  0  0  0  0  0  0  0
   -5.1456    3.9518   -2.7619 F   0  0  0  0  0  0  0  0  0  0  0  0
   -3.6899    5.6489   -3.2576 F   0  0  0  0  0  0  0  0  0  0  0  0
   -3.6049    3.0670   -0.7101 C   0  0  0  0  0  0  0  0  0  0  0  0
   -0.1426   -6.1084    1.6589 H   0  0  0  0  0  0  0  0  0  0  0  0
   -1.8923   -6.2523    1.2311 H   0  0  0  0  0  0  0  0  0  0  0  0
   -0.6440   -7.0283    0.2220 H   0  0  0  0  0  0  0  0  0  0  0  0
   -0.6241   -4.0981    0.7447 H   0  0  0  0  0  0  0  0  0  0  0  0
    0.1651   -5.0267   -0.5919 H   0  0  0  0  0  0  0  0  0  0  0  0
   -2.8874   -4.7490   -0.2169 H   0  0  0  0  0  0  0  0  0  0  0  0
   -2.0212   -5.7932   -1.3927 H   0  0  0  0  0  0  0  0  0  0  0  0
   -1.3093   -3.8566   -2.6648 H   0  0  0  0  0  0  0  0  0  0  0  0
   -3.0686   -3.8909   -2.4009 H   0  0  0  0  0  0  0  0  0  0  0  0
   -3.1243   -2.0745   -0.9091 H   0  0  0  0  0  0  0  0  0  0  0  0
   -2.2381   -1.6566   -2.4294 H   0  0  0  0  0  0  0  0  0  0  0  0
   -0.7939   -2.0338    0.2418 H   0  0  0  0  0  0  0  0  0  0  0  0
    0.0228   -1.3416   -2.6567 H   0  0  0  0  0  0  0  0  0  0  0  0
    0.3500   -2.8385   -1.7927 H   0  0  0  0  0  0  0  0  0  0  0  0
    1.3657    0.6760   -2.2644 H   0  0  0  0  0  0  0  0  0  0  0  0
    3.3893    1.5926   -1.4659 H   0  0  0  0  0  0  0  0  0  0  0  0
    5.0553    2.3153   -0.8030 H   0  0  0  0  0  0  0  0  0  0  0  0
    7.0378    3.2511   -0.0189 H   0  0  0  0  0  0  0  0  0  0  0  0
    6.7620    2.2249    1.4850 H   0  0  0  0  0  0  0  0  0  0  0  0
    7.8933    0.2867    0.2944 H   0  0  0  0  0  0  0  0  0  0  0  0
    8.0487    1.3210   -1.1429 H   0  0  0  0  0  0  0  0  0  0  0  0
   10.1792    3.4072    1.6240 H   0  0  0  0  0  0  0  0  0  0  0  0
    4.0968   -1.8664    0.8989 H   0  0  0  0  0  0  0  0  0  0  0  0
    1.9652   -2.8146    0.0766 H   0  0  0  0  0  0  0  0  0  0  0  0
   -2.8633   -2.0022    1.4079 H   0  0  0  0  0  0  0  0  0  0  0  0
   -4.8466   -1.7663    3.4020 H   0  0  0  0  0  0  0  0  0  0  0  0
   -6.2707    2.2092    3.8986 H   0  0  0  0  0  0  0  0  0  0  0  0
   -4.7220    2.9661    2.0985 H   0  0  0  0  0  0  0  0  0  0  0  0
   -0.7462    2.5793    0.9113 H   0  0  0  0  0  0  0  0  0  0  0  0
   -0.1989    4.7294   -0.2783 H   0  0  0  0  0  0  0  0  0  0  0  0
   -1.8323    5.7760   -1.7181 H   0  0  0  0  0  0  0  0  0  0  0  0
   -4.5891    2.6075   -0.8488 H   0  0  0  0  0  0  0  0  0  0  0  0
  1  2  1  0
  2  3  1  0
  3  4  1  0
  4  5  1  0
  5  6  1  0
  6  7  1  0
  7  8  1  0
  8  9  2  0
  9 10  1  0
 10 11  2  0
 11 12  1  0
 12 13  2  0
 12 14  1  0
 14 15  1  0
 15 16  1  0
 16 17  1  0
 17 18  2  0
 17 19  1  0
 11 20  1  0
 20 21  2  0
  6 22  1  0
 22 23  2  0
 22 24  1  0
 24 25  2  0
 25 26  1  0
 26 27  2  0
 27 28  1  0
 28 29  1  0
 28 30  2  0
 30 31  1  0
 31 32  2  0
 32 33  1  0
 33 34  1  0
 34 35  2  0
 35 36  1  0
 36 37  2  0
 37 38  1  0
 38 39  1  0
 39 40  1  0
 39 41  1  0
 39 42  1  0
 38 43  2  0
 21  8  1  0
 33 24  1  0
 43 34  1  0
 32 26  1  0
  1 44  1  0
  1 45  1  0
  1 46  1  0
  2 47  1  0
  2 48  1  0
  3 49  1  0
  3 50  1  0
  4 51  1  0
  4 52  1  0
  5 53  1  0
  5 54  1  0
  6 55  1  1
  7 56  1  0
  7 57  1  0
  9 58  1  0
 10 59  1  0
 14 60  1  0
 15 61  1  0
 15 62  1  0
 16 63  1  0
 16 64  1  0
 19 65  1  0
 20 66  1  0
 21 67  1  0
 25 68  1  0
 27 69  1  0
 30 70  1  0
 31 71  1  0
 35 72  1  0
 36 73  1  0
 37 74  1  0
 43 75  1  0
M  END
$$$$
