
     RDKit          3D

 59 61  0  0  0  0  0  0  0  0999 V2000
   -4.9918    2.3932   -1.4127 C   0  0  0  0  0  0  0  0  0  0  0  0
   -4.6569    1.2868   -0.4454 C   0  0  0  0  0  0  0  0  0  0  0  0
   -3.2156    1.0123   -0.4833 C   0  0  0  0  0  0  0  0  0  0  0  0
   -2.9377    1.8833   -1.3649 O   0  0  0  0  0  0  0  0  0  0  0  0
   -2.4953    0.0573    0.2722 N   0  0  0  0  0  0  0  0  0  0  0  0
   -3.3337   -0.7006    1.1639 C   0  0  0  0  0  0  0  0  0  0  0  0
   -3.7841   -1.8313    0.4910 C   0  0  0  0  0  0  0  0  0  0  0  0
   -4.6216   -2.7524    1.1177 C   0  0  0  0  0  0  0  0  0  0  0  0
   -4.9974   -2.5091    2.4430 C   0  0  0  0  0  0  0  0  0  0  0  0
   -4.5317   -1.3834    3.0695 C   0  0  0  0  0  0  0  0  0  0  0  0
   -3.7039   -0.4656    2.4619 C   0  0  0  0  0  0  0  0  0  0  0  0
   -1.0639    0.0553   -0.0278 C   0  0  0  0  0  0  0  0  0  0  0  0
   -0.4349    1.3804    0.2387 C   0  0  0  0  0  0  0  0  0  0  0  0
    1.0370    1.2837    0.3920 C   0  0  0  0  0  0  0  0  0  0  0  0
    1.6097    0.0241    0.0780 N   0  0  0  0  0  0  0  0  0  0  0  0
    3.0163   -0.0450    0.3178 C   0  0  0  0  0  0  0  0  0  0  0  0
    3.8311    0.8117   -0.6162 C   0  0  0  0  0  0  0  0  0  0  0  0
    5.2585    0.6362   -0.2443 C   0  0  0  0  0  0  0  0  0  0  0  0
    5.9414   -0.4038   -0.8847 C   0  0  0  0  0  0  0  0  0  0  0  0
    7.2827   -0.6732   -0.6312 C   0  0  0  0  0  0  0  0  0  0  0  0
    7.9307    0.1254    0.2830 C   0  0  0  0  0  0  0  0  0  0  0  0
    7.2766    1.1653    0.9339 C   0  0  0  0  0  0  0  0  0  0  0  0
    5.9401    1.4300    0.6780 C   0  0  0  0  0  0  0  0  0  0  0  0
    0.9931   -1.1107    0.6682 C   0  0  0  0  0  0  0  0  0  0  0  0
   -0.4719   -0.9406    0.9552 C   0  0  0  0  0  0  0  0  0  0  0  0
   -0.8163   -0.3225   -1.4350 C   0  0  0  0  0  0  0  0  0  0  0  0
    0.2237   -0.4560   -2.1461 O   0  0  0  0  0  0  0  0  0  0  0  0
   -1.8515   -0.6309   -2.3039 O   0  0  0  0  0  0  0  0  0  0  0  0
   -1.5959   -0.9862   -3.6279 C   0  0  0  0  0  0  0  0  0  0  0  0
   -4.9041    2.0787   -2.4656 H   0  0  0  0  0  0  0  0  0  0  0  0
   -4.2886    3.2383   -1.1557 H   0  0  0  0  0  0  0  0  0  0  0  0
   -5.9978    2.8241   -1.1940 H   0  0  0  0  0  0  0  0  0  0  0  0
   -5.0152    1.6307    0.5618 H   0  0  0  0  0  0  0  0  0  0  0  0
   -5.2245    0.3455   -0.6829 H   0  0  0  0  0  0  0  0  0  0  0  0
   -3.5791   -2.1509   -0.5270 H   0  0  0  0  0  0  0  0  0  0  0  0
   -5.0167   -3.6528    0.6744 H   0  0  0  0  0  0  0  0  0  0  0  0
   -5.6458   -3.1919    2.9775 H   0  0  0  0  0  0  0  0  0  0  0  0
   -4.7968   -1.1556    4.0922 H   0  0  0  0  0  0  0  0  0  0  0  0
   -3.2818    0.4372    2.8436 H   0  0  0  0  0  0  0  0  0  0  0  0
   -0.9048    1.8095    1.1481 H   0  0  0  0  0  0  0  0  0  0  0  0
   -0.7276    2.0428   -0.6306 H   0  0  0  0  0  0  0  0  0  0  0  0
    1.5049    2.0242   -0.3052 H   0  0  0  0  0  0  0  0  0  0  0  0
    1.3204    1.6628    1.4061 H   0  0  0  0  0  0  0  0  0  0  0  0
    3.3496   -1.0914    0.1635 H   0  0  0  0  0  0  0  0  0  0  0  0
    3.3114    0.2350    1.3512 H   0  0  0  0  0  0  0  0  0  0  0  0
    3.6252    1.9042   -0.4785 H   0  0  0  0  0  0  0  0  0  0  0  0
    3.7161    0.5576   -1.6768 H   0  0  0  0  0  0  0  0  0  0  0  0
    5.4325   -1.0471   -1.6153 H   0  0  0  0  0  0  0  0  0  0  0  0
    7.7639   -1.4761   -1.1420 H   0  0  0  0  0  0  0  0  0  0  0  0
    8.9542   -0.1124    0.4480 H   0  0  0  0  0  0  0  0  0  0  0  0
    7.8169    1.7799    1.6514 H   0  0  0  0  0  0  0  0  0  0  0  0
    5.3844    2.2212    1.1526 H   0  0  0  0  0  0  0  0  0  0  0  0
    1.5450   -1.4997    1.5458 H   0  0  0  0  0  0  0  0  0  0  0  0
    1.0479   -1.9419   -0.0945 H   0  0  0  0  0  0  0  0  0  0  0  0
   -1.0199   -1.9053    0.9732 H   0  0  0  0  0  0  0  0  0  0  0  0
   -0.5655   -0.4665    1.9507 H   0  0  0  0  0  0  0  0  0  0  0  0
   -2.4442   -0.7908   -4.3165 H   0  0  0  0  0  0  0  0  0  0  0  0
   -1.4932   -2.1119   -3.6249 H   0  0  0  0  0  0  0  0  0  0  0  0
   -0.7037   -0.5309   -4.0842 H   0  0  0  0  0  0  0  0  0  0  0  0
  1  2  1  0
  2  3  1  0
  3  4  2  0
  3  5  1  0
  5  6  1  0
  6  7  2  0
  7  8  1  0
  8  9  2  0
  9 10  1  0
 10 11  2  0
  5 12  1  0
 12 13  1  0
 13 14  1  0
 14 15  1  0
 15 16  1  0
 16 17  1  0
 17 18  1  0
 18 19  2  0
 19 20  1  0
 20 21  2  0
 21 22  1  0
 22 23  2  0
 15 24  1  0
 24 25  1  0
 12 26  1  0
 26 27  2  0
 26 28  1  0
 28 29  1  0
 11  6  1  0
 25 12  1  0
 23 18  1  0
  1 30  1  0
  1 31  1  0
  1 32  1  0
  2 33  1  0
  2 34  1  0
  7 35  1  0
  8 36  1  0
  9 37  1  0
 10 38  1  0
 11 39  1  0
 13 40  1  0
 13 41  1  0
 14 42  1  0
 14 43  1  0
 16 44  1  0
 16 45  1  0
 17 46  1  0
 17 47  1  0
 19 48  1  0
 20 49  1  0
 21 50  1  0
 22 51  1  0
 23 52  1  0
 24 53  1  0
 24 54  1  0
 25 55  1  0
 25 56  1  0
 29 57  1  0
 29 58  1  0
 29 59  1  0
M  END
$$$$
