@<TRIPOS>MOLECULE
*****
 54 57 0 0 0
SMALL
GASTEIGER

@<TRIPOS>ATOM
      1 C          -3.0827    4.3731    1.3759 C.3     1  UNL1        0.0127
      2 C          -1.7471    3.7245    1.2393 C.2     1  UNL1        0.2169
      3 O          -0.7650    4.2389    1.7994 O.2     1  UNL1       -0.2756
      4 N          -1.6207    2.5428    0.4796 N.am    1  UNL1       -0.2685
      5 C          -0.3474    1.9415    0.2804 C.ar    1  UNL1        0.0415
      6 C           0.7646    2.7642    0.1204 C.ar    1  UNL1       -0.0394
      7 C           1.9898    2.1606   -0.0579 C.ar    1  UNL1       -0.0523
      8 C           2.1376    0.7917   -0.0814 C.ar    1  UNL1       -0.0175
      9 C           3.4578    0.1765   -0.2729 C.ar    1  UNL1       -0.0178
     10 C           4.5808    0.8141    0.2049 C.ar    1  UNL1       -0.0533
     11 C           5.8547    0.2779    0.0513 C.ar    1  UNL1       -0.0472
     12 C           6.0155   -0.9219   -0.5933 C.ar    1  UNL1        0.0589
     13 C           7.3345   -1.5065   -0.7687 C.2     1  UNL1        0.3368
     14 O           8.3442   -0.9099   -0.3264 O.2     1  UNL1       -0.2451
     15 O           7.5235   -2.7157   -1.4154 O.3     1  UNL1       -0.4771
     16 C           4.8806   -1.5643   -1.0750 C.ar    1  UNL1       -0.0472
     17 C           3.6234   -1.0169   -0.9134 C.ar    1  UNL1       -0.0533
     18 C           1.0234   -0.0075    0.0784 C.ar    1  UNL1       -0.0473
     19 C          -0.2116    0.5478    0.2577 C.ar    1  UNL1       -0.0053
     20 C          -1.4833   -0.2150    0.4287 C.3     1  UNL1        0.0493
     21 N          -1.3903   -1.5754   -0.0273 N.pl3   1  UNL1       -0.3369
     22 C          -2.3497   -2.5522    0.2973 C.ar    1  UNL1        0.0277
     23 C          -2.2343   -3.8460   -0.2355 C.ar    1  UNL1       -0.0395
     24 C          -3.1127   -4.8555    0.0470 C.ar    1  UNL1       -0.0416
     25 C          -4.1711   -4.6210    0.8917 C.ar    1  UNL1        0.0411
     26 CL         -5.3255   -5.8861    1.2838 Cl      1  UNL1       -0.0835
     27 C          -4.3170   -3.3675    1.4331 C.ar    1  UNL1       -0.0416
     28 C          -3.4216   -2.3497    1.1415 C.ar    1  UNL1       -0.0395
     29 C          -2.5470    0.4492   -0.4492 C.3     1  UNL1       -0.0115
     30 C          -2.7874    1.8810   -0.1164 C.3     1  UNL1        0.0303
     31 C          -3.2767    2.5948   -1.3415 C.3     1  UNL1       -0.0460
     32 H          -3.0092    5.2761    2.0231 H       1  UNL1        0.0323
     33 H          -3.4137    4.7078    0.3735 H       1  UNL1        0.0323
     34 H          -3.8248    3.6481    1.7460 H       1  UNL1        0.0323
     35 H           0.6424    3.8466    0.1336 H       1  UNL1        0.0636
     36 H           2.8635    2.8096   -0.1834 H       1  UNL1        0.0624
     37 H           4.5204    1.7568    0.7188 H       1  UNL1        0.0624
     38 H           6.7340    0.7833    0.4288 H       1  UNL1        0.0626
     39 H           8.3683   -3.2274   -1.1940 H       1  UNL1        0.2954
     40 H           5.0205   -2.5210   -1.5878 H       1  UNL1        0.0626
     41 H           2.7377   -1.5118   -1.2858 H       1  UNL1        0.0624
     42 H           1.1214   -1.0711    0.0665 H       1  UNL1        0.0628
     43 H          -1.7901   -0.1249    1.4743 H       1  UNL1        0.0549
     44 H          -0.5847   -1.8430   -0.6237 H       1  UNL1        0.1467
     45 H          -1.3964   -4.0446   -0.9089 H       1  UNL1        0.0636
     46 H          -2.9913   -5.8568   -0.3885 H       1  UNL1        0.0633
     47 H          -5.1574   -3.1618    2.1105 H       1  UNL1        0.0633
     48 H          -3.5582   -1.3738    1.5985 H       1  UNL1        0.0636
     49 H          -2.2661    0.3594   -1.5282 H       1  UNL1        0.0304
     50 H          -3.4745   -0.1215   -0.3408 H       1  UNL1        0.0304
     51 H          -3.5981    1.9463    0.6599 H       1  UNL1        0.0502
     52 H          -3.4483    1.9003   -2.2030 H       1  UNL1        0.0248
     53 H          -4.2732    3.0897   -1.1759 H       1  UNL1        0.0248
     54 H          -2.5615    3.3663   -1.7191 H       1  UNL1        0.0248
@<TRIPOS>BOND
     1     1     2    1
     2     2     3    2
     3     2     4   am
     4     4     5    1
     5     5     6   ar
     6     6     7   ar
     7     7     8   ar
     8     8     9    1
     9     9    10   ar
    10    10    11   ar
    11    11    12   ar
    12    12    13    1
    13    13    14    2
    14    13    15    1
    15    12    16   ar
    16    16    17   ar
    17     8    18   ar
    18    18    19   ar
    19    19    20    1
    20    20    21    1
    21    21    22    1
    22    22    23   ar
    23    23    24   ar
    24    24    25   ar
    25    25    26    1
    26    25    27   ar
    27    27    28   ar
    28    20    29    1
    29    29    30    1
    30    30    31    1
    31    30     4    1
    32    19     5   ar
    33    28    22   ar
    34    17     9   ar
    35     1    32    1
    36     1    33    1
    37     1    34    1
    38     6    35    1
    39     7    36    1
    40    10    37    1
    41    11    38    1
    42    15    39    1
    43    16    40    1
    44    17    41    1
    45    18    42    1
    46    20    43    1
    47    21    44    1
    48    23    45    1
    49    24    46    1
    50    27    47    1
    51    28    48    1
    52    29    49    1
    53    29    50    1
    54    30    51    1
    55    31    52    1
    56    31    53    1
    57    31    54    1
