@<TRIPOS>MOLECULE
*****
 46 48 0 0 0
SMALL
GASTEIGER

@<TRIPOS>ATOM
      1 C          -1.7211   -1.9142   -0.7291 C.3     1  UNL1       -0.0379
      2 C          -2.7763   -0.9359   -0.3195 C.ar    1  UNL1       -0.0285
      3 C          -4.0269   -1.3801    0.0559 C.ar    1  UNL1       -0.0499
      4 C          -4.9322   -0.4096    0.4205 C.ar    1  UNL1       -0.0238
      5 C          -6.2815   -0.7812    0.8261 C.2     1  UNL1       -0.0444
      6 C          -6.8067   -1.9886    0.9030 C.2     1  UNL1        0.0159
      7 C          -8.1545   -2.2519    1.3164 C.1     1  UNL1        0.0914
      8 N          -9.2460   -2.4654    1.6482 N.1     1  UNL1       -0.1915
      9 C          -4.6159    0.9305    0.4141 C.ar    1  UNL1       -0.0499
     10 C          -3.3660    1.3775    0.0390 C.ar    1  UNL1       -0.0285
     11 C          -3.1325    2.8410    0.0625 C.3     1  UNL1       -0.0379
     12 C          -2.4391    0.3990   -0.3334 C.ar    1  UNL1        0.0383
     13 N          -1.1727    0.9128   -0.7172 N.pl3   1  UNL1       -0.2989
     14 C           0.1385    1.1673   -0.2284 C.ar    1  UNL1        0.1280
     15 C           0.3940    2.3100    0.4959 C.ar    1  UNL1       -0.0033
     16 C           1.6910    2.4869    0.9196 C.ar    1  UNL1        0.0344
     17 N           2.6038    1.5623    0.6106 N.ar    1  UNL1       -0.2225
     18 C           2.3275    0.4595   -0.0962 C.ar    1  UNL1        0.2212
     19 N           3.3060   -0.5102   -0.4323 N.pl3   1  UNL1       -0.2836
     20 C           4.6945   -0.5498   -0.1619 C.ar    1  UNL1        0.0336
     21 C           5.5162   -1.5473   -0.5953 C.ar    1  UNL1       -0.0393
     22 C           6.8682   -1.6646   -0.3879 C.ar    1  UNL1       -0.0426
     23 C           7.4694   -0.6415    0.3531 C.ar    1  UNL1        0.0519
     24 C           6.7116    0.3992    0.8263 C.ar    1  UNL1       -0.0426
     25 C           5.3598    0.4291    0.5662 C.ar    1  UNL1       -0.0393
     26 C           8.8892   -0.7766    0.5603 C.1     1  UNL1        0.0992
     27 N          10.0360   -0.8765    0.7459 N.1     1  UNL1       -0.1909
     28 N           1.0739    0.2527   -0.5262 N.ar    1  UNL1       -0.1992
     29 H          -0.9244   -1.9768    0.0369 H       1  UNL1        0.0278
     30 H          -2.1783   -2.9374   -0.7628 H       1  UNL1        0.0278
     31 H          -1.3243   -1.6937   -1.7474 H       1  UNL1        0.0278
     32 H          -4.2484   -2.4368    0.0531 H       1  UNL1        0.0627
     33 H          -7.0114   -0.0083    1.1199 H       1  UNL1        0.0630
     34 H          -6.1538   -2.8057    0.6286 H       1  UNL1        0.0733
     35 H          -5.3790    1.6639    0.7157 H       1  UNL1        0.0627
     36 H          -2.3805    3.0942   -0.7170 H       1  UNL1        0.0278
     37 H          -4.1052    3.3405   -0.1821 H       1  UNL1        0.0278
     38 H          -2.7883    3.1169    1.0738 H       1  UNL1        0.0278
     39 H          -1.2133    1.2118   -1.7201 H       1  UNL1        0.1536
     40 H          -0.3296    3.0429    0.7417 H       1  UNL1        0.0667
     41 H           2.0553    3.3275    1.4982 H       1  UNL1        0.0832
     42 H           2.9817   -1.3654   -0.9785 H       1  UNL1        0.1550
     43 H           5.0808   -2.3647   -1.1771 H       1  UNL1        0.0636
     44 H           7.4297   -2.4991   -0.7760 H       1  UNL1        0.0631
     45 H           7.2184    1.1825    1.4057 H       1  UNL1        0.0631
     46 H           4.8623    1.2734    0.9744 H       1  UNL1        0.0636
@<TRIPOS>BOND
     1     1     2    1
     2     2     3   ar
     3     3     4   ar
     4     4     5    1
     5     5     6    2
     6     6     7    1
     7     7     8    3
     8     4     9   ar
     9     9    10   ar
    10    10    11    1
    11    10    12   ar
    12    12    13    1
    13    13    14    1
    14    14    15   ar
    15    15    16   ar
    16    16    17   ar
    17    17    18   ar
    18    18    19    1
    19    19    20    1
    20    20    21   ar
    21    21    22   ar
    22    22    23   ar
    23    23    24   ar
    24    24    25   ar
    25    23    26    1
    26    26    27    3
    27    18    28   ar
    28    12     2   ar
    29    28    14   ar
    30    25    20   ar
    31     1    29    1
    32     1    30    1
    33     1    31    1
    34     3    32    1
    35     5    33    1
    36     6    34    1
    37     9    35    1
    38    11    36    1
    39    11    37    1
    40    11    38    1
    41    13    39    1
    42    15    40    1
    43    16    41    1
    44    19    42    1
    45    21    43    1
    46    22    44    1
    47    24    45    1
    48    25    46    1
