@<TRIPOS>MOLECULE
*****
 61 65 0 0 0
SMALL
GASTEIGER

@<TRIPOS>ATOM
      1 C           8.1095    1.2193    0.2973 C.3     1  UNL1        0.0804
      2 O           6.7598    0.8334    0.1969 O.3     1  UNL1       -0.4796
      3 C           5.7810    1.8110    0.2934 C.ar    1  UNL1        0.2162
      4 C           4.4220    1.4657    0.1981 C.ar    1  UNL1        0.0212
      5 C           3.4147    2.3816    0.2854 C.ar    1  UNL1        0.0400
      6 N           2.0573    2.1315    0.2105 N.pl3   1  UNL1       -0.2834
      7 C           1.4443    0.8627    0.1478 C.ar    1  UNL1        0.2212
      8 N           2.1359   -0.2734    0.1962 N.ar    1  UNL1       -0.2219
      9 C           1.5263   -1.4580    0.1360 C.ar    1  UNL1        0.0437
     10 C           0.1517   -1.6183    0.0203 C.ar    1  UNL1        0.0583
     11 C          -0.4766   -2.9397   -0.0448 C.ar    1  UNL1        0.0764
     12 C           0.3203   -4.0752    0.0140 C.ar    1  UNL1       -0.0349
     13 C          -0.2063   -5.3673   -0.0418 C.ar    1  UNL1       -0.0505
     14 C          -1.5682   -5.5061   -0.1595 C.ar    1  UNL1        0.0004
     15 C          -2.1672   -6.7491   -0.2213 C.ar    1  UNL1       -0.0526
     16 C          -3.5277   -6.8281   -0.3387 C.ar    1  UNL1       -0.0611
     17 C          -4.3523   -5.7272   -0.4002 C.ar    1  UNL1       -0.0597
     18 C          -3.7365   -4.5008   -0.3371 C.ar    1  UNL1       -0.0357
     19 C          -2.3461   -4.3706   -0.2166 C.ar    1  UNL1        0.0717
     20 N          -1.7906   -3.1508   -0.1590 N.ar    1  UNL1       -0.2465
     21 C          -0.5562   -0.4302   -0.0291 C.ar    1  UNL1        0.1334
     22 N          -1.9475   -0.3739   -0.1430 N.pl3   1  UNL1       -0.3230
     23 C          -2.6560    0.8570   -0.1947 C.3     1  UNL1        0.0507
     24 C          -2.2817    1.7828   -1.3311 C.3     1  UNL1       -0.0247
     25 C          -2.7713    3.1521   -0.9008 C.3     1  UNL1        0.0124
     26 C          -1.6126    4.1179   -1.0459 C.3     1  UNL1        0.0495
     27 O          -1.9814    5.4103   -0.6692 O.3     1  UNL1       -0.3946
     28 C          -3.2662    2.9910    0.4898 C.3     1  UNL1        0.0877
     29 O          -4.6144    2.6398    0.4399 O.3     1  UNL1       -0.3888
     30 C          -2.5172    1.7621    1.0019 C.3     1  UNL1        0.0996
     31 O          -3.1577    1.2266    2.1204 O.3     1  UNL1       -0.3874
     32 N           0.1067    0.7306    0.0353 N.ar    1  UNL1       -0.1988
     33 C           3.8379    3.7103    0.4794 C.ar    1  UNL1       -0.0221
     34 C           5.1733    4.0324    0.5707 C.ar    1  UNL1        0.0331
     35 N           6.1129    3.0929    0.4780 N.ar    1  UNL1       -0.2212
     36 H           8.2050    2.2692    0.0008 H       1  UNL1        0.0660
     37 H           8.7210    0.6246   -0.4170 H       1  UNL1        0.0660
     38 H           8.5165    1.1172    1.3268 H       1  UNL1        0.0660
     39 H           4.2392    0.4229    0.0462 H       1  UNL1        0.0689
     40 H           1.3972    2.9533    0.1980 H       1  UNL1        0.1550
     41 H           2.1203   -2.3815    0.1780 H       1  UNL1        0.0838
     42 H           1.3729   -4.0235    0.1046 H       1  UNL1        0.0639
     43 H           0.4013   -6.2368    0.0032 H       1  UNL1        0.0625
     44 H          -1.5111   -7.6122   -0.1721 H       1  UNL1        0.0624
     45 H          -3.9851   -7.8225   -0.3863 H       1  UNL1        0.0618
     46 H          -5.4465   -5.8120   -0.4948 H       1  UNL1        0.0618
     47 H          -4.3234   -3.5836   -0.3798 H       1  UNL1        0.0639
     48 H          -2.5201   -1.2435   -0.1944 H       1  UNL1        0.1479
     49 H          -3.7772    0.6528   -0.2688 H       1  UNL1        0.0524
     50 H          -2.9144    1.4746   -2.1985 H       1  UNL1        0.0288
     51 H          -1.2288    1.7871   -1.5953 H       1  UNL1        0.0288
     52 H          -3.6216    3.4951   -1.5341 H       1  UNL1        0.0349
     53 H          -1.3476    4.1363   -2.1186 H       1  UNL1        0.0561
     54 H          -0.7195    3.7671   -0.4970 H       1  UNL1        0.0561
     55 H          -2.9248    5.4459   -0.3680 H       1  UNL1        0.2094
     56 H          -3.1073    3.8683    1.1391 H       1  UNL1        0.0623
     57 H          -4.8444    1.9237    1.0678 H       1  UNL1        0.2099
     58 H          -1.4696    1.9867    1.1696 H       1  UNL1        0.0638
     59 H          -3.5906    0.3616    1.9422 H       1  UNL1        0.2100
     60 H           3.1108    4.5024    0.5602 H       1  UNL1        0.0651
     61 H           5.4279    5.0841    0.7213 H       1  UNL1        0.0831
@<TRIPOS>BOND
     1     1     2    1
     2     2     3    1
     3     3     4   ar
     4     4     5   ar
     5     5     6    1
     6     6     7    1
     7     7     8   ar
     8     8     9   ar
     9     9    10   ar
    10    10    11    1
    11    11    12   ar
    12    12    13   ar
    13    13    14   ar
    14    14    15   ar
    15    15    16   ar
    16    16    17   ar
    17    17    18   ar
    18    18    19   ar
    19    19    20   ar
    20    10    21   ar
    21    21    22    1
    22    22    23    1
    23    23    24    1
    24    24    25    1
    25    25    26    1
    26    26    27    1
    27    25    28    1
    28    28    29    1
    29    28    30    1
    30    30    31    1
    31    21    32   ar
    32     5    33   ar
    33    33    34   ar
    34    34    35   ar
    35    35     3   ar
    36    32     7   ar
    37    20    11   ar
    38    30    23    1
    39    19    14   ar
    40     1    36    1
    41     1    37    1
    42     1    38    1
    43     4    39    1
    44     6    40    1
    45     9    41    1
    46    12    42    1
    47    13    43    1
    48    15    44    1
    49    16    45    1
    50    17    46    1
    51    18    47    1
    52    22    48    1
    53    23    49    1
    54    24    50    1
    55    24    51    1
    56    25    52    1
    57    26    53    1
    58    26    54    1
    59    27    55    1
    60    28    56    1
    61    29    57    1
    62    30    58    1
    63    31    59    1
    64    33    60    1
    65    34    61    1
