
     RDKit          3D

 61 65  0  0  0  0  0  0  0  0999 V2000
    8.1095    1.2193    0.2973 C   0  0  0  0  0  0  0  0  0  0  0  0
    6.7598    0.8334    0.1969 O   0  0  0  0  0  0  0  0  0  0  0  0
    5.7810    1.8110    0.2934 C   0  0  0  0  0  0  0  0  0  0  0  0
    4.4220    1.4657    0.1981 C   0  0  0  0  0  0  0  0  0  0  0  0
    3.4147    2.3816    0.2854 C   0  0  0  0  0  0  0  0  0  0  0  0
    2.0573    2.1315    0.2105 N   0  0  0  0  0  0  0  0  0  0  0  0
    1.4443    0.8627    0.1478 C   0  0  0  0  0  0  0  0  0  0  0  0
    2.1359   -0.2734    0.1962 N   0  0  0  0  0  0  0  0  0  0  0  0
    1.5263   -1.4580    0.1360 C   0  0  0  0  0  0  0  0  0  0  0  0
    0.1517   -1.6183    0.0203 C   0  0  0  0  0  0  0  0  0  0  0  0
   -0.4766   -2.9397   -0.0448 C   0  0  0  0  0  0  0  0  0  0  0  0
    0.3203   -4.0752    0.0140 C   0  0  0  0  0  0  0  0  0  0  0  0
   -0.2063   -5.3673   -0.0418 C   0  0  0  0  0  0  0  0  0  0  0  0
   -1.5682   -5.5061   -0.1595 C   0  0  0  0  0  0  0  0  0  0  0  0
   -2.1672   -6.7491   -0.2213 C   0  0  0  0  0  0  0  0  0  0  0  0
   -3.5277   -6.8281   -0.3387 C   0  0  0  0  0  0  0  0  0  0  0  0
   -4.3523   -5.7272   -0.4002 C   0  0  0  0  0  0  0  0  0  0  0  0
   -3.7365   -4.5008   -0.3371 C   0  0  0  0  0  0  0  0  0  0  0  0
   -2.3461   -4.3706   -0.2166 C   0  0  0  0  0  0  0  0  0  0  0  0
   -1.7906   -3.1508   -0.1590 N   0  0  0  0  0  0  0  0  0  0  0  0
   -0.5562   -0.4302   -0.0291 C   0  0  0  0  0  0  0  0  0  0  0  0
   -1.9475   -0.3739   -0.1430 N   0  0  0  0  0  0  0  0  0  0  0  0
   -2.6560    0.8570   -0.1947 C   0  0  2  0  0  0  0  0  0  0  0  0
   -2.2817    1.7828   -1.3311 C   0  0  0  0  0  0  0  0  0  0  0  0
   -2.7713    3.1521   -0.9008 C   0  0  2  0  0  0  0  0  0  0  0  0
   -1.6126    4.1179   -1.0459 C   0  0  0  0  0  0  0  0  0  0  0  0
   -1.9814    5.4103   -0.6692 O   0  0  0  0  0  0  0  0  0  0  0  0
   -3.2662    2.9910    0.4898 C   0  0  1  0  0  0  0  0  0  0  0  0
   -4.6144    2.6398    0.4399 O   0  0  0  0  0  0  0  0  0  0  0  0
   -2.5172    1.7621    1.0019 C   0  0  1  0  0  0  0  0  0  0  0  0
   -3.1577    1.2266    2.1204 O   0  0  0  0  0  0  0  0  0  0  0  0
    0.1067    0.7306    0.0353 N   0  0  0  0  0  0  0  0  0  0  0  0
    3.8379    3.7103    0.4794 C   0  0  0  0  0  0  0  0  0  0  0  0
    5.1733    4.0324    0.5707 C   0  0  0  0  0  0  0  0  0  0  0  0
    6.1129    3.0929    0.4780 N   0  0  0  0  0  0  0  0  0  0  0  0
    8.2050    2.2692    0.0008 H   0  0  0  0  0  0  0  0  0  0  0  0
    8.7210    0.6246   -0.4170 H   0  0  0  0  0  0  0  0  0  0  0  0
    8.5165    1.1172    1.3268 H   0  0  0  0  0  0  0  0  0  0  0  0
    4.2392    0.4229    0.0462 H   0  0  0  0  0  0  0  0  0  0  0  0
    1.3972    2.9533    0.1980 H   0  0  0  0  0  0  0  0  0  0  0  0
    2.1203   -2.3815    0.1780 H   0  0  0  0  0  0  0  0  0  0  0  0
    1.3729   -4.0235    0.1046 H   0  0  0  0  0  0  0  0  0  0  0  0
    0.4013   -6.2368    0.0032 H   0  0  0  0  0  0  0  0  0  0  0  0
   -1.5111   -7.6122   -0.1721 H   0  0  0  0  0  0  0  0  0  0  0  0
   -3.9851   -7.8225   -0.3863 H   0  0  0  0  0  0  0  0  0  0  0  0
   -5.4465   -5.8120   -0.4948 H   0  0  0  0  0  0  0  0  0  0  0  0
   -4.3234   -3.5836   -0.3798 H   0  0  0  0  0  0  0  0  0  0  0  0
   -2.5201   -1.2435   -0.1944 H   0  0  0  0  0  0  0  0  0  0  0  0
   -3.7772    0.6528   -0.2688 H   0  0  0  0  0  0  0  0  0  0  0  0
   -2.9144    1.4746   -2.1985 H   0  0  0  0  0  0  0  0  0  0  0  0
   -1.2288    1.7871   -1.5953 H   0  0  0  0  0  0  0  0  0  0  0  0
   -3.6216    3.4951   -1.5341 H   0  0  0  0  0  0  0  0  0  0  0  0
   -1.3476    4.1363   -2.1186 H   0  0  0  0  0  0  0  0  0  0  0  0
   -0.7195    3.7671   -0.4970 H   0  0  0  0  0  0  0  0  0  0  0  0
   -2.9248    5.4459   -0.3680 H   0  0  0  0  0  0  0  0  0  0  0  0
   -3.1073    3.8683    1.1391 H   0  0  0  0  0  0  0  0  0  0  0  0
   -4.8444    1.9237    1.0678 H   0  0  0  0  0  0  0  0  0  0  0  0
   -1.4696    1.9867    1.1696 H   0  0  0  0  0  0  0  0  0  0  0  0
   -3.5906    0.3616    1.9422 H   0  0  0  0  0  0  0  0  0  0  0  0
    3.1108    4.5024    0.5602 H   0  0  0  0  0  0  0  0  0  0  0  0
    5.4279    5.0841    0.7213 H   0  0  0  0  0  0  0  0  0  0  0  0
  1  2  1  0
  2  3  1  0
  3  4  2  0
  4  5  1  0
  5  6  1  0
  6  7  1  0
  7  8  2  0
  8  9  1  0
  9 10  2  0
 10 11  1  0
 11 12  2  0
 12 13  1  0
 13 14  2  0
 14 15  1  0
 15 16  2  0
 16 17  1  0
 17 18  2  0
 18 19  1  0
 19 20  2  0
 10 21  1  0
 21 22  1  0
 22 23  1  0
 23 24  1  0
 24 25  1  0
 25 26  1  0
 26 27  1  0
 25 28  1  0
 28 29  1  0
 28 30  1  0
 30 31  1  0
 21 32  2  0
  5 33  2  0
 33 34  1  0
 34 35  2  0
 35  3  1  0
 32  7  1  0
 20 11  1  0
 30 23  1  0
 19 14  1  0
  1 36  1  0
  1 37  1  0
  1 38  1  0
  4 39  1  0
  6 40  1  0
  9 41  1  0
 12 42  1  0
 13 43  1  0
 15 44  1  0
 16 45  1  0
 17 46  1  0
 18 47  1  0
 22 48  1  0
 23 49  1  6
 24 50  1  0
 24 51  1  0
 25 52  1  6
 26 53  1  0
 26 54  1  0
 27 55  1  0
 28 56  1  1
 29 57  1  0
 30 58  1  1
 31 59  1  0
 33 60  1  0
 34 61  1  0
M  END
$$$$
