@<TRIPOS>MOLECULE
*****
 39 40 0 0 0
SMALL
GASTEIGER

@<TRIPOS>ATOM
      1 O           5.4939    1.7667    0.0695 O.3     1  UNL1       -0.5052
      2 C           4.3491    0.9830    0.0163 C.ar    1  UNL1        0.1389
      3 C           4.3007   -0.2808   -0.5294 C.ar    1  UNL1        0.0236
      4 C           3.0541   -0.9193   -0.4922 C.ar    1  UNL1        0.1346
      5 O           3.1205   -2.2035   -1.0772 O.3     1  UNL1       -0.5058
      6 C           1.8875   -0.3606    0.0535 C.ar    1  UNL1        0.1054
      7 C           2.0084    0.8980    0.5778 C.ar    1  UNL1       -0.0009
      8 C           0.7263    1.4006    1.1233 C.3     1  UNL1        0.0334
      9 C          -0.3469    1.4064    0.0827 C.2     1  UNL1        0.1377
     10 O          -0.5535    1.1263   -1.0846 O.2     1  UNL1       -0.2971
     11 C          -1.5770    1.9446    0.7079 C.3     1  UNL1        0.0064
     12 C          -2.7322    2.0252   -0.2096 C.3     1  UNL1       -0.0429
     13 C          -3.2568    0.7276   -0.7651 C.3     1  UNL1       -0.0344
     14 C          -3.6695   -0.2161    0.2738 C.2     1  UNL1       -0.0878
     15 C          -3.0963   -1.4003    0.2288 C.2     1  UNL1       -0.0847
     16 C          -2.1742   -2.3075   -0.4071 C.3     1  UNL1       -0.0003
     17 C          -1.0795   -2.7857    0.4912 C.3     1  UNL1        0.0962
     18 O          -0.1056   -1.8694    0.8674 O.3     1  UNL1       -0.4608
     19 C           0.7930   -1.3057   -0.0685 C.2     1  UNL1        0.3431
     20 O           0.6003   -1.7200   -1.2656 O.2     1  UNL1       -0.2448
     21 C           3.2163    1.5482    0.5557 C.ar    1  UNL1        0.0869
     22 CL          3.1800    3.1577    1.2753 Cl      1  UNL1       -0.0794
     23 H           6.3869    1.3305   -0.1604 H       1  UNL1        0.2922
     24 H           5.1838   -0.6998   -0.9404 H       1  UNL1        0.0691
     25 H           3.4914   -2.3275   -2.0107 H       1  UNL1        0.2922
     26 H           0.4148    0.7749    1.9979 H       1  UNL1        0.0391
     27 H           0.8639    2.4269    1.5044 H       1  UNL1        0.0391
     28 H          -1.7860    1.3238    1.6200 H       1  UNL1        0.0342
     29 H          -1.3510    2.9620    1.1447 H       1  UNL1        0.0342
     30 H          -2.5105    2.6838   -1.0946 H       1  UNL1        0.0272
     31 H          -3.5794    2.5339    0.3039 H       1  UNL1        0.0272
     32 H          -2.6623    0.2989   -1.5845 H       1  UNL1        0.0307
     33 H          -4.2232    1.0236   -1.2792 H       1  UNL1        0.0307
     34 H          -4.3875    0.0859    0.9919 H       1  UNL1        0.0569
     35 H          -3.4749   -2.0155    1.0644 H       1  UNL1        0.0570
     36 H          -1.6836   -1.9153   -1.3264 H       1  UNL1        0.0340
     37 H          -2.7179   -3.2330   -0.7825 H       1  UNL1        0.0340
     38 H          -0.5793   -3.7018    0.0285 H       1  UNL1        0.0700
     39 H          -1.5240   -3.1669    1.4636 H       1  UNL1        0.0700
@<TRIPOS>BOND
     1     1     2    1
     2     2     3   ar
     3     3     4   ar
     4     4     5    1
     5     4     6   ar
     6     6     7   ar
     7     7     8    1
     8     8     9    1
     9     9    10    2
    10     9    11    1
    11    11    12    1
    12    12    13    1
    13    13    14    1
    14    14    15    2
    15    15    16    1
    16    16    17    1
    17    17    18    1
    18    18    19    1
    19    19    20    2
    20     7    21   ar
    21    21    22    1
    22    21     2   ar
    23    19     6    1
    24     1    23    1
    25     3    24    1
    26     5    25    1
    27     8    26    1
    28     8    27    1
    29    11    28    1
    30    11    29    1
    31    12    30    1
    32    12    31    1
    33    13    32    1
    34    13    33    1
    35    14    34    1
    36    15    35    1
    37    16    36    1
    38    16    37    1
    39    17    38    1
    40    17    39    1
