@<TRIPOS>MOLECULE
*****
 33 36 0 0 0
SMALL
GASTEIGER

@<TRIPOS>ATOM
      1 O          -0.2591    0.8461    3.7310 O.2     1  UNL1       -0.2870
      2 C          -0.1171    0.5942    2.5170 C.ar    1  UNL1        0.1931
      3 C           1.0898    0.7309    1.8471 C.ar    1  UNL1        0.0287
      4 C           1.2471    0.4529    0.5065 C.ar    1  UNL1        0.1392
      5 C           2.5294    0.6051   -0.1758 C.ar    1  UNL1        0.0174
      6 C           3.6866    1.0290    0.4218 C.ar    1  UNL1       -0.0511
      7 C           4.8853    1.1580   -0.2727 C.ar    1  UNL1       -0.0611
      8 C           4.9131    0.8474   -1.6170 C.ar    1  UNL1       -0.0617
      9 C           3.7611    0.4180   -2.2431 C.ar    1  UNL1       -0.0611
     10 C           2.5858    0.3015   -1.5204 C.ar    1  UNL1       -0.0511
     11 O           0.1731    0.0413   -0.1253 O.2     1  UNL1       -0.4540
     12 C          -1.0024   -0.1088    0.4555 C.ar    1  UNL1        0.1469
     13 C          -1.1993    0.1586    1.7918 C.ar    1  UNL1        0.0646
     14 C          -2.4488   -0.0172    2.3403 C.ar    1  UNL1       -0.0468
     15 C          -3.4896   -0.4590    1.5463 C.ar    1  UNL1       -0.0531
     16 C          -3.2701   -0.7224    0.2032 C.ar    1  UNL1       -0.0143
     17 C          -4.3155   -1.1687   -0.6054 C.ar    1  UNL1       -0.0539
     18 C          -4.0786   -1.4248   -1.9356 C.ar    1  UNL1       -0.0612
     19 C          -2.8351   -1.2557   -2.5061 C.ar    1  UNL1       -0.0611
     20 C          -1.7986   -0.8149   -1.7117 C.ar    1  UNL1       -0.0505
     21 C          -2.0320   -0.5555   -0.3713 C.ar    1  UNL1        0.0251
     22 H           1.9286    1.0751    2.4368 H       1  UNL1        0.0693
     23 H           3.6737    1.2733    1.4699 H       1  UNL1        0.0625
     24 H           5.7930    1.4964    0.2214 H       1  UNL1        0.0618
     25 H           5.8531    0.9526   -2.1441 H       1  UNL1        0.0618
     26 H           3.8282    0.1866   -3.2926 H       1  UNL1        0.0618
     27 H           1.6714   -0.0418   -2.0277 H       1  UNL1        0.0625
     28 H          -2.5758    0.2004    3.3937 H       1  UNL1        0.0626
     29 H          -4.4677   -0.5980    1.9695 H       1  UNL1        0.0624
     30 H          -5.2711   -1.2911   -0.1348 H       1  UNL1        0.0624
     31 H          -4.9410   -1.7724   -2.5157 H       1  UNL1        0.0618
     32 H          -2.7129   -1.4731   -3.5538 H       1  UNL1        0.0618
     33 H          -0.8043   -0.6641   -2.1018 H       1  UNL1        0.0625
@<TRIPOS>BOND
     1     1     2    2
     2     2     3   ar
     3     3     4   ar
     4     4     5    1
     5     5     6   ar
     6     6     7   ar
     7     7     8   ar
     8     8     9   ar
     9     9    10   ar
    10     4    11   ar
    11    11    12   ar
    12    12    13   ar
    13    13    14   ar
    14    14    15   ar
    15    15    16   ar
    16    16    17   ar
    17    17    18   ar
    18    18    19   ar
    19    19    20   ar
    20    20    21   ar
    21    13     2   ar
    22    21    16   ar
    23    10     5   ar
    24    21    12   ar
    25     3    22    1
    26     6    23    1
    27     7    24    1
    28     8    25    1
    29     9    26    1
    30    10    27    1
    31    14    28    1
    32    15    29    1
    33    17    30    1
    34    18    31    1
    35    19    32    1
    36    20    33    1
