
     RDKit          3D

 33 36  0  0  0  0  0  0  0  0999 V2000
   -0.2591    0.8461    3.7310 O   0  0  0  0  0  0  0  0  0  0  0  0
   -0.1171    0.5942    2.5170 C   0  0  0  0  0  0  0  0  0  0  0  0
    1.0898    0.7309    1.8471 C   0  0  0  0  0  0  0  0  0  0  0  0
    1.2471    0.4529    0.5065 C   0  0  0  0  0  0  0  0  0  0  0  0
    2.5294    0.6051   -0.1758 C   0  0  0  0  0  0  0  0  0  0  0  0
    3.6866    1.0290    0.4218 C   0  0  0  0  0  0  0  0  0  0  0  0
    4.8853    1.1580   -0.2727 C   0  0  0  0  0  0  0  0  0  0  0  0
    4.9131    0.8474   -1.6170 C   0  0  0  0  0  0  0  0  0  0  0  0
    3.7611    0.4180   -2.2431 C   0  0  0  0  0  0  0  0  0  0  0  0
    2.5858    0.3015   -1.5204 C   0  0  0  0  0  0  0  0  0  0  0  0
    0.1731    0.0413   -0.1253 O   0  0  0  0  0  0  0  0  0  0  0  0
   -1.0024   -0.1088    0.4555 C   0  0  0  0  0  0  0  0  0  0  0  0
   -1.1993    0.1586    1.7918 C   0  0  0  0  0  0  0  0  0  0  0  0
   -2.4488   -0.0172    2.3403 C   0  0  0  0  0  0  0  0  0  0  0  0
   -3.4896   -0.4590    1.5463 C   0  0  0  0  0  0  0  0  0  0  0  0
   -3.2701   -0.7224    0.2032 C   0  0  0  0  0  0  0  0  0  0  0  0
   -4.3155   -1.1687   -0.6054 C   0  0  0  0  0  0  0  0  0  0  0  0
   -4.0786   -1.4248   -1.9356 C   0  0  0  0  0  0  0  0  0  0  0  0
   -2.8351   -1.2557   -2.5061 C   0  0  0  0  0  0  0  0  0  0  0  0
   -1.7986   -0.8149   -1.7117 C   0  0  0  0  0  0  0  0  0  0  0  0
   -2.0320   -0.5555   -0.3713 C   0  0  0  0  0  0  0  0  0  0  0  0
    1.9286    1.0751    2.4368 H   0  0  0  0  0  0  0  0  0  0  0  0
    3.6737    1.2733    1.4699 H   0  0  0  0  0  0  0  0  0  0  0  0
    5.7930    1.4964    0.2214 H   0  0  0  0  0  0  0  0  0  0  0  0
    5.8531    0.9526   -2.1441 H   0  0  0  0  0  0  0  0  0  0  0  0
    3.8282    0.1866   -3.2926 H   0  0  0  0  0  0  0  0  0  0  0  0
    1.6714   -0.0418   -2.0277 H   0  0  0  0  0  0  0  0  0  0  0  0
   -2.5758    0.2004    3.3937 H   0  0  0  0  0  0  0  0  0  0  0  0
   -4.4677   -0.5980    1.9695 H   0  0  0  0  0  0  0  0  0  0  0  0
   -5.2711   -1.2911   -0.1348 H   0  0  0  0  0  0  0  0  0  0  0  0
   -4.9410   -1.7724   -2.5157 H   0  0  0  0  0  0  0  0  0  0  0  0
   -2.7129   -1.4731   -3.5538 H   0  0  0  0  0  0  0  0  0  0  0  0
   -0.8043   -0.6641   -2.1018 H   0  0  0  0  0  0  0  0  0  0  0  0
  1  2  2  0
  2  3  1  0
  3  4  2  0
  4  5  1  0
  5  6  2  0
  6  7  1  0
  7  8  2  0
  8  9  1  0
  9 10  2  0
  4 11  1  0
 11 12  1  0
 12 13  2  0
 13 14  1  0
 14 15  2  0
 15 16  1  0
 16 17  2  0
 17 18  1  0
 18 19  2  0
 19 20  1  0
 20 21  2  0
 13  2  1  0
 21 16  1  0
 10  5  1  0
 21 12  1  0
  3 22  1  0
  6 23  1  0
  7 24  1  0
  8 25  1  0
  9 26  1  0
 10 27  1  0
 14 28  1  0
 15 29  1  0
 17 30  1  0
 18 31  1  0
 19 32  1  0
 20 33  1  0
M  END
$$$$
