@<TRIPOS>MOLECULE
*****
 27 28 0 0 0
SMALL
GASTEIGER

@<TRIPOS>ATOM
      1 O          -5.5570   -0.9019    0.9231 O.3     1  UNL1       -0.5068
      2 C          -4.2405   -0.6354    0.5756 C.ar    1  UNL1        0.1171
      3 C          -3.3177   -0.9786    1.5699 C.ar    1  UNL1       -0.0167
      4 C          -1.9696   -0.7461    1.3086 C.ar    1  UNL1       -0.0165
      5 C          -1.5790   -0.1961    0.1058 C.ar    1  UNL1        0.1212
      6 O          -0.2771    0.0874   -0.2842 O.3     1  UNL1       -0.4874
      7 C           0.7769   -0.1919    0.5880 C.3     1  UNL1        0.1146
      8 C           2.1080    0.1829   -0.0093 C.ar    1  UNL1       -0.0104
      9 C           2.8090   -0.7667   -0.7581 C.ar    1  UNL1       -0.0554
     10 C           4.0442   -0.4387   -1.3198 C.ar    1  UNL1       -0.0614
     11 C           4.5638    0.8381   -1.1250 C.ar    1  UNL1       -0.0617
     12 C           3.8830    1.7866   -0.3878 C.ar    1  UNL1       -0.0614
     13 C           2.6641    1.4329    0.1551 C.ar    1  UNL1       -0.0554
     14 C          -2.5164    0.1339   -0.8606 C.ar    1  UNL1       -0.0165
     15 C          -3.8548   -0.0910   -0.6150 C.ar    1  UNL1       -0.0167
     16 H          -6.1254   -1.2901    0.1551 H       1  UNL1        0.2921
     17 H          -3.6008   -1.4139    2.5271 H       1  UNL1        0.0655
     18 H          -1.1812   -0.9766    2.0114 H       1  UNL1        0.0655
     19 H           0.6135    0.4249    1.5112 H       1  UNL1        0.0748
     20 H           0.7842   -1.2442    0.9271 H       1  UNL1        0.0748
     21 H           2.3572   -1.7319   -0.8726 H       1  UNL1        0.0621
     22 H           4.5699   -1.1923   -1.8970 H       1  UNL1        0.0618
     23 H           5.5272    1.0396   -1.5836 H       1  UNL1        0.0618
     24 H           4.3065    2.7842   -0.2453 H       1  UNL1        0.0618
     25 H           2.1004    2.1631    0.7445 H       1  UNL1        0.0621
     26 H          -2.2770    0.5677   -1.8237 H       1  UNL1        0.0655
     27 H          -4.6113    0.1435   -1.3206 H       1  UNL1        0.0655
@<TRIPOS>BOND
     1     1     2    1
     2     2     3   ar
     3     3     4   ar
     4     4     5   ar
     5     5     6    1
     6     6     7    1
     7     7     8    1
     8     8     9   ar
     9     9    10   ar
    10    10    11   ar
    11    11    12   ar
    12    12    13   ar
    13     5    14   ar
    14    14    15   ar
    15    15     2   ar
    16    13     8   ar
    17     1    16    1
    18     3    17    1
    19     4    18    1
    20     7    19    1
    21     7    20    1
    22     9    21    1
    23    10    22    1
    24    11    23    1
    25    12    24    1
    26    13    25    1
    27    14    26    1
    28    15    27    1
