
     RDKit          3D

 16 15  0  0  0  0  0  0  0  0999 V2000
   -1.9959    0.3043   -0.2268 C   0  0  0  0  0  0  0  0  0  0  0  0
   -0.5553    0.7095   -0.2010 C   0  0  0  0  0  0  0  0  0  0  0  0
    0.3398   -0.4232    0.3213 C   0  0  1  0  0  0  0  0  0  0  0  0
    0.1449   -1.5193   -0.5832 N   0  0  0  0  0  0  0  0  0  0  0  0
    1.7433    0.0730    0.3140 C   0  0  0  0  0  0  0  0  0  0  0  0
    2.0703    1.1301    1.1422 O   0  0  0  0  0  0  0  0  0  0  0  0
    2.6409   -0.4311   -0.4147 O   0  0  0  0  0  0  0  0  0  0  0  0
   -2.0930   -0.7143    0.1494 H   0  0  0  0  0  0  0  0  0  0  0  0
   -2.5546    1.0055    0.4454 H   0  0  0  0  0  0  0  0  0  0  0  0
   -2.4572    0.3465   -1.2239 H   0  0  0  0  0  0  0  0  0  0  0  0
   -0.2389    1.0052   -1.2205 H   0  0  0  0  0  0  0  0  0  0  0  0
   -0.3634    1.5883    0.4582 H   0  0  0  0  0  0  0  0  0  0  0  0
    0.0331   -0.7143    1.3459 H   0  0  0  0  0  0  0  0  0  0  0  0
    1.0066   -1.9605   -0.9226 H   0  0  0  0  0  0  0  0  0  0  0  0
   -0.5764   -2.1450   -0.2063 H   0  0  0  0  0  0  0  0  0  0  0  0
    2.8559    1.7453    0.9768 H   0  0  0  0  0  0  0  0  0  0  0  0
  1  2  1  0
  2  3  1  0
  3  4  1  0
  3  5  1  0
  5  6  1  0
  5  7  2  0
  1  8  1  0
  1  9  1  0
  1 10  1  0
  2 11  1  0
  2 12  1  0
  3 13  1  1
  4 14  1  0
  4 15  1  0
  6 16  1  0
M  END
$$$$
