@<TRIPOS>MOLECULE
*****
 16 15 0 0 0
SMALL
GASTEIGER

@<TRIPOS>ATOM
      1 C          -1.9959    0.3043   -0.2268 C.3     1  UNL1       -0.0634
      2 C          -0.5553    0.7095   -0.2010 C.3     1  UNL1       -0.0302
      3 CA          0.3398   -0.4232    0.3213 C.3     1  UNL1        0.1030
      4 N           0.1449   -1.5193   -0.5832 N.3     1  UNL1       -0.3184
      5 C           1.7433    0.0730    0.3140 C.2     1  UNL1        0.3217
      6 O           2.0703    1.1301    1.1422 O.3     1  UNL1       -0.4795
      7 OXT         2.6409   -0.4311   -0.4147 O.2     1  UNL1       -0.2493
      8 H          -2.0930   -0.7143    0.1494 H       1  UNL1        0.0230
      9 H          -2.5546    1.0055    0.4454 H       1  UNL1        0.0230
     10 H          -2.4572    0.3465   -1.2239 H       1  UNL1        0.0230
     11 H          -0.2389    1.0052   -1.2205 H       1  UNL1        0.0283
     12 H          -0.3634    1.5883    0.4582 H       1  UNL1        0.0283
     13 HA          0.0331   -0.7143    1.3459 H       1  UNL1        0.0574
     14 H1          1.0066   -1.9605   -0.9226 H       1  UNL1        0.1190
     15 H2         -0.5764   -2.1450   -0.2063 H       1  UNL1        0.1190
     16 H           2.8559    1.7453    0.9768 H       1  UNL1        0.2951
@<TRIPOS>BOND
     1     1     2    1
     2     2     3    1
     3     3     4    1
     4     3     5    1
     5     5     6    1
     6     5     7    2
     7     1     8    1
     8     1     9    1
     9     1    10    1
    10     2    11    1
    11     2    12    1
    12     3    13    1
    13     4    14    1
    14     4    15    1
    15     6    16    1
