
     RDKit          3D

 98 99  0  0  0  0  0  0  0  0999 V2000
    2.8603    1.8683   -4.4989 C   0  0  0  0  0  0  0  0  0  0  0  0
    2.8113    1.3934   -3.0317 C   0  0  0  0  0  0  0  0  0  0  0  0
    4.0653    0.6473   -2.6961 C   0  0  2  0  0  0  0  0  0  0  0  0
    4.1669   -0.5531   -3.5999 C   0  0  0  0  0  0  0  0  0  0  0  0
    4.0222    0.1480   -1.2586 C   0  0  2  0  0  0  0  0  0  0  0  0
    5.2513   -0.5705   -0.9619 N   0  0  0  0  0  0  0  0  0  0  0  0
    6.2853    0.0386   -0.1785 C   0  0  0  0  0  0  0  0  0  0  0  0
    6.0270    1.2126    0.1943 O   0  0  0  0  0  0  0  0  0  0  0  0
    7.4581   -0.5496    0.1599 O   0  0  0  0  0  0  0  0  0  0  0  0
    8.4695    0.0372    0.8982 C   0  0  0  0  0  0  0  0  0  0  0  0
    8.0835    0.4922    2.2497 C   0  0  0  0  0  0  0  0  0  0  0  0
    7.7491    1.7805    2.5154 C   0  0  0  0  0  0  0  0  0  0  0  0
    7.3937    2.1547    3.7870 C   0  0  0  0  0  0  0  0  0  0  0  0
    7.3628    1.2655    4.8221 C   0  0  0  0  0  0  0  0  0  0  0  0
    7.7035   -0.0550    4.5644 C   0  0  0  0  0  0  0  0  0  0  0  0
    8.0559   -0.4307    3.3024 C   0  0  0  0  0  0  0  0  0  0  0  0
    2.8359   -0.7324   -1.1005 C   0  0  0  0  0  0  0  0  0  0  0  0
    2.9473   -1.9897   -1.1796 O   0  0  0  0  0  0  0  0  0  0  0  0
    1.5867   -0.1903   -0.8566 N   0  0  0  0  0  0  0  0  0  0  0  0
    0.3150   -0.8875   -0.6839 C   0  0  1  0  0  0  0  0  0  0  0  0
    0.0752   -1.1782    0.7880 C   0  0  0  0  0  0  0  0  0  0  0  0
    0.9731   -2.0192    1.3514 O   0  0  0  0  0  0  0  0  0  0  0  0
    0.9019   -3.3453    0.9276 C   0  0  0  0  0  0  0  0  0  0  0  0
    1.8970   -4.2219    1.5935 C   0  0  0  0  0  0  0  0  0  0  0  0
    3.0663   -4.6185    1.0160 C   0  0  0  0  0  0  0  0  0  0  0  0
    4.0008   -5.4071    1.7034 C   0  0  0  0  0  0  0  0  0  0  0  0
    3.7355   -5.7939    2.9959 C   0  0  0  0  0  0  0  0  0  0  0  0
    2.5461   -5.3782    3.5518 C   0  0  0  0  0  0  0  0  0  0  0  0
    1.6220   -4.6105    2.9014 C   0  0  0  0  0  0  0  0  0  0  0  0
   -0.7505   -0.0375   -1.2165 C   0  0  0  0  0  0  0  0  0  0  0  0
   -0.4578    1.1264   -1.6915 O   0  0  0  0  0  0  0  0  0  0  0  0
   -2.1311   -0.3418   -1.2775 N   0  0  0  0  0  0  0  0  0  0  0  0
   -3.1204    0.5949   -1.8033 C   0  0  1  0  0  0  0  0  0  0  0  0
   -3.6548   -0.0287   -3.0995 C   0  0  0  0  0  0  0  0  0  0  0  0
   -4.2361    0.7772   -0.8725 C   0  0  0  0  0  0  0  0  0  0  0  0
   -4.3093    0.0723    0.1506 O   0  0  0  0  0  0  0  0  0  0  0  0
   -5.2303    1.7484   -1.1209 N   0  0  0  0  0  0  0  0  0  0  0  0
   -6.3567    1.9344   -0.1868 C   0  0  2  0  0  0  0  0  0  0  0  0
   -7.5564    2.2327   -1.0085 C   0  0  0  0  0  0  0  0  0  0  0  0
   -8.2901    1.2917   -1.5943 C   0  0  0  0  0  0  0  0  0  0  0  0
   -7.9590   -0.4075   -1.4888 S   0  0  0  0  0  6  0  0  0  0  0  0
   -9.3195   -1.3833   -2.0954 C   0  0  0  0  0  0  0  0  0  0  0  0
   -6.7637   -0.7425   -2.3439 O   0  0  0  0  0  0  0  0  0  0  0  0
   -7.6677   -0.7618   -0.0597 O   0  0  0  0  0  0  0  0  0  0  0  0
   -5.9864    3.1991    0.5896 C   0  0  0  0  0  0  0  0  0  0  0  0
   -7.0206    3.5677    1.6172 C   0  0  0  0  0  0  0  0  0  0  0  0
   -7.2205    2.4672    2.6410 C   0  0  0  0  0  0  0  0  0  0  0  0
   -6.4460    4.7516    2.3990 C   0  0  0  0  0  0  0  0  0  0  0  0
    1.8140    1.9878   -4.9004 H   0  0  0  0  0  0  0  0  0  0  0  0
    3.3231    1.0579   -5.0682 H   0  0  0  0  0  0  0  0  0  0  0  0
    3.3613    2.8373   -4.5753 H   0  0  0  0  0  0  0  0  0  0  0  0
    1.9240    0.6882   -3.0402 H   0  0  0  0  0  0  0  0  0  0  0  0
    2.6123    2.2481   -2.3658 H   0  0  0  0  0  0  0  0  0  0  0  0
    4.9115    1.3545   -2.8464 H   0  0  0  0  0  0  0  0  0  0  0  0
    4.9627   -0.4607   -4.3824 H   0  0  0  0  0  0  0  0  0  0  0  0
    4.2904   -1.5103   -3.0052 H   0  0  0  0  0  0  0  0  0  0  0  0
    3.2129   -0.7456   -4.1640 H   0  0  0  0  0  0  0  0  0  0  0  0
    3.9421    1.0091   -0.6102 H   0  0  0  0  0  0  0  0  0  0  0  0
    5.4000   -1.5365   -1.3072 H   0  0  0  0  0  0  0  0  0  0  0  0
    8.9892    0.8647    0.3478 H   0  0  0  0  0  0  0  0  0  0  0  0
    9.2695   -0.7547    1.0872 H   0  0  0  0  0  0  0  0  0  0  0  0
    7.7808    2.5118    1.7103 H   0  0  0  0  0  0  0  0  0  0  0  0
    7.1343    3.2140    3.9460 H   0  0  0  0  0  0  0  0  0  0  0  0
    7.0847    1.5910    5.8033 H   0  0  0  0  0  0  0  0  0  0  0  0
    7.6904   -0.7879    5.3671 H   0  0  0  0  0  0  0  0  0  0  0  0
    8.3257   -1.4722    3.0977 H   0  0  0  0  0  0  0  0  0  0  0  0
    1.5041    0.8721   -0.7584 H   0  0  0  0  0  0  0  0  0  0  0  0
    0.4358   -1.8805   -1.1515 H   0  0  0  0  0  0  0  0  0  0  0  0
   -0.9251   -1.7178    0.7975 H   0  0  0  0  0  0  0  0  0  0  0  0
   -0.1321   -0.2595    1.3804 H   0  0  0  0  0  0  0  0  0  0  0  0
   -0.1051   -3.7864    1.2144 H   0  0  0  0  0  0  0  0  0  0  0  0
    0.9654   -3.4873   -0.1553 H   0  0  0  0  0  0  0  0  0  0  0  0
    3.3328   -4.3558    0.0035 H   0  0  0  0  0  0  0  0  0  0  0  0
    4.9294   -5.7292    1.2637 H   0  0  0  0  0  0  0  0  0  0  0  0
    4.4412   -6.3926    3.5337 H   0  0  0  0  0  0  0  0  0  0  0  0
    2.3369   -5.6842    4.5748 H   0  0  0  0  0  0  0  0  0  0  0  0
    0.6972   -4.2892    3.3385 H   0  0  0  0  0  0  0  0  0  0  0  0
   -2.4369   -1.2751   -0.9288 H   0  0  0  0  0  0  0  0  0  0  0  0
   -2.7032    1.5579   -2.0813 H   0  0  0  0  0  0  0  0  0  0  0  0
   -3.8488   -1.1097   -2.8796 H   0  0  0  0  0  0  0  0  0  0  0  0
   -2.7972   -0.0179   -3.8339 H   0  0  0  0  0  0  0  0  0  0  0  0
   -4.5132    0.5077   -3.4925 H   0  0  0  0  0  0  0  0  0  0  0  0
   -5.1682    2.3429   -1.9754 H   0  0  0  0  0  0  0  0  0  0  0  0
   -6.4643    1.1016    0.5073 H   0  0  0  0  0  0  0  0  0  0  0  0
   -7.8816    3.2731   -1.1589 H   0  0  0  0  0  0  0  0  0  0  0  0
   -9.1596    1.6489   -2.1800 H   0  0  0  0  0  0  0  0  0  0  0  0
   -8.9119   -2.3427   -2.4356 H   0  0  0  0  0  0  0  0  0  0  0  0
   -9.7239   -0.8592   -2.9783 H   0  0  0  0  0  0  0  0  0  0  0  0
  -10.0861   -1.4748   -1.2882 H   0  0  0  0  0  0  0  0  0  0  0  0
   -4.9908    3.0795    1.0307 H   0  0  0  0  0  0  0  0  0  0  0  0
   -5.9413    4.0238   -0.1459 H   0  0  0  0  0  0  0  0  0  0  0  0
   -7.9697    3.9090    1.1769 H   0  0  0  0  0  0  0  0  0  0  0  0
   -7.6822    1.5636    2.2312 H   0  0  0  0  0  0  0  0  0  0  0  0
   -6.2697    2.2120    3.1367 H   0  0  0  0  0  0  0  0  0  0  0  0
   -7.8850    2.8676    3.4282 H   0  0  0  0  0  0  0  0  0  0  0  0
   -7.0248    4.8988    3.3573 H   0  0  0  0  0  0  0  0  0  0  0  0
   -6.4260    5.6654    1.8050 H   0  0  0  0  0  0  0  0  0  0  0  0
   -5.4168    4.4744    2.7545 H   0  0  0  0  0  0  0  0  0  0  0  0
  1  2  1  0
  2  3  1  0
  3  4  1  0
  3  5  1  0
  5  6  1  0
  6  7  1  0
  7  8  2  0
  7  9  1  0
  9 10  1  0
 10 11  1  0
 11 12  2  0
 12 13  1  0
 13 14  2  0
 14 15  1  0
 15 16  2  0
  5 17  1  0
 17 18  2  0
 17 19  1  0
 19 20  1  0
 20 21  1  0
 21 22  1  0
 22 23  1  0
 23 24  1  0
 24 25  2  0
 25 26  1  0
 26 27  2  0
 27 28  1  0
 28 29  2  0
 20 30  1  0
 30 31  2  0
 30 32  1  0
 32 33  1  0
 33 34  1  0
 33 35  1  0
 35 36  2  0
 35 37  1  0
 37 38  1  0
 38 39  1  0
 39 40  2  3
 40 41  1  0
 41 42  1  0
 41 43  2  0
 41 44  2  0
 38 45  1  0
 45 46  1  0
 46 47  1  0
 46 48  1  0
 16 11  1  0
 29 24  1  0
  1 49  1  0
  1 50  1  0
  1 51  1  0
  2 52  1  0
  2 53  1  0
  3 54  1  1
  4 55  1  0
  4 56  1  0
  4 57  1  0
  5 58  1  1
  6 59  1  0
 10 60  1  0
 10 61  1  0
 12 62  1  0
 13 63  1  0
 14 64  1  0
 15 65  1  0
 16 66  1  0
 19 67  1  0
 20 68  1  6
 21 69  1  0
 21 70  1  0
 23 71  1  0
 23 72  1  0
 25 73  1  0
 26 74  1  0
 27 75  1  0
 28 76  1  0
 29 77  1  0
 32 78  1  0
 33 79  1  6
 34 80  1  0
 34 81  1  0
 34 82  1  0
 37 83  1  0
 38 84  1  1
 39 85  1  0
 40 86  1  0
 42 87  1  0
 42 88  1  0
 42 89  1  0
 45 90  1  0
 45 91  1  0
 46 92  1  0
 47 93  1  0
 47 94  1  0
 47 95  1  0
 48 96  1  0
 48 97  1  0
 48 98  1  0
M  END
$$$$
