@<TRIPOS>MOLECULE
*****
 98 99 0 0 0
SMALL
GASTEIGER

@<TRIPOS>ATOM
      1 C           2.8603    1.8683   -4.4989 C.3     1  UNL1       -0.0650
      2 C           2.8113    1.3934   -3.0317 C.3     1  UNL1       -0.0512
      3 C           4.0653    0.6473   -2.6961 C.3     1  UNL1       -0.0170
      4 C           4.1669   -0.5531   -3.5999 C.3     1  UNL1       -0.0603
      5 C           4.0222    0.1480   -1.2586 C.3     1  UNL1        0.1050
      6 N           5.2513   -0.5705   -0.9619 N.am    1  UNL1       -0.2696
      7 C           6.2853    0.0386   -0.1785 C.2     1  UNL1        0.4012
      8 O           6.0270    1.2126    0.1943 O.2     1  UNL1       -0.2265
      9 O           7.4581   -0.5496    0.1599 O.3     1  UNL1       -0.4456
     10 C           8.4695    0.0372    0.8982 C.3     1  UNL1        0.1191
     11 C           8.0835    0.4922    2.2497 C.ar    1  UNL1       -0.0103
     12 C           7.7491    1.7805    2.5154 C.ar    1  UNL1       -0.0554
     13 C           7.3937    2.1547    3.7870 C.ar    1  UNL1       -0.0614
     14 C           7.3628    1.2655    4.8221 C.ar    1  UNL1       -0.0617
     15 C           7.7035   -0.0550    4.5644 C.ar    1  UNL1       -0.0614
     16 C           8.0559   -0.4307    3.3024 C.ar    1  UNL1       -0.0554
     17 C           2.8359   -0.7324   -1.1005 C.2     1  UNL1        0.2344
     18 O           2.9473   -1.9897   -1.1796 O.2     1  UNL1       -0.2738
     19 N           1.5867   -0.1903   -0.8566 N.am    1  UNL1       -0.3005
     20 C           0.3150   -0.8875   -0.6839 C.3     1  UNL1        0.1229
     21 C           0.0752   -1.1782    0.7880 C.3     1  UNL1        0.0750
     22 O           0.9731   -2.0192    1.3514 O.3     1  UNL1       -0.3729
     23 C           0.9019   -3.3453    0.9276 C.3     1  UNL1        0.0728
     24 C           1.8970   -4.2219    1.5935 C.ar    1  UNL1       -0.0219
     25 C           3.0663   -4.6185    1.0160 C.ar    1  UNL1       -0.0564
     26 C           4.0008   -5.4071    1.7034 C.ar    1  UNL1       -0.0614
     27 C           3.7355   -5.7939    2.9959 C.ar    1  UNL1       -0.0617
     28 C           2.5461   -5.3782    3.5518 C.ar    1  UNL1       -0.0614
     29 C           1.6220   -4.6105    2.9014 C.ar    1  UNL1       -0.0564
     30 C          -0.7505   -0.0375   -1.2165 C.2     1  UNL1        0.2362
     31 O          -0.4578    1.1264   -1.6915 O.2     1  UNL1       -0.2737
     32 N          -2.1311   -0.3418   -1.2775 N.am    1  UNL1       -0.3027
     33 C          -3.1204    0.5949   -1.8033 C.3     1  UNL1        0.0966
     34 C          -3.6548   -0.0287   -3.0995 C.3     1  UNL1       -0.0381
     35 C          -4.2361    0.7772   -0.8725 C.2     1  UNL1        0.2335
     36 O          -4.3093    0.0723    0.1506 O.2     1  UNL1       -0.2738
     37 N          -5.2303    1.7484   -1.1209 N.am    1  UNL1       -0.3075
     38 C          -6.3567    1.9344   -0.1868 C.3     1  UNL1        0.0432
     39 C          -7.5564    2.2327   -1.0085 C.2     1  UNL1       -0.0464
     40 C          -8.2901    1.2917   -1.5943 C.2     1  UNL1        0.0495
     41 S          -7.9590   -0.4075   -1.4888 S.O2    1  UNL1       -0.0127
     42 C          -9.3195   -1.3833   -2.0954 C.3     1  UNL1        0.0589
     43 O          -6.7637   -0.7425   -2.3439 O.2     1  UNL1       -0.1702
     44 O          -7.6677   -0.7618   -0.0597 O.2     1  UNL1       -0.1702
     45 C          -5.9864    3.1991    0.5896 C.3     1  UNL1       -0.0285
     46 C          -7.0206    3.5677    1.6172 C.3     1  UNL1       -0.0448
     47 C          -7.2205    2.4672    2.6410 C.3     1  UNL1       -0.0626
     48 C          -6.4460    4.7516    2.3990 C.3     1  UNL1       -0.0626
     49 H           1.8140    1.9878   -4.9004 H       1  UNL1        0.0230
     50 H           3.3231    1.0579   -5.0682 H       1  UNL1        0.0230
     51 H           3.3613    2.8373   -4.5753 H       1  UNL1        0.0230
     52 H           1.9240    0.6882   -3.0402 H       1  UNL1        0.0266
     53 H           2.6123    2.2481   -2.3658 H       1  UNL1        0.0266
     54 H           4.9115    1.3545   -2.8464 H       1  UNL1        0.0321
     55 H           4.9627   -0.4607   -4.3824 H       1  UNL1        0.0233
     56 H           4.2904   -1.5103   -3.0052 H       1  UNL1        0.0233
     57 H           3.2129   -0.7456   -4.1640 H       1  UNL1        0.0233
     58 H           3.9421    1.0091   -0.6102 H       1  UNL1        0.0598
     59 H           5.4000   -1.5365   -1.3072 H       1  UNL1        0.1528
     60 H           8.9892    0.8647    0.3478 H       1  UNL1        0.0749
     61 H           9.2695   -0.7547    1.0872 H       1  UNL1        0.0749
     62 H           7.7808    2.5118    1.7103 H       1  UNL1        0.0621
     63 H           7.1343    3.2140    3.9460 H       1  UNL1        0.0618
     64 H           7.0847    1.5910    5.8033 H       1  UNL1        0.0618
     65 H           7.6904   -0.7879    5.3671 H       1  UNL1        0.0618
     66 H           8.3257   -1.4722    3.0977 H       1  UNL1        0.0621
     67 H           1.5041    0.8721   -0.7584 H       1  UNL1        0.1496
     68 H           0.4358   -1.8805   -1.1515 H       1  UNL1        0.0618
     69 H          -0.9251   -1.7178    0.7975 H       1  UNL1        0.0583
     70 H          -0.1321   -0.2595    1.3804 H       1  UNL1        0.0583
     71 H          -0.1051   -3.7864    1.2144 H       1  UNL1        0.0610
     72 H           0.9654   -3.4873   -0.1553 H       1  UNL1        0.0610
     73 H           3.3328   -4.3558    0.0035 H       1  UNL1        0.0621
     74 H           4.9294   -5.7292    1.2637 H       1  UNL1        0.0618
     75 H           4.4412   -6.3926    3.5337 H       1  UNL1        0.0618
     76 H           2.3369   -5.6842    4.5748 H       1  UNL1        0.0618
     77 H           0.6972   -4.2892    3.3385 H       1  UNL1        0.0621
     78 H          -2.4369   -1.2751   -0.9288 H       1  UNL1        0.1495
     79 H          -2.7032    1.5579   -2.0813 H       1  UNL1        0.0592
     80 H          -3.8488   -1.1097   -2.8796 H       1  UNL1        0.0252
     81 H          -2.7972   -0.0179   -3.8339 H       1  UNL1        0.0252
     82 H          -4.5132    0.5077   -3.4925 H       1  UNL1        0.0252
     83 H          -5.1682    2.3429   -1.9754 H       1  UNL1        0.1493
     84 H          -6.4643    1.1016    0.5073 H       1  UNL1        0.0543
     85 H          -7.8816    3.2731   -1.1589 H       1  UNL1        0.0603
     86 H          -9.1596    1.6489   -2.1800 H       1  UNL1        0.0816
     87 H          -8.9119   -2.3427   -2.4356 H       1  UNL1        0.0468
     88 H          -9.7239   -0.8592   -2.9783 H       1  UNL1        0.0468
     89 H         -10.0861   -1.4748   -1.2882 H       1  UNL1        0.0468
     90 H          -4.9908    3.0795    1.0307 H       1  UNL1        0.0289
     91 H          -5.9413    4.0238   -0.1459 H       1  UNL1        0.0289
     92 H          -7.9697    3.9090    1.1769 H       1  UNL1        0.0296
     93 H          -7.6822    1.5636    2.2312 H       1  UNL1        0.0232
     94 H          -6.2697    2.2120    3.1367 H       1  UNL1        0.0232
     95 H          -7.8850    2.8676    3.4282 H       1  UNL1        0.0232
     96 H          -7.0248    4.8988    3.3573 H       1  UNL1        0.0232
     97 H          -6.4260    5.6654    1.8050 H       1  UNL1        0.0232
     98 H          -5.4168    4.4744    2.7545 H       1  UNL1        0.0232
@<TRIPOS>BOND
     1     1     2    1
     2     2     3    1
     3     3     4    1
     4     3     5    1
     5     5     6    1
     6     6     7   am
     7     7     8    2
     8     7     9    1
     9     9    10    1
    10    10    11    1
    11    11    12   ar
    12    12    13   ar
    13    13    14   ar
    14    14    15   ar
    15    15    16   ar
    16     5    17    1
    17    17    18    2
    18    17    19   am
    19    19    20    1
    20    20    21    1
    21    21    22    1
    22    22    23    1
    23    23    24    1
    24    24    25   ar
    25    25    26   ar
    26    26    27   ar
    27    27    28   ar
    28    28    29   ar
    29    20    30    1
    30    30    31    2
    31    30    32   am
    32    32    33    1
    33    33    34    1
    34    33    35    1
    35    35    36    2
    36    35    37   am
    37    37    38    1
    38    38    39    1
    39    39    40    2
    40    40    41    1
    41    41    42    1
    42    41    43    2
    43    41    44    2
    44    38    45    1
    45    45    46    1
    46    46    47    1
    47    46    48    1
    48    16    11   ar
    49    29    24   ar
    50     1    49    1
    51     1    50    1
    52     1    51    1
    53     2    52    1
    54     2    53    1
    55     3    54    1
    56     4    55    1
    57     4    56    1
    58     4    57    1
    59     5    58    1
    60     6    59    1
    61    10    60    1
    62    10    61    1
    63    12    62    1
    64    13    63    1
    65    14    64    1
    66    15    65    1
    67    16    66    1
    68    19    67    1
    69    20    68    1
    70    21    69    1
    71    21    70    1
    72    23    71    1
    73    23    72    1
    74    25    73    1
    75    26    74    1
    76    27    75    1
    77    28    76    1
    78    29    77    1
    79    32    78    1
    80    33    79    1
    81    34    80    1
    82    34    81    1
    83    34    82    1
    84    37    83    1
    85    38    84    1
    86    39    85    1
    87    40    86    1
    88    42    87    1
    89    42    88    1
    90    42    89    1
    91    45    90    1
    92    45    91    1
    93    46    92    1
    94    47    93    1
    95    47    94    1
    96    47    95    1
    97    48    96    1
    98    48    97    1
    99    48    98    1
