@<TRIPOS>MOLECULE
*****
 69 74 0 0 0
SMALL
GASTEIGER

@<TRIPOS>ATOM
      1 C          -6.5276    2.3425   -1.6284 C.3     1  UNL1        0.0032
      2 N          -6.7288    2.5831   -0.2147 N.am    1  UNL1       -0.3024
      3 C          -8.0091    3.2074    0.1433 C.3     1  UNL1        0.0032
      4 C          -5.8189    2.2766    0.7921 C.2     1  UNL1        0.2627
      5 O          -6.1179    2.5417    2.0003 O.2     1  UNL1       -0.2684
      6 C          -4.5041    1.6602    0.6143 C.ar    1  UNL1        0.1071
      7 C          -3.3211    2.3651    0.5925 C.ar    1  UNL1       -0.0209
      8 C          -2.3001    1.4936    0.4211 C.ar    1  UNL1        0.0378
      9 C          -0.9182    1.5717    0.3260 C.ar    1  UNL1        0.0419
     10 N          -0.1688    0.4765    0.1599 N.ar    1  UNL1       -0.2219
     11 C          -0.7281   -0.7603    0.0770 C.ar    1  UNL1        0.2224
     12 N           0.0946   -1.9133   -0.0747 N.pl3   1  UNL1       -0.2684
     13 C           1.4992   -1.7431   -0.0562 C.ar    1  UNL1        0.1251
     14 C           2.3919   -2.7761   -0.1854 C.ar    1  UNL1       -0.0197
     15 C           3.7458   -2.5304   -0.1352 C.ar    1  UNL1       -0.0355
     16 C           4.2718   -1.2730    0.0426 C.ar    1  UNL1        0.0545
     17 N           5.6451   -0.9765    0.1244 N.am    1  UNL1       -0.2684
     18 C           6.4261   -0.9517    1.3701 C.3     1  UNL1        0.0220
     19 C           7.8508   -1.1012    0.8892 C.3     1  UNL1       -0.0098
     20 C           7.8230   -0.2535   -0.3682 C.3     1  UNL1        0.0981
     21 C           8.9854   -0.4814   -1.2678 C.3     1  UNL1       -0.0249
     22 C          10.0695    0.4475   -0.7121 C.3     1  UNL1       -0.0383
     23 C           9.2992    1.4428    0.1358 C.3     1  UNL1       -0.0031
     24 N           7.8966    1.1585   -0.0714 N.3     1  UNL1       -0.3031
     25 C           6.5134   -0.6503   -0.9385 C.2     1  UNL1        0.2400
     26 O           6.2473   -0.6823   -2.1580 O.2     1  UNL1       -0.2732
     27 C           3.3338   -0.2473    0.1688 C.ar    1  UNL1        0.0511
     28 N           2.0169   -0.5007    0.1179 N.ar    1  UNL1       -0.2383
     29 N          -2.0640   -0.8290    0.1690 N.ar    1  UNL1       -0.1962
     30 C          -2.8755    0.2524    0.3389 C.ar    1  UNL1        0.1467
     31 N          -4.2260    0.3660    0.4585 N.ar    1  UNL1       -0.3158
     32 C          -5.1148   -0.7737    0.4181 C.3     1  UNL1        0.0599
     33 C          -5.4494   -1.2358   -0.9576 C.3     1  UNL1       -0.0278
     34 C          -6.7375   -1.9907   -1.0754 C.3     1  UNL1       -0.0275
     35 C          -7.7410   -1.6920    0.0080 C.3     1  UNL1        0.0478
     36 O          -7.0552   -1.8450    1.2382 O.3     1  UNL1       -0.3777
     37 C          -6.3090   -0.6565    1.3299 C.3     1  UNL1        0.0684
     38 H          -7.1949    1.4910   -1.8967 H       1  UNL1        0.0428
     39 H          -5.4921    2.0247   -1.8265 H       1  UNL1        0.0428
     40 H          -6.8484    3.1901   -2.2710 H       1  UNL1        0.0428
     41 H          -8.1930    3.1274    1.2340 H       1  UNL1        0.0428
     42 H          -8.8530    2.7171   -0.3574 H       1  UNL1        0.0428
     43 H          -7.9169    4.3008   -0.1152 H       1  UNL1        0.0428
     44 H          -3.1815    3.4396    0.6914 H       1  UNL1        0.0647
     45 H          -0.5021    2.5767    0.3970 H       1  UNL1        0.0838
     46 H          -0.2922   -2.8600   -0.1939 H       1  UNL1        0.1564
     47 H           1.9698   -3.7663   -0.3260 H       1  UNL1        0.0652
     48 H           4.4346   -3.3614   -0.2405 H       1  UNL1        0.0638
     49 H           6.3566    0.0654    1.8392 H       1  UNL1        0.0469
     50 H           6.1540   -1.7611    2.0563 H       1  UNL1        0.0469
     51 H           8.5215   -0.6218    1.6098 H       1  UNL1        0.0303
     52 H           8.0945   -2.1390    0.6587 H       1  UNL1        0.0303
     53 H           9.3656   -1.5229   -1.2666 H       1  UNL1        0.0288
     54 H           8.7331   -0.1232   -2.2876 H       1  UNL1        0.0288
     55 H          10.5789    0.9809   -1.5370 H       1  UNL1        0.0278
     56 H          10.7988   -0.1286   -0.1429 H       1  UNL1        0.0278
     57 H           9.5640    1.3242    1.1925 H       1  UNL1        0.0424
     58 H           9.5538    2.4650   -0.1605 H       1  UNL1        0.0424
     59 H           7.4701    1.7251   -0.8185 H       1  UNL1        0.1229
     60 H           3.7128    0.7508    0.3087 H       1  UNL1        0.0849
     61 H          -4.5257   -1.6290    0.8780 H       1  UNL1        0.0551
     62 H          -4.6561   -1.9082   -1.4022 H       1  UNL1        0.0287
     63 H          -5.4836   -0.3581   -1.6321 H       1  UNL1        0.0287
     64 H          -7.2452   -1.7889   -2.0530 H       1  UNL1        0.0288
     65 H          -6.5664   -3.0899   -1.0620 H       1  UNL1        0.0288
     66 H          -8.5922   -2.3792   -0.0925 H       1  UNL1        0.0560
     67 H          -8.1435   -0.6505   -0.0813 H       1  UNL1        0.0560
     68 H          -7.0046    0.1413    1.0880 H       1  UNL1        0.0580
     69 H          -6.0114   -0.5539    2.3888 H       1  UNL1        0.0580
@<TRIPOS>BOND
     1     1     2    1
     2     2     3    1
     3     2     4   am
     4     4     5    2
     5     4     6    1
     6     6     7   ar
     7     7     8   ar
     8     8     9   ar
     9     9    10   ar
    10    10    11   ar
    11    11    12    1
    12    12    13    1
    13    13    14   ar
    14    14    15   ar
    15    15    16   ar
    16    16    17    1
    17    17    18    1
    18    18    19    1
    19    19    20    1
    20    20    21    1
    21    21    22    1
    22    22    23    1
    23    23    24    1
    24    20    25    1
    25    25    26    2
    26    16    27   ar
    27    27    28   ar
    28    11    29   ar
    29    29    30   ar
    30    30    31   ar
    31    31    32    1
    32    32    33    1
    33    33    34    1
    34    34    35    1
    35    35    36    1
    36    36    37    1
    37    31     6   ar
    38    37    32    1
    39    30     8   ar
    40    28    13   ar
    41    25    17   am
    42    24    20    1
    43     1    38    1
    44     1    39    1
    45     1    40    1
    46     3    41    1
    47     3    42    1
    48     3    43    1
    49     7    44    1
    50     9    45    1
    51    12    46    1
    52    14    47    1
    53    15    48    1
    54    18    49    1
    55    18    50    1
    56    19    51    1
    57    19    52    1
    58    21    53    1
    59    21    54    1
    60    22    55    1
    61    22    56    1
    62    23    57    1
    63    23    58    1
    64    24    59    1
    65    27    60    1
    66    32    61    1
    67    33    62    1
    68    33    63    1
    69    34    64    1
    70    34    65    1
    71    35    66    1
    72    35    67    1
    73    37    68    1
    74    37    69    1
