@<TRIPOS>MOLECULE
*****
 46 50 0 0 0
SMALL
GASTEIGER

@<TRIPOS>ATOM
      1 C           1.6258    0.4094    0.7647 C.3     1  UNL1        0.0009
      2 C           2.2879   -0.4084    1.8669 C.3     1  UNL1       -0.0444
      3 C           3.7410   -0.1226    2.0380 C.3     1  UNL1       -0.0485
      4 C           4.3741    0.6831    0.9559 C.3     1  UNL1       -0.0274
      5 C           3.7726    0.3430   -0.3603 C.ar    1  UNL1       -0.0431
      6 C           2.3966    0.2042   -0.4645 C.ar    1  UNL1       -0.0275
      7 C           1.8815   -0.1100   -1.6960 C.ar    1  UNL1        0.0406
      8 C           2.6262   -0.2969   -2.8313 C.ar    1  UNL1       -0.0493
      9 C           3.9865   -0.1524   -2.6954 C.ar    1  UNL1       -0.0608
     10 C           4.5769    0.1639   -1.4827 C.ar    1  UNL1       -0.0583
     11 C           0.4201   -0.2378   -1.7186 C.2     1  UNL1        0.2472
     12 O          -0.1165   -0.5297   -2.8406 O.2     1  UNL1       -0.2700
     13 N          -0.4211   -0.0535   -0.5590 N.am    1  UNL1       -0.2924
     14 C           0.2011    0.0202    0.7344 C.3     1  UNL1        0.0222
     15 C          -1.8459    0.0511   -0.7200 C.3     1  UNL1        0.0419
     16 C          -2.4445    1.3567   -0.2935 C.3     1  UNL1        0.0178
     17 N          -3.8180    1.1711    0.1356 N.3     1  UNL1       -0.3005
     18 C          -3.7806    0.5862    1.4620 C.3     1  UNL1       -0.0007
     19 C          -3.0186   -0.6998    1.3853 C.3     1  UNL1       -0.0356
     20 C          -2.6163   -1.0378   -0.0469 C.3     1  UNL1       -0.0189
     21 C          -3.9429   -1.1133   -0.8070 C.3     1  UNL1       -0.0356
     22 C          -4.5522    0.2680   -0.7238 C.3     1  UNL1       -0.0007
     23 H           1.7553    1.4802    1.0885 H       1  UNL1        0.0364
     24 H           2.0956   -1.5043    1.6952 H       1  UNL1        0.0272
     25 H           1.7588   -0.1779    2.8292 H       1  UNL1        0.0272
     26 H           3.9378    0.3855    3.0206 H       1  UNL1        0.0269
     27 H           4.2814   -1.1023    2.1259 H       1  UNL1        0.0269
     28 H           4.2580    1.7646    1.1744 H       1  UNL1        0.0313
     29 H           5.4552    0.4274    0.9042 H       1  UNL1        0.0313
     30 H           2.1154   -0.5437   -3.7583 H       1  UNL1        0.0625
     31 H           4.6025   -0.2939   -3.5746 H       1  UNL1        0.0618
     32 H           5.6644    0.2706   -1.4142 H       1  UNL1        0.0620
     33 H          -0.3424    0.7188    1.4264 H       1  UNL1        0.0471
     34 H           0.0329   -0.9863    1.2069 H       1  UNL1        0.0471
     35 H          -2.0293   -0.0418   -1.8304 H       1  UNL1        0.0516
     36 H          -2.3622    2.1552   -1.0826 H       1  UNL1        0.0445
     37 H          -1.8991    1.7401    0.5928 H       1  UNL1        0.0445
     38 H          -3.2882    1.3548    2.1202 H       1  UNL1        0.0427
     39 H          -4.8217    0.4547    1.8676 H       1  UNL1        0.0427
     40 H          -3.6981   -1.5291    1.7046 H       1  UNL1        0.0281
     41 H          -2.1861   -0.6689    2.0857 H       1  UNL1        0.0281
     42 H          -2.1163   -2.0193   -0.0361 H       1  UNL1        0.0320
     43 H          -3.6666   -1.3363   -1.8597 H       1  UNL1        0.0281
     44 H          -4.5886   -1.9149   -0.3976 H       1  UNL1        0.0281
     45 H          -4.7370    0.7259   -1.7305 H       1  UNL1        0.0427
     46 H          -5.5550    0.1461   -0.2612 H       1  UNL1        0.0427
@<TRIPOS>BOND
     1     1     2    1
     2     2     3    1
     3     3     4    1
     4     4     5    1
     5     5     6   ar
     6     6     7   ar
     7     7     8   ar
     8     8     9   ar
     9     9    10   ar
    10     7    11    1
    11    11    12    2
    12    11    13   am
    13    13    14    1
    14    13    15    1
    15    15    16    1
    16    16    17    1
    17    17    18    1
    18    18    19    1
    19    19    20    1
    20    20    21    1
    21    21    22    1
    22     6     1    1
    23    20    15    1
    24    14     1    1
    25    22    17    1
    26    10     5   ar
    27     1    23    1
    28     2    24    1
    29     2    25    1
    30     3    26    1
    31     3    27    1
    32     4    28    1
    33     4    29    1
    34     8    30    1
    35     9    31    1
    36    10    32    1
    37    14    33    1
    38    14    34    1
    39    15    35    1
    40    16    36    1
    41    16    37    1
    42    18    38    1
    43    18    39    1
    44    19    40    1
    45    19    41    1
    46    20    42    1
    47    21    43    1
    48    21    44    1
    49    22    45    1
    50    22    46    1
