
     RDKit          3D

 46 50  0  0  0  0  0  0  0  0999 V2000
    1.6258    0.4094    0.7647 C   0  0  1  0  0  0  0  0  0  0  0  0
    2.2879   -0.4084    1.8669 C   0  0  0  0  0  0  0  0  0  0  0  0
    3.7410   -0.1226    2.0380 C   0  0  0  0  0  0  0  0  0  0  0  0
    4.3741    0.6831    0.9559 C   0  0  0  0  0  0  0  0  0  0  0  0
    3.7726    0.3430   -0.3603 C   0  0  0  0  0  0  0  0  0  0  0  0
    2.3966    0.2042   -0.4645 C   0  0  0  0  0  0  0  0  0  0  0  0
    1.8815   -0.1100   -1.6960 C   0  0  0  0  0  0  0  0  0  0  0  0
    2.6262   -0.2969   -2.8313 C   0  0  0  0  0  0  0  0  0  0  0  0
    3.9865   -0.1524   -2.6954 C   0  0  0  0  0  0  0  0  0  0  0  0
    4.5769    0.1639   -1.4827 C   0  0  0  0  0  0  0  0  0  0  0  0
    0.4201   -0.2378   -1.7186 C   0  0  0  0  0  0  0  0  0  0  0  0
   -0.1165   -0.5297   -2.8406 O   0  0  0  0  0  0  0  0  0  0  0  0
   -0.4211   -0.0535   -0.5590 N   0  0  0  0  0  0  0  0  0  0  0  0
    0.2011    0.0202    0.7344 C   0  0  0  0  0  0  0  0  0  0  0  0
   -1.8459    0.0511   -0.7200 C   0  0  2  0  0  0  0  0  0  0  0  0
   -2.4445    1.3567   -0.2935 C   0  0  0  0  0  0  0  0  0  0  0  0
   -3.8180    1.1711    0.1356 N   0  0  0  0  0  0  0  0  0  0  0  0
   -3.7806    0.5862    1.4620 C   0  0  0  0  0  0  0  0  0  0  0  0
   -3.0186   -0.6998    1.3853 C   0  0  0  0  0  0  0  0  0  0  0  0
   -2.6163   -1.0378   -0.0469 C   0  0  0  0  0  0  0  0  0  0  0  0
   -3.9429   -1.1133   -0.8070 C   0  0  0  0  0  0  0  0  0  0  0  0
   -4.5522    0.2680   -0.7238 C   0  0  0  0  0  0  0  0  0  0  0  0
    1.7553    1.4802    1.0885 H   0  0  0  0  0  0  0  0  0  0  0  0
    2.0956   -1.5043    1.6952 H   0  0  0  0  0  0  0  0  0  0  0  0
    1.7588   -0.1779    2.8292 H   0  0  0  0  0  0  0  0  0  0  0  0
    3.9378    0.3855    3.0206 H   0  0  0  0  0  0  0  0  0  0  0  0
    4.2814   -1.1023    2.1259 H   0  0  0  0  0  0  0  0  0  0  0  0
    4.2580    1.7646    1.1744 H   0  0  0  0  0  0  0  0  0  0  0  0
    5.4552    0.4274    0.9042 H   0  0  0  0  0  0  0  0  0  0  0  0
    2.1154   -0.5437   -3.7583 H   0  0  0  0  0  0  0  0  0  0  0  0
    4.6025   -0.2939   -3.5746 H   0  0  0  0  0  0  0  0  0  0  0  0
    5.6644    0.2706   -1.4142 H   0  0  0  0  0  0  0  0  0  0  0  0
   -0.3424    0.7188    1.4264 H   0  0  0  0  0  0  0  0  0  0  0  0
    0.0329   -0.9863    1.2069 H   0  0  0  0  0  0  0  0  0  0  0  0
   -2.0293   -0.0418   -1.8304 H   0  0  0  0  0  0  0  0  0  0  0  0
   -2.3622    2.1552   -1.0826 H   0  0  0  0  0  0  0  0  0  0  0  0
   -1.8991    1.7401    0.5928 H   0  0  0  0  0  0  0  0  0  0  0  0
   -3.2882    1.3548    2.1202 H   0  0  0  0  0  0  0  0  0  0  0  0
   -4.8217    0.4547    1.8676 H   0  0  0  0  0  0  0  0  0  0  0  0
   -3.6981   -1.5291    1.7046 H   0  0  0  0  0  0  0  0  0  0  0  0
   -2.1861   -0.6689    2.0857 H   0  0  0  0  0  0  0  0  0  0  0  0
   -2.1163   -2.0193   -0.0361 H   0  0  0  0  0  0  0  0  0  0  0  0
   -3.6666   -1.3363   -1.8597 H   0  0  0  0  0  0  0  0  0  0  0  0
   -4.5886   -1.9149   -0.3976 H   0  0  0  0  0  0  0  0  0  0  0  0
   -4.7370    0.7259   -1.7305 H   0  0  0  0  0  0  0  0  0  0  0  0
   -5.5550    0.1461   -0.2612 H   0  0  0  0  0  0  0  0  0  0  0  0
  1  2  1  0
  2  3  1  0
  3  4  1  0
  4  5  1  0
  5  6  2  0
  6  7  1  0
  7  8  2  0
  8  9  1  0
  9 10  2  0
  7 11  1  0
 11 12  2  0
 11 13  1  0
 13 14  1  0
 13 15  1  0
 15 16  1  0
 16 17  1  0
 17 18  1  0
 18 19  1  0
 19 20  1  0
 20 21  1  0
 21 22  1  0
  6  1  1  0
 20 15  1  0
 14  1  1  0
 22 17  1  0
 10  5  1  0
  1 23  1  1
  2 24  1  0
  2 25  1  0
  3 26  1  0
  3 27  1  0
  4 28  1  0
  4 29  1  0
  8 30  1  0
  9 31  1  0
 10 32  1  0
 14 33  1  0
 14 34  1  0
 15 35  1  6
 16 36  1  0
 16 37  1  0
 18 38  1  0
 18 39  1  0
 19 40  1  0
 19 41  1  0
 20 42  1  0
 21 43  1  0
 21 44  1  0
 22 45  1  0
 22 46  1  0
M  END
$$$$
