@<TRIPOS>MOLECULE
*****
 68 71 0 0 0
SMALL
GASTEIGER

@<TRIPOS>ATOM
      1 O           4.8341   -3.8880    0.5776 O.2     1  UNL1       -0.2510
      2 C           5.9114   -3.4357    0.1369 C.2     1  UNL1        0.3047
      3 O           6.6750   -4.2535   -0.6767 O.3     1  UNL1       -0.4806
      4 C           6.4027   -2.0797    0.4426 C.3     1  UNL1        0.0459
      5 C           5.4279   -1.3212    1.2940 C.3     1  UNL1       -0.0304
      6 C           4.0868   -1.1013    0.6557 C.3     1  UNL1       -0.0030
      7 N           3.1987   -0.3700    1.5397 N.3     1  UNL1       -0.3079
      8 C           1.8886   -0.1830    0.9578 C.3     1  UNL1        0.0513
      9 C           1.0394    0.5379    1.9460 C.3     1  UNL1        0.0505
     10 N          -0.3164    0.7941    1.5085 N.ar    1  UNL1       -0.2585
     11 C          -0.6094    1.9495    0.8957 C.ar    1  UNL1        0.2644
     12 O           0.2431    2.8603    0.6727 O.2     1  UNL1       -0.2668
     13 C          -1.8999    2.2193    0.4607 C.ar    1  UNL1        0.0644
     14 C          -2.2881    3.4455   -0.2052 C.ar    1  UNL1        0.0070
     15 C          -2.7127    4.5218    0.5483 C.ar    1  UNL1       -0.0524
     16 C          -3.0948    5.7122   -0.0345 C.ar    1  UNL1       -0.0611
     17 C          -3.0435    5.8046   -1.3922 C.ar    1  UNL1       -0.0603
     18 C          -2.6151    4.7206   -2.1631 C.ar    1  UNL1       -0.0428
     19 C          -2.2381    3.5404   -1.5551 C.ar    1  UNL1        0.0489
     20 CL         -1.7033    2.1772   -2.4961 Cl      1  UNL1       -0.0829
     21 C          -2.8488    1.2141    0.7046 C.ar    1  UNL1        0.0226
     22 N          -2.5886    0.0573    1.3064 N.ar    1  UNL1       -0.2953
     23 C          -3.6043   -0.9424    1.4871 C.3     1  UNL1        0.0558
     24 C          -3.9558   -1.8512    0.4135 C.ar    1  UNL1        0.0191
     25 C          -4.8351   -1.3618   -0.5653 C.ar    1  UNL1        0.1288
     26 F          -5.3662   -0.1236   -0.5594 F       1  UNL1       -0.2051
     27 C          -5.2374   -2.1793   -1.5843 C.ar    1  UNL1       -0.0261
     28 C          -4.8199   -3.4762   -1.7016 C.ar    1  UNL1       -0.0585
     29 C          -3.9656   -3.9262   -0.7348 C.ar    1  UNL1       -0.0496
     30 C          -3.5034   -3.1530    0.3430 C.ar    1  UNL1        0.0624
     31 C          -2.5298   -3.7778    1.2804 C.3     1  UNL1        0.4178
     32 F          -2.8624   -3.6480    2.6054 F       1  UNL1       -0.1659
     33 F          -2.7373   -5.2081    1.1017 F       1  UNL1       -0.1659
     34 F          -1.2298   -3.5905    0.9829 F       1  UNL1       -0.1659
     35 C          -1.2928   -0.1167    1.7017 C.ar    1  UNL1        0.3323
     36 O          -0.9633   -1.1577    2.2814 O.2     1  UNL1       -0.2462
     37 C           2.0509    0.4884   -0.3413 C.ar    1  UNL1       -0.0288
     38 C           2.9136    1.5405   -0.5423 C.ar    1  UNL1       -0.0570
     39 C           3.0589    2.1584   -1.7601 C.ar    1  UNL1       -0.0615
     40 C           2.3270    1.7291   -2.8330 C.ar    1  UNL1       -0.0617
     41 C           1.4504    0.6743   -2.6656 C.ar    1  UNL1       -0.0615
     42 C           1.3181    0.0635   -1.4276 C.ar    1  UNL1       -0.0570
     43 H           6.6910   -5.2711   -0.5666 H       1  UNL1        0.2951
     44 H           6.5937   -1.5254   -0.5247 H       1  UNL1        0.0378
     45 H           7.4008   -2.1613    0.9161 H       1  UNL1        0.0378
     46 H           5.3132   -1.8246    2.2843 H       1  UNL1        0.0283
     47 H           5.8962   -0.3153    1.4826 H       1  UNL1        0.0283
     48 H           3.6264   -2.0002    0.2457 H       1  UNL1        0.0424
     49 H           4.2910   -0.4468   -0.2473 H       1  UNL1        0.0424
     50 H           3.6215    0.4774    1.9272 H       1  UNL1        0.1226
     51 H           1.4356   -1.2042    0.8386 H       1  UNL1        0.0528
     52 H           1.5452    1.4626    2.2943 H       1  UNL1        0.0513
     53 H           0.9565   -0.1175    2.8438 H       1  UNL1        0.0513
     54 H          -2.7508    4.4421    1.6137 H       1  UNL1        0.0624
     55 H          -3.4237    6.5474    0.5644 H       1  UNL1        0.0618
     56 H          -3.3462    6.7473   -1.8488 H       1  UNL1        0.0618
     57 H          -2.6001    4.8635   -3.2265 H       1  UNL1        0.0632
     58 H          -3.8329    1.4654    0.3880 H       1  UNL1        0.0818
     59 H          -4.5813   -0.4420    1.8050 H       1  UNL1        0.0544
     60 H          -3.3354   -1.4976    2.4429 H       1  UNL1        0.0544
     61 H          -5.9171   -1.8136   -2.3507 H       1  UNL1        0.0646
     62 H          -5.1210   -4.1537   -2.4984 H       1  UNL1        0.0619
     63 H          -3.6016   -4.9460   -0.7823 H       1  UNL1        0.0623
     64 H           3.4983    1.8869    0.3034 H       1  UNL1        0.0621
     65 H           3.7417    2.9691   -1.8661 H       1  UNL1        0.0618
     66 H           2.4143    2.1968   -3.8269 H       1  UNL1        0.0618
     67 H           0.8821    0.3479   -3.5129 H       1  UNL1        0.0618
     68 H           0.6378   -0.7515   -1.3049 H       1  UNL1        0.0621
@<TRIPOS>BOND
     1     1     2    2
     2     2     3    1
     3     2     4    1
     4     4     5    1
     5     5     6    1
     6     6     7    1
     7     7     8    1
     8     8     9    1
     9     9    10    1
    10    10    11   ar
    11    11    12    2
    12    11    13   ar
    13    13    14    1
    14    14    15   ar
    15    15    16   ar
    16    16    17   ar
    17    17    18   ar
    18    18    19   ar
    19    19    20    1
    20    13    21   ar
    21    21    22   ar
    22    22    23    1
    23    23    24    1
    24    24    25   ar
    25    25    26    1
    26    25    27   ar
    27    27    28   ar
    28    28    29   ar
    29    29    30   ar
    30    30    31    1
    31    31    32    1
    32    31    33    1
    33    31    34    1
    34    22    35   ar
    35    35    36    2
    36     8    37    1
    37    37    38   ar
    38    38    39   ar
    39    39    40   ar
    40    40    41   ar
    41    41    42   ar
    42    35    10   ar
    43    42    37   ar
    44    19    14   ar
    45    30    24   ar
    46     3    43    1
    47     4    44    1
    48     4    45    1
    49     5    46    1
    50     5    47    1
    51     6    48    1
    52     6    49    1
    53     7    50    1
    54     8    51    1
    55     9    52    1
    56     9    53    1
    57    15    54    1
    58    16    55    1
    59    17    56    1
    60    18    57    1
    61    21    58    1
    62    23    59    1
    63    23    60    1
    64    27    61    1
    65    28    62    1
    66    29    63    1
    67    38    64    1
    68    39    65    1
    69    40    66    1
    70    41    67    1
    71    42    68    1
