
     RDKit          3D

 68 71  0  0  0  0  0  0  0  0999 V2000
    4.8341   -3.8880    0.5776 O   0  0  0  0  0  0  0  0  0  0  0  0
    5.9114   -3.4357    0.1369 C   0  0  0  0  0  0  0  0  0  0  0  0
    6.6750   -4.2535   -0.6767 O   0  0  0  0  0  0  0  0  0  0  0  0
    6.4027   -2.0797    0.4426 C   0  0  0  0  0  0  0  0  0  0  0  0
    5.4279   -1.3212    1.2940 C   0  0  0  0  0  0  0  0  0  0  0  0
    4.0868   -1.1013    0.6557 C   0  0  0  0  0  0  0  0  0  0  0  0
    3.1987   -0.3700    1.5397 N   0  0  0  0  0  0  0  0  0  0  0  0
    1.8886   -0.1830    0.9578 C   0  0  1  0  0  0  0  0  0  0  0  0
    1.0394    0.5379    1.9460 C   0  0  0  0  0  0  0  0  0  0  0  0
   -0.3164    0.7941    1.5085 N   0  0  0  0  0  0  0  0  0  0  0  0
   -0.6094    1.9495    0.8957 C   0  0  0  0  0  0  0  0  0  0  0  0
    0.2431    2.8603    0.6727 O   0  0  0  0  0  0  0  0  0  0  0  0
   -1.8999    2.2193    0.4607 C   0  0  0  0  0  0  0  0  0  0  0  0
   -2.2881    3.4455   -0.2052 C   0  0  0  0  0  0  0  0  0  0  0  0
   -2.7127    4.5218    0.5483 C   0  0  0  0  0  0  0  0  0  0  0  0
   -3.0948    5.7122   -0.0345 C   0  0  0  0  0  0  0  0  0  0  0  0
   -3.0435    5.8046   -1.3922 C   0  0  0  0  0  0  0  0  0  0  0  0
   -2.6151    4.7206   -2.1631 C   0  0  0  0  0  0  0  0  0  0  0  0
   -2.2381    3.5404   -1.5551 C   0  0  0  0  0  0  0  0  0  0  0  0
   -1.7033    2.1772   -2.4961 Cl  0  0  0  0  0  0  0  0  0  0  0  0
   -2.8488    1.2141    0.7046 C   0  0  0  0  0  0  0  0  0  0  0  0
   -2.5886    0.0573    1.3064 N   0  0  0  0  0  0  0  0  0  0  0  0
   -3.6043   -0.9424    1.4871 C   0  0  0  0  0  0  0  0  0  0  0  0
   -3.9558   -1.8512    0.4135 C   0  0  0  0  0  0  0  0  0  0  0  0
   -4.8351   -1.3618   -0.5653 C   0  0  0  0  0  0  0  0  0  0  0  0
   -5.3662   -0.1236   -0.5594 F   0  0  0  0  0  0  0  0  0  0  0  0
   -5.2374   -2.1793   -1.5843 C   0  0  0  0  0  0  0  0  0  0  0  0
   -4.8199   -3.4762   -1.7016 C   0  0  0  0  0  0  0  0  0  0  0  0
   -3.9656   -3.9262   -0.7348 C   0  0  0  0  0  0  0  0  0  0  0  0
   -3.5034   -3.1530    0.3430 C   0  0  0  0  0  0  0  0  0  0  0  0
   -2.5298   -3.7778    1.2804 C   0  0  0  0  0  0  0  0  0  0  0  0
   -2.8624   -3.6480    2.6054 F   0  0  0  0  0  0  0  0  0  0  0  0
   -2.7373   -5.2081    1.1017 F   0  0  0  0  0  0  0  0  0  0  0  0
   -1.2298   -3.5905    0.9829 F   0  0  0  0  0  0  0  0  0  0  0  0
   -1.2928   -0.1167    1.7017 C   0  0  0  0  0  0  0  0  0  0  0  0
   -0.9633   -1.1577    2.2814 O   0  0  0  0  0  0  0  0  0  0  0  0
    2.0509    0.4884   -0.3413 C   0  0  0  0  0  0  0  0  0  0  0  0
    2.9136    1.5405   -0.5423 C   0  0  0  0  0  0  0  0  0  0  0  0
    3.0589    2.1584   -1.7601 C   0  0  0  0  0  0  0  0  0  0  0  0
    2.3270    1.7291   -2.8330 C   0  0  0  0  0  0  0  0  0  0  0  0
    1.4504    0.6743   -2.6656 C   0  0  0  0  0  0  0  0  0  0  0  0
    1.3181    0.0635   -1.4276 C   0  0  0  0  0  0  0  0  0  0  0  0
    6.6910   -5.2711   -0.5666 H   0  0  0  0  0  0  0  0  0  0  0  0
    6.5937   -1.5254   -0.5247 H   0  0  0  0  0  0  0  0  0  0  0  0
    7.4008   -2.1613    0.9161 H   0  0  0  0  0  0  0  0  0  0  0  0
    5.3132   -1.8246    2.2843 H   0  0  0  0  0  0  0  0  0  0  0  0
    5.8962   -0.3153    1.4826 H   0  0  0  0  0  0  0  0  0  0  0  0
    3.6264   -2.0002    0.2457 H   0  0  0  0  0  0  0  0  0  0  0  0
    4.2910   -0.4468   -0.2473 H   0  0  0  0  0  0  0  0  0  0  0  0
    3.6215    0.4774    1.9272 H   0  0  0  0  0  0  0  0  0  0  0  0
    1.4356   -1.2042    0.8386 H   0  0  0  0  0  0  0  0  0  0  0  0
    1.5452    1.4626    2.2943 H   0  0  0  0  0  0  0  0  0  0  0  0
    0.9565   -0.1175    2.8438 H   0  0  0  0  0  0  0  0  0  0  0  0
   -2.7508    4.4421    1.6137 H   0  0  0  0  0  0  0  0  0  0  0  0
   -3.4237    6.5474    0.5644 H   0  0  0  0  0  0  0  0  0  0  0  0
   -3.3462    6.7473   -1.8488 H   0  0  0  0  0  0  0  0  0  0  0  0
   -2.6001    4.8635   -3.2265 H   0  0  0  0  0  0  0  0  0  0  0  0
   -3.8329    1.4654    0.3880 H   0  0  0  0  0  0  0  0  0  0  0  0
   -4.5813   -0.4420    1.8050 H   0  0  0  0  0  0  0  0  0  0  0  0
   -3.3354   -1.4976    2.4429 H   0  0  0  0  0  0  0  0  0  0  0  0
   -5.9171   -1.8136   -2.3507 H   0  0  0  0  0  0  0  0  0  0  0  0
   -5.1210   -4.1537   -2.4984 H   0  0  0  0  0  0  0  0  0  0  0  0
   -3.6016   -4.9460   -0.7823 H   0  0  0  0  0  0  0  0  0  0  0  0
    3.4983    1.8869    0.3034 H   0  0  0  0  0  0  0  0  0  0  0  0
    3.7417    2.9691   -1.8661 H   0  0  0  0  0  0  0  0  0  0  0  0
    2.4143    2.1968   -3.8269 H   0  0  0  0  0  0  0  0  0  0  0  0
    0.8821    0.3479   -3.5129 H   0  0  0  0  0  0  0  0  0  0  0  0
    0.6378   -0.7515   -1.3049 H   0  0  0  0  0  0  0  0  0  0  0  0
  1  2  2  0
  2  3  1  0
  2  4  1  0
  4  5  1  0
  5  6  1  0
  6  7  1  0
  7  8  1  0
  8  9  1  0
  9 10  1  0
 10 11  1  0
 11 12  2  0
 11 13  1  0
 13 14  1  0
 14 15  2  0
 15 16  1  0
 16 17  2  0
 17 18  1  0
 18 19  2  0
 19 20  1  0
 13 21  2  0
 21 22  1  0
 22 23  1  0
 23 24  1  0
 24 25  2  0
 25 26  1  0
 25 27  1  0
 27 28  2  0
 28 29  1  0
 29 30  2  0
 30 31  1  0
 31 32  1  0
 31 33  1  0
 31 34  1  0
 22 35  1  0
 35 36  2  0
  8 37  1  0
 37 38  2  0
 38 39  1  0
 39 40  2  0
 40 41  1  0
 41 42  2  0
 35 10  1  0
 42 37  1  0
 19 14  1  0
 30 24  1  0
  3 43  1  0
  4 44  1  0
  4 45  1  0
  5 46  1  0
  5 47  1  0
  6 48  1  0
  6 49  1  0
  7 50  1  0
  8 51  1  6
  9 52  1  0
  9 53  1  0
 15 54  1  0
 16 55  1  0
 17 56  1  0
 18 57  1  0
 21 58  1  0
 23 59  1  0
 23 60  1  0
 27 61  1  0
 28 62  1  0
 29 63  1  0
 38 64  1  0
 39 65  1  0
 40 66  1  0
 41 67  1  0
 42 68  1  0
M  END
$$$$
