@<TRIPOS>MOLECULE
*****
 29 30 0 0 0
SMALL
GASTEIGER

@<TRIPOS>ATOM
      1 C          -1.3704   -2.3925    0.2430 C.3     1  UNL1       -0.0636
      2 C          -1.4775   -1.2310   -0.6905 C.3     1  UNL1       -0.0293
      3 C          -0.8167    0.0272   -0.1761 C.3     1  UNL1        0.1479
      4 C          -1.0346    1.0515   -1.2409 C.2     1  UNL1        0.2398
      5 O          -1.0795    0.7707   -2.4673 O.2     1  UNL1       -0.2739
      6 N          -1.2083    2.4300   -0.9406 N.am    1  UNL1       -0.2387
      7 C          -1.4481    2.8112    0.4270 C.2     1  UNL1        0.3122
      8 O          -1.6109    4.0337    0.7515 O.2     1  UNL1       -0.2520
      9 N          -1.5122    1.8452    1.4607 N.am    1  UNL1       -0.2387
     10 C          -1.3319    0.4629    1.1189 C.2     1  UNL1        0.2398
     11 O          -1.6517   -0.3601    2.0217 O.2     1  UNL1       -0.2739
     12 C           0.6586   -0.1569   -0.1167 C.ar    1  UNL1       -0.0237
     13 C           1.2837   -0.1983    1.1327 C.ar    1  UNL1       -0.0571
     14 C           2.6551   -0.3693    1.1937 C.ar    1  UNL1       -0.0615
     15 C           3.4482   -0.5027    0.0788 C.ar    1  UNL1       -0.0617
     16 C           2.8255   -0.4615   -1.1664 C.ar    1  UNL1       -0.0615
     17 C           1.4553   -0.2909   -1.2348 C.ar    1  UNL1       -0.0571
     18 H          -0.3844   -2.5207    0.7037 H       1  UNL1        0.0230
     19 H          -2.1980   -2.3978    1.0085 H       1  UNL1        0.0230
     20 H          -1.5668   -3.3161   -0.3533 H       1  UNL1        0.0230
     21 H          -2.5487   -1.0721   -0.9272 H       1  UNL1        0.0280
     22 H          -1.0120   -1.5517   -1.6450 H       1  UNL1        0.0280
     23 H          -1.1818    3.2250   -1.6156 H       1  UNL1        0.1591
     24 H          -1.6868    2.1295    2.4523 H       1  UNL1        0.1591
     25 H           0.6713   -0.0946    2.0181 H       1  UNL1        0.0621
     26 H           3.1582   -0.4044    2.1399 H       1  UNL1        0.0618
     27 H           4.5235   -0.6375    0.1011 H       1  UNL1        0.0618
     28 H           3.4391   -0.5657   -2.0640 H       1  UNL1        0.0618
     29 H           1.0015   -0.2630   -2.2134 H       1  UNL1        0.0621
@<TRIPOS>BOND
     1     1     2    1
     2     2     3    1
     3     3     4    1
     4     4     5    2
     5     4     6   am
     6     6     7   am
     7     7     8    2
     8     7     9   am
     9     9    10   am
    10    10    11    2
    11     3    12    1
    12    12    13   ar
    13    13    14   ar
    14    14    15   ar
    15    15    16   ar
    16    16    17   ar
    17    10     3    1
    18    17    12   ar
    19     1    18    1
    20     1    19    1
    21     1    20    1
    22     2    21    1
    23     2    22    1
    24     6    23    1
    25     9    24    1
    26    13    25    1
    27    14    26    1
    28    15    27    1
    29    16    28    1
    30    17    29    1
