@<TRIPOS>MOLECULE
*****
 30 32 0 0 0
SMALL
GASTEIGER

@<TRIPOS>ATOM
      1 N          -1.4736    1.9285    2.7001 N.pl3   1  UNL1       -0.3275
      2 C          -1.8339    1.1694    1.5511 C.ar    1  UNL1        0.2145
      3 N          -2.9448    1.2843    0.8102 N.ar    1  UNL1       -0.2133
      4 C          -2.8843    0.3764   -0.1777 C.ar    1  UNL1        0.0927
      5 C          -3.7203    0.0344   -1.2181 C.ar    1  UNL1       -0.0341
      6 C          -3.3319   -0.9761   -2.0591 C.ar    1  UNL1       -0.0596
      7 C          -2.1539   -1.6642   -1.9180 C.ar    1  UNL1       -0.0596
      8 C          -1.3207   -1.3183   -0.8755 C.ar    1  UNL1       -0.0343
      9 C          -1.6909   -0.2948   -0.0064 C.ar    1  UNL1        0.0939
     10 N          -1.0275    0.1755    1.0498 N.ar    1  UNL1       -0.1790
     11 S           0.5046   -0.2906    1.6896 S.O2    1  UNL1        0.0869
     12 O           0.8277    0.5230    2.9329 O.2     1  UNL1       -0.1475
     13 O           0.4898   -1.7672    2.0598 O.2     1  UNL1       -0.1475
     14 C           1.8292   -0.0469    0.5973 C.ar    1  UNL1        0.1112
     15 C           2.2885   -1.1112   -0.1364 C.ar    1  UNL1       -0.0335
     16 C           3.3403   -0.9788   -1.0299 C.ar    1  UNL1       -0.0415
     17 C           3.9189    0.2648   -1.1627 C.ar    1  UNL1        0.0411
     18 CL          5.2600    0.4216   -2.3057 Cl      1  UNL1       -0.0835
     19 C           3.4759    1.3487   -0.4371 C.ar    1  UNL1       -0.0415
     20 C           2.4349    1.2056    0.4434 C.ar    1  UNL1       -0.0335
     21 H          -1.5812    1.4410    3.6217 H       1  UNL1        0.1451
     22 H          -1.1243    2.9005    2.6694 H       1  UNL1        0.1451
     23 H          -4.6550    0.5709   -1.3407 H       1  UNL1        0.0639
     24 H          -3.9706   -1.2686   -2.8895 H       1  UNL1        0.0618
     25 H          -1.8580   -2.4733   -2.6028 H       1  UNL1        0.0618
     26 H          -0.3995   -1.8368   -0.7328 H       1  UNL1        0.0639
     27 H           1.8592   -2.1234   -0.0589 H       1  UNL1        0.0638
     28 H           3.6786   -1.8441   -1.5955 H       1  UNL1        0.0633
     29 H           3.9865    2.3048   -0.5975 H       1  UNL1        0.0633
     30 H           2.0760    2.0449    1.0192 H       1  UNL1        0.0638
@<TRIPOS>BOND
     1     1     2    1
     2     2     3   ar
     3     3     4   ar
     4     4     5   ar
     5     5     6   ar
     6     6     7   ar
     7     7     8   ar
     8     8     9   ar
     9     9    10   ar
    10    10    11    1
    11    11    12    2
    12    11    13    2
    13    11    14    1
    14    14    15   ar
    15    15    16   ar
    16    16    17   ar
    17    17    18    1
    18    17    19   ar
    19    19    20   ar
    20    10     2   ar
    21    20    14   ar
    22     9     4   ar
    23     1    21    1
    24     1    22    1
    25     5    23    1
    26     6    24    1
    27     7    25    1
    28     8    26    1
    29    15    27    1
    30    16    28    1
    31    19    29    1
    32    20    30    1
