
     RDKit          3D

 30 32  0  0  0  0  0  0  0  0999 V2000
   -1.4736    1.9285    2.7001 N   0  0  0  0  0  0  0  0  0  0  0  0
   -1.8339    1.1694    1.5511 C   0  0  0  0  0  0  0  0  0  0  0  0
   -2.9448    1.2843    0.8102 N   0  0  0  0  0  0  0  0  0  0  0  0
   -2.8843    0.3764   -0.1777 C   0  0  0  0  0  0  0  0  0  0  0  0
   -3.7203    0.0344   -1.2181 C   0  0  0  0  0  0  0  0  0  0  0  0
   -3.3319   -0.9761   -2.0591 C   0  0  0  0  0  0  0  0  0  0  0  0
   -2.1539   -1.6642   -1.9180 C   0  0  0  0  0  0  0  0  0  0  0  0
   -1.3207   -1.3183   -0.8755 C   0  0  0  0  0  0  0  0  0  0  0  0
   -1.6909   -0.2948   -0.0064 C   0  0  0  0  0  0  0  0  0  0  0  0
   -1.0275    0.1755    1.0498 N   0  0  0  0  0  0  0  0  0  0  0  0
    0.5046   -0.2906    1.6896 S   0  0  0  0  0  6  0  0  0  0  0  0
    0.8277    0.5230    2.9329 O   0  0  0  0  0  0  0  0  0  0  0  0
    0.4898   -1.7672    2.0598 O   0  0  0  0  0  0  0  0  0  0  0  0
    1.8292   -0.0469    0.5973 C   0  0  0  0  0  0  0  0  0  0  0  0
    2.2885   -1.1112   -0.1364 C   0  0  0  0  0  0  0  0  0  0  0  0
    3.3403   -0.9788   -1.0299 C   0  0  0  0  0  0  0  0  0  0  0  0
    3.9189    0.2648   -1.1627 C   0  0  0  0  0  0  0  0  0  0  0  0
    5.2600    0.4216   -2.3057 Cl  0  0  0  0  0  0  0  0  0  0  0  0
    3.4759    1.3487   -0.4371 C   0  0  0  0  0  0  0  0  0  0  0  0
    2.4349    1.2056    0.4434 C   0  0  0  0  0  0  0  0  0  0  0  0
   -1.5812    1.4410    3.6217 H   0  0  0  0  0  0  0  0  0  0  0  0
   -1.1243    2.9005    2.6694 H   0  0  0  0  0  0  0  0  0  0  0  0
   -4.6550    0.5709   -1.3407 H   0  0  0  0  0  0  0  0  0  0  0  0
   -3.9706   -1.2686   -2.8895 H   0  0  0  0  0  0  0  0  0  0  0  0
   -1.8580   -2.4733   -2.6028 H   0  0  0  0  0  0  0  0  0  0  0  0
   -0.3995   -1.8368   -0.7328 H   0  0  0  0  0  0  0  0  0  0  0  0
    1.8592   -2.1234   -0.0589 H   0  0  0  0  0  0  0  0  0  0  0  0
    3.6786   -1.8441   -1.5955 H   0  0  0  0  0  0  0  0  0  0  0  0
    3.9865    2.3048   -0.5975 H   0  0  0  0  0  0  0  0  0  0  0  0
    2.0760    2.0449    1.0192 H   0  0  0  0  0  0  0  0  0  0  0  0
  1  2  1  0
  2  3  2  0
  3  4  1  0
  4  5  2  0
  5  6  1  0
  6  7  2  0
  7  8  1  0
  8  9  2  0
  9 10  1  0
 10 11  1  0
 11 12  2  0
 11 13  2  0
 11 14  1  0
 14 15  2  0
 15 16  1  0
 16 17  2  0
 17 18  1  0
 17 19  1  0
 19 20  2  0
 10  2  1  0
 20 14  1  0
  9  4  1  0
  1 21  1  0
  1 22  1  0
  5 23  1  0
  6 24  1  0
  7 25  1  0
  8 26  1  0
 15 27  1  0
 16 28  1  0
 19 29  1  0
 20 30  1  0
M  END
$$$$
