@<TRIPOS>MOLECULE
*****
 68 73 0 0 0
SMALL
GASTEIGER

@<TRIPOS>ATOM
      1 C           0.2131   -3.2619    1.8017 C.3     1  UNL1        0.0126
      2 N          -1.1382   -2.8148    1.9112 N.ar    1  UNL1       -0.3389
      3 C          -2.1079   -3.5802    2.4789 C.ar    1  UNL1        0.0558
      4 C          -2.1420   -4.8157    3.0815 C.ar    1  UNL1       -0.0193
      5 C          -3.3089   -5.3651    3.5877 C.ar    1  UNL1        0.0312
      6 N          -4.4277   -4.6286    3.4643 N.ar    1  UNL1       -0.2427
      7 C          -4.4263   -3.4100    2.8767 C.ar    1  UNL1        0.1404
      8 CL         -5.9246   -2.4757    2.7354 Cl      1  UNL1       -0.0613
      9 C          -3.2721   -2.8516    2.3686 C.ar    1  UNL1        0.0628
     10 C          -3.0153   -1.6559    1.7414 C.ar    1  UNL1        0.1047
     11 N          -3.7611   -0.5848    1.3641 N.ar    1  UNL1       -0.2283
     12 C          -3.2157    0.4652    0.7337 C.ar    1  UNL1        0.1458
     13 C          -4.0556    1.6334    0.3244 C.3     1  UNL1        0.0590
     14 N          -4.6126    1.4853   -0.9754 N.3     1  UNL1       -0.2908
     15 C          -3.7011    1.3667   -2.0525 C.3     1  UNL1        0.0229
     16 C          -3.7888    2.5069   -3.0523 C.3     1  UNL1        0.0604
     17 O          -3.9642    3.7257   -2.4410 O.3     1  UNL1       -0.3772
     18 C          -5.0665    3.7958   -1.6295 C.3     1  UNL1        0.0604
     19 C          -5.6245    2.4768   -1.2033 C.3     1  UNL1        0.0229
     20 N          -1.9074    0.4280    0.4863 N.ar    1  UNL1       -0.2139
     21 C          -1.0703   -0.5788    0.8142 C.ar    1  UNL1        0.1493
     22 N           0.2940   -0.4578    0.5388 N.pl3   1  UNL1       -0.3110
     23 C           1.2621   -0.1850    1.5728 C.3     1  UNL1        0.0264
     24 C           2.5896   -0.6989    1.0801 C.3     1  UNL1        0.0147
     25 N           3.0496    0.0780   -0.0668 N.3     1  UNL1       -0.2990
     26 C           3.9284   -0.7332   -0.8887 C.3     1  UNL1        0.0030
     27 C           4.6190   -0.0128   -1.9869 C.3     1  UNL1       -0.0148
     28 C           5.5087    1.0688   -1.5042 C.ar    1  UNL1       -0.0433
     29 C           6.8558    0.8002   -1.2476 C.ar    1  UNL1       -0.0556
     30 C           7.7020    1.7686   -0.7975 C.ar    1  UNL1       -0.0233
     31 C           7.2156    3.0486   -0.5896 C.ar    1  UNL1        0.1584
     32 F           8.0465    4.0176   -0.1425 F       1  UNL1       -0.2025
     33 C           5.8927    3.3340   -0.8360 C.ar    1  UNL1        0.1587
     34 F           5.3983    4.5819   -0.6348 F       1  UNL1       -0.2025
     35 C           5.0310    2.3339   -1.2981 C.ar    1  UNL1       -0.0204
     36 C           1.9208    0.4339   -0.9188 C.3     1  UNL1        0.0147
     37 C           0.7913   -0.5852   -0.8067 C.3     1  UNL1        0.0264
     38 C          -1.6610   -1.6550    1.4637 C.ar    1  UNL1        0.1090
     39 H           0.2708   -4.3835    1.9596 H       1  UNL1        0.0456
     40 H           0.8171   -2.8469    2.6148 H       1  UNL1        0.0456
     41 H           0.6251   -3.1285    0.7775 H       1  UNL1        0.0456
     42 H          -1.2209   -5.4064    3.1742 H       1  UNL1        0.0653
     43 H          -3.3117   -6.3519    4.0646 H       1  UNL1        0.0831
     44 H          -4.9248    1.7092    1.0385 H       1  UNL1        0.0507
     45 H          -3.4659    2.5553    0.4388 H       1  UNL1        0.0507
     46 H          -3.9607    0.4392   -2.6451 H       1  UNL1        0.0449
     47 H          -2.6360    1.2042   -1.7314 H       1  UNL1        0.0449
     48 H          -4.5938    2.3249   -3.7653 H       1  UNL1        0.0572
     49 H          -2.7935    2.5534   -3.5821 H       1  UNL1        0.0572
     50 H          -5.8862    4.3586   -2.1751 H       1  UNL1        0.0572
     51 H          -4.8584    4.4481   -0.7468 H       1  UNL1        0.0572
     52 H          -6.4240    2.1182   -1.8931 H       1  UNL1        0.0449
     53 H          -6.1096    2.6555   -0.1967 H       1  UNL1        0.0449
     54 H           1.3750    0.9462    1.7063 H       1  UNL1        0.0477
     55 H           0.9955   -0.5299    2.5722 H       1  UNL1        0.0477
     56 H           3.3554   -0.6950    1.8950 H       1  UNL1        0.0442
     57 H           2.4645   -1.7239    0.7044 H       1  UNL1        0.0442
     58 H           4.6840   -1.1926   -0.2059 H       1  UNL1        0.0430
     59 H           3.3762   -1.5973   -1.3448 H       1  UNL1        0.0430
     60 H           3.9989    0.3976   -2.7742 H       1  UNL1        0.0326
     61 H           5.2788   -0.7864   -2.4955 H       1  UNL1        0.0326
     62 H           7.1880   -0.2150   -1.4272 H       1  UNL1        0.0621
     63 H           8.7648    1.5621   -0.5951 H       1  UNL1        0.0647
     64 H           4.0133    2.6163   -1.4682 H       1  UNL1        0.0650
     65 H           2.2285    0.4409   -1.9552 H       1  UNL1        0.0442
     66 H           1.4893    1.4098   -0.6525 H       1  UNL1        0.0442
     67 H           0.0340   -0.2808   -1.5680 H       1  UNL1        0.0477
     68 H           1.0995   -1.5998   -1.0770 H       1  UNL1        0.0477
@<TRIPOS>BOND
     1     1     2    1
     2     2     3   ar
     3     3     4   ar
     4     4     5   ar
     5     5     6   ar
     6     6     7   ar
     7     7     8    1
     8     7     9   ar
     9     9    10   ar
    10    10    11   ar
    11    11    12   ar
    12    12    13    1
    13    13    14    1
    14    14    15    1
    15    15    16    1
    16    16    17    1
    17    17    18    1
    18    18    19    1
    19    12    20   ar
    20    20    21   ar
    21    21    22    1
    22    22    23    1
    23    23    24    1
    24    24    25    1
    25    25    26    1
    26    26    27    1
    27    27    28    1
    28    28    29   ar
    29    29    30   ar
    30    30    31   ar
    31    31    32    1
    32    31    33   ar
    33    33    34    1
    34    33    35   ar
    35    25    36    1
    36    36    37    1
    37    21    38   ar
    38    38     2   ar
    39     9     3   ar
    40    38    10   ar
    41    19    14    1
    42    37    22    1
    43    35    28   ar
    44     1    39    1
    45     1    40    1
    46     1    41    1
    47     4    42    1
    48     5    43    1
    49    13    44    1
    50    13    45    1
    51    15    46    1
    52    15    47    1
    53    16    48    1
    54    16    49    1
    55    18    50    1
    56    18    51    1
    57    19    52    1
    58    19    53    1
    59    23    54    1
    60    23    55    1
    61    24    56    1
    62    24    57    1
    63    26    58    1
    64    26    59    1
    65    27    60    1
    66    27    61    1
    67    29    62    1
    68    30    63    1
    69    35    64    1
    70    36    65    1
    71    36    66    1
    72    37    67    1
    73    37    68    1
