
     RDKit          3D

 68 73  0  0  0  0  0  0  0  0999 V2000
    0.2131   -3.2619    1.8017 C   0  0  0  0  0  0  0  0  0  0  0  0
   -1.1382   -2.8148    1.9112 N   0  0  0  0  0  0  0  0  0  0  0  0
   -2.1079   -3.5802    2.4789 C   0  0  0  0  0  0  0  0  0  0  0  0
   -2.1420   -4.8157    3.0815 C   0  0  0  0  0  0  0  0  0  0  0  0
   -3.3089   -5.3651    3.5877 C   0  0  0  0  0  0  0  0  0  0  0  0
   -4.4277   -4.6286    3.4643 N   0  0  0  0  0  0  0  0  0  0  0  0
   -4.4263   -3.4100    2.8767 C   0  0  0  0  0  0  0  0  0  0  0  0
   -5.9246   -2.4757    2.7354 Cl  0  0  0  0  0  0  0  0  0  0  0  0
   -3.2721   -2.8516    2.3686 C   0  0  0  0  0  0  0  0  0  0  0  0
   -3.0153   -1.6559    1.7414 C   0  0  0  0  0  0  0  0  0  0  0  0
   -3.7611   -0.5848    1.3641 N   0  0  0  0  0  0  0  0  0  0  0  0
   -3.2157    0.4652    0.7337 C   0  0  0  0  0  0  0  0  0  0  0  0
   -4.0556    1.6334    0.3244 C   0  0  0  0  0  0  0  0  0  0  0  0
   -4.6126    1.4853   -0.9754 N   0  0  0  0  0  0  0  0  0  0  0  0
   -3.7011    1.3667   -2.0525 C   0  0  0  0  0  0  0  0  0  0  0  0
   -3.7888    2.5069   -3.0523 C   0  0  0  0  0  0  0  0  0  0  0  0
   -3.9642    3.7257   -2.4410 O   0  0  0  0  0  0  0  0  0  0  0  0
   -5.0665    3.7958   -1.6295 C   0  0  0  0  0  0  0  0  0  0  0  0
   -5.6245    2.4768   -1.2033 C   0  0  0  0  0  0  0  0  0  0  0  0
   -1.9074    0.4280    0.4863 N   0  0  0  0  0  0  0  0  0  0  0  0
   -1.0703   -0.5788    0.8142 C   0  0  0  0  0  0  0  0  0  0  0  0
    0.2940   -0.4578    0.5388 N   0  0  0  0  0  0  0  0  0  0  0  0
    1.2621   -0.1850    1.5728 C   0  0  0  0  0  0  0  0  0  0  0  0
    2.5896   -0.6989    1.0801 C   0  0  0  0  0  0  0  0  0  0  0  0
    3.0496    0.0780   -0.0668 N   0  0  0  0  0  0  0  0  0  0  0  0
    3.9284   -0.7332   -0.8887 C   0  0  0  0  0  0  0  0  0  0  0  0
    4.6190   -0.0128   -1.9869 C   0  0  0  0  0  0  0  0  0  0  0  0
    5.5087    1.0688   -1.5042 C   0  0  0  0  0  0  0  0  0  0  0  0
    6.8558    0.8002   -1.2476 C   0  0  0  0  0  0  0  0  0  0  0  0
    7.7020    1.7686   -0.7975 C   0  0  0  0  0  0  0  0  0  0  0  0
    7.2156    3.0486   -0.5896 C   0  0  0  0  0  0  0  0  0  0  0  0
    8.0465    4.0176   -0.1425 F   0  0  0  0  0  0  0  0  0  0  0  0
    5.8927    3.3340   -0.8360 C   0  0  0  0  0  0  0  0  0  0  0  0
    5.3983    4.5819   -0.6348 F   0  0  0  0  0  0  0  0  0  0  0  0
    5.0310    2.3339   -1.2981 C   0  0  0  0  0  0  0  0  0  0  0  0
    1.9208    0.4339   -0.9188 C   0  0  0  0  0  0  0  0  0  0  0  0
    0.7913   -0.5852   -0.8067 C   0  0  0  0  0  0  0  0  0  0  0  0
   -1.6610   -1.6550    1.4637 C   0  0  0  0  0  0  0  0  0  0  0  0
    0.2708   -4.3835    1.9596 H   0  0  0  0  0  0  0  0  0  0  0  0
    0.8171   -2.8469    2.6148 H   0  0  0  0  0  0  0  0  0  0  0  0
    0.6251   -3.1285    0.7775 H   0  0  0  0  0  0  0  0  0  0  0  0
   -1.2209   -5.4064    3.1742 H   0  0  0  0  0  0  0  0  0  0  0  0
   -3.3117   -6.3519    4.0646 H   0  0  0  0  0  0  0  0  0  0  0  0
   -4.9248    1.7092    1.0385 H   0  0  0  0  0  0  0  0  0  0  0  0
   -3.4659    2.5553    0.4388 H   0  0  0  0  0  0  0  0  0  0  0  0
   -3.9607    0.4392   -2.6451 H   0  0  0  0  0  0  0  0  0  0  0  0
   -2.6360    1.2042   -1.7314 H   0  0  0  0  0  0  0  0  0  0  0  0
   -4.5938    2.3249   -3.7653 H   0  0  0  0  0  0  0  0  0  0  0  0
   -2.7935    2.5534   -3.5821 H   0  0  0  0  0  0  0  0  0  0  0  0
   -5.8862    4.3586   -2.1751 H   0  0  0  0  0  0  0  0  0  0  0  0
   -4.8584    4.4481   -0.7468 H   0  0  0  0  0  0  0  0  0  0  0  0
   -6.4240    2.1182   -1.8931 H   0  0  0  0  0  0  0  0  0  0  0  0
   -6.1096    2.6555   -0.1967 H   0  0  0  0  0  0  0  0  0  0  0  0
    1.3750    0.9462    1.7063 H   0  0  0  0  0  0  0  0  0  0  0  0
    0.9955   -0.5299    2.5722 H   0  0  0  0  0  0  0  0  0  0  0  0
    3.3554   -0.6950    1.8950 H   0  0  0  0  0  0  0  0  0  0  0  0
    2.4645   -1.7239    0.7044 H   0  0  0  0  0  0  0  0  0  0  0  0
    4.6840   -1.1926   -0.2059 H   0  0  0  0  0  0  0  0  0  0  0  0
    3.3762   -1.5973   -1.3448 H   0  0  0  0  0  0  0  0  0  0  0  0
    3.9989    0.3976   -2.7742 H   0  0  0  0  0  0  0  0  0  0  0  0
    5.2788   -0.7864   -2.4955 H   0  0  0  0  0  0  0  0  0  0  0  0
    7.1880   -0.2150   -1.4272 H   0  0  0  0  0  0  0  0  0  0  0  0
    8.7648    1.5621   -0.5951 H   0  0  0  0  0  0  0  0  0  0  0  0
    4.0133    2.6163   -1.4682 H   0  0  0  0  0  0  0  0  0  0  0  0
    2.2285    0.4409   -1.9552 H   0  0  0  0  0  0  0  0  0  0  0  0
    1.4893    1.4098   -0.6525 H   0  0  0  0  0  0  0  0  0  0  0  0
    0.0340   -0.2808   -1.5680 H   0  0  0  0  0  0  0  0  0  0  0  0
    1.0995   -1.5998   -1.0770 H   0  0  0  0  0  0  0  0  0  0  0  0
  1  2  1  0
  2  3  1  0
  3  4  2  0
  4  5  1  0
  5  6  2  0
  6  7  1  0
  7  8  1  0
  7  9  2  0
  9 10  1  0
 10 11  2  0
 11 12  1  0
 12 13  1  0
 13 14  1  0
 14 15  1  0
 15 16  1  0
 16 17  1  0
 17 18  1  0
 18 19  1  0
 12 20  2  0
 20 21  1  0
 21 22  1  0
 22 23  1  0
 23 24  1  0
 24 25  1  0
 25 26  1  0
 26 27  1  0
 27 28  1  0
 28 29  2  0
 29 30  1  0
 30 31  2  0
 31 32  1  0
 31 33  1  0
 33 34  1  0
 33 35  2  0
 25 36  1  0
 36 37  1  0
 21 38  2  0
 38  2  1  0
  9  3  1  0
 38 10  1  0
 19 14  1  0
 37 22  1  0
 35 28  1  0
  1 39  1  0
  1 40  1  0
  1 41  1  0
  4 42  1  0
  5 43  1  0
 13 44  1  0
 13 45  1  0
 15 46  1  0
 15 47  1  0
 16 48  1  0
 16 49  1  0
 18 50  1  0
 18 51  1  0
 19 52  1  0
 19 53  1  0
 23 54  1  0
 23 55  1  0
 24 56  1  0
 24 57  1  0
 26 58  1  0
 26 59  1  0
 27 60  1  0
 27 61  1  0
 29 62  1  0
 30 63  1  0
 35 64  1  0
 36 65  1  0
 36 66  1  0
 37 67  1  0
 37 68  1  0
M  END
$$$$
