@<TRIPOS>MOLECULE
*****
 38 40 0 0 0
SMALL
GASTEIGER

@<TRIPOS>ATOM
      1 C          -5.5406    0.2493    0.2339 C.3     1  UNL1        0.1032
      2 O          -5.8819   -0.9620    0.8952 O.3     1  UNL1       -0.3849
      3 C          -6.1765    1.3374    1.0502 C.3     1  UNL1        0.0743
      4 O          -5.9158    2.5555    0.4481 O.3     1  UNL1       -0.3921
      5 C          -4.0591    0.3240    0.2129 C.ar    1  UNL1       -0.0169
      6 C          -3.2156    1.3562    0.5199 C.ar    1  UNL1       -0.0543
      7 C          -1.8510    1.2567    0.4451 C.ar    1  UNL1       -0.0401
      8 C          -1.2287    0.0949    0.0505 C.ar    1  UNL1        0.0337
      9 N           0.1870    0.0903    0.0055 N.am    1  UNL1       -0.2803
     10 C           1.0678   -0.9342   -0.3515 C.2     1  UNL1        0.2645
     11 O           0.6074   -2.0480   -0.6961 O.2     1  UNL1       -0.2683
     12 C           2.5154   -0.7919   -0.3500 C.ar    1  UNL1        0.1031
     13 C           3.2056    0.3713    0.0035 C.ar    1  UNL1       -0.0241
     14 C           4.5656    0.1755   -0.1012 C.ar    1  UNL1        0.0018
     15 C           5.7295    0.8819    0.0906 C.ar    1  UNL1       -0.0342
     16 C           6.9392    0.2472   -0.1508 C.ar    1  UNL1        0.0417
     17 CL          8.4231    1.1434    0.0924 Cl      1  UNL1       -0.0835
     18 C           7.0427   -1.0602   -0.5751 C.ar    1  UNL1       -0.0414
     19 C           5.8802   -1.7758   -0.7699 C.ar    1  UNL1       -0.0364
     20 C           4.6680   -1.1392   -0.5278 C.ar    1  UNL1        0.0471
     21 N           3.4498   -1.6768   -0.6636 N.ar    1  UNL1       -0.3506
     22 C          -2.0711   -0.9462   -0.2594 C.ar    1  UNL1       -0.0401
     23 C          -3.4463   -0.8681   -0.1912 C.ar    1  UNL1       -0.0543
     24 H          -5.9548    0.1780   -0.7702 H       1  UNL1        0.0667
     25 H          -5.1810   -1.1184    1.5907 H       1  UNL1        0.2103
     26 H          -7.2788    1.2388    1.0876 H       1  UNL1        0.0586
     27 H          -5.8503    1.3114    2.1140 H       1  UNL1        0.0586
     28 H          -6.2508    2.4906   -0.4855 H       1  UNL1        0.2095
     29 H          -3.6862    2.2677    0.8319 H       1  UNL1        0.0622
     30 H          -1.2903    2.1484    0.7155 H       1  UNL1        0.0636
     31 H           0.7036    0.9685    0.2725 H       1  UNL1        0.1552
     32 H           2.7857    1.3301    0.3252 H       1  UNL1        0.0646
     33 H           5.6300    1.8980    0.4210 H       1  UNL1        0.0639
     34 H           8.0120   -1.4926   -0.7440 H       1  UNL1        0.0633
     35 H           5.9396   -2.8025   -1.1024 H       1  UNL1        0.0639
     36 H           3.1931   -2.6611   -0.9728 H       1  UNL1        0.1660
     37 H          -1.6408   -1.8727   -0.5720 H       1  UNL1        0.0636
     38 H          -4.0257   -1.7656   -0.4630 H       1  UNL1        0.0622
@<TRIPOS>BOND
     1     1     2    1
     2     1     3    1
     3     3     4    1
     4     1     5    1
     5     5     6   ar
     6     6     7   ar
     7     7     8   ar
     8     8     9    1
     9     9    10   am
    10    10    11    2
    11    10    12    1
    12    12    13   ar
    13    13    14   ar
    14    14    15   ar
    15    15    16   ar
    16    16    17    1
    17    16    18   ar
    18    18    19   ar
    19    19    20   ar
    20    20    21   ar
    21     8    22   ar
    22    22    23   ar
    23    23     5   ar
    24    21    12   ar
    25    20    14   ar
    26     1    24    1
    27     2    25    1
    28     3    26    1
    29     3    27    1
    30     4    28    1
    31     6    29    1
    32     7    30    1
    33     9    31    1
    34    13    32    1
    35    15    33    1
    36    18    34    1
    37    19    35    1
    38    21    36    1
    39    22    37    1
    40    23    38    1
