@<TRIPOS>MOLECULE
*****
 75 78 0 0 0
SMALL
GASTEIGER

@<TRIPOS>ATOM
      1 C          -7.2817    5.2302   -1.3372 C.3     1  UNL1       -0.0652
      2 C          -5.9036    4.6546   -1.6348 C.3     1  UNL1       -0.0545
      3 C          -5.1811    4.5059   -0.3274 C.3     1  UNL1       -0.0376
      4 C          -5.8739    3.5896    0.6487 C.3     1  UNL1        0.0118
      5 N          -6.0254    2.2302    0.1423 N.pl3   1  UNL1       -0.3134
      6 C          -4.8420    1.5253   -0.1911 C.ar    1  UNL1        0.2169
      7 N          -4.4505    1.4787   -1.4699 N.ar    1  UNL1       -0.2222
      8 C          -3.3549    0.8606   -1.8857 C.ar    1  UNL1        0.0436
      9 C          -2.5224    0.1981   -0.9431 C.ar    1  UNL1        0.0584
     10 C          -1.1720   -0.1151   -1.3890 C.ar    1  UNL1        0.0807
     11 C          -0.0439   -0.1283   -0.6035 C.ar    1  UNL1        0.0046
     12 C           1.2500   -0.2610   -1.1204 C.ar    1  UNL1        0.1267
     13 N           2.3614   -0.2460   -0.2670 N.pl3   1  UNL1       -0.2993
     14 C           3.7046   -0.4661   -0.6053 C.ar    1  UNL1        0.0326
     15 C           4.0664   -1.1491   -1.7305 C.ar    1  UNL1       -0.0405
     16 C           5.4040   -1.3611   -2.0721 C.ar    1  UNL1       -0.0597
     17 C           6.4028   -0.8769   -1.2671 C.ar    1  UNL1       -0.0580
     18 C           6.0676   -0.1724   -0.1063 C.ar    1  UNL1       -0.0402
     19 C           7.1795    0.3321    0.7301 C.3     1  UNL1       -0.0126
     20 C           6.6845    1.1245    1.9215 C.3     1  UNL1       -0.0560
     21 C           7.9570   -0.8598    1.3066 C.3     1  UNL1       -0.0560
     22 C           8.1537    1.1626   -0.0474 C.3     1  UNL1       -0.0560
     23 C           4.7336    0.0114    0.1892 C.ar    1  UNL1       -0.0368
     24 N           1.3463   -0.3738   -2.4446 N.ar    1  UNL1       -0.2206
     25 C           0.2602   -0.3609   -3.2466 C.ar    1  UNL1        0.1187
     26 N          -0.9542   -0.2329   -2.7047 N.ar    1  UNL1       -0.2351
     27 C          -2.9136    0.2274    0.3465 C.ar    1  UNL1        0.1333
     28 N          -2.4431   -0.6778    1.3538 N.pl3   1  UNL1       -0.3256
     29 C          -1.7549   -1.9173    1.2500 C.3     1  UNL1        0.0221
     30 C          -2.0436   -2.7431    2.5645 C.3     1  UNL1       -0.0322
     31 C          -1.3227   -4.0428    2.4323 C.3     1  UNL1       -0.0252
     32 C          -1.7923   -4.8564    1.2481 C.3     1  UNL1        0.0554
     33 O          -0.7600   -5.1646    0.3681 O.3     1  UNL1       -0.3918
     34 C          -2.7961   -4.0382    0.4624 C.3     1  UNL1       -0.0252
     35 C          -2.1950   -2.7250    0.0587 C.3     1  UNL1       -0.0322
     36 N          -4.0657    0.8985    0.6916 N.ar    1  UNL1       -0.1991
     37 H          -7.4024    5.4557   -0.2673 H       1  UNL1        0.0230
     38 H          -8.0675    4.5359   -1.6785 H       1  UNL1        0.0230
     39 H          -7.4065    6.1914   -1.8983 H       1  UNL1        0.0230
     40 H          -6.0094    3.6933   -2.1684 H       1  UNL1        0.0263
     41 H          -5.3070    5.3493   -2.2570 H       1  UNL1        0.0263
     42 H          -5.1843    5.5188    0.1693 H       1  UNL1        0.0280
     43 H          -4.1189    4.2092   -0.4722 H       1  UNL1        0.0280
     44 H          -6.8098    4.0057    1.0295 H       1  UNL1        0.0462
     45 H          -5.1675    3.4877    1.5256 H       1  UNL1        0.0462
     46 H          -6.9628    1.7884    0.0267 H       1  UNL1        0.1489
     47 H          -3.0296    0.8101   -2.9085 H       1  UNL1        0.0838
     48 H          -0.1344    0.0506    0.4558 H       1  UNL1        0.0673
     49 H           2.1867   -0.0467    0.7675 H       1  UNL1        0.1536
     50 H           3.3379   -1.5601   -2.4042 H       1  UNL1        0.0636
     51 H           5.6799   -1.9024   -2.9643 H       1  UNL1        0.0618
     52 H           7.4569   -1.0328   -1.5156 H       1  UNL1        0.0620
     53 H           7.5294    1.7108    2.3627 H       1  UNL1        0.0238
     54 H           6.2275    0.4978    2.7028 H       1  UNL1        0.0238
     55 H           5.9361    1.8892    1.6245 H       1  UNL1        0.0238
     56 H           8.5091   -1.3554    0.4857 H       1  UNL1        0.0238
     57 H           7.2064   -1.5937    1.7077 H       1  UNL1        0.0238
     58 H           8.6513   -0.5158    2.0866 H       1  UNL1        0.0238
     59 H           8.8849    0.5247   -0.6255 H       1  UNL1        0.0238
     60 H           7.6357    1.8710   -0.7506 H       1  UNL1        0.0238
     61 H           8.7809    1.7602    0.6516 H       1  UNL1        0.0238
     62 H           4.4726    0.5691    1.1049 H       1  UNL1        0.0639
     63 H           0.3214   -0.4516   -4.3152 H       1  UNL1        0.1048
     64 H          -2.6152   -0.3708    2.3824 H       1  UNL1        0.1478
     65 H          -0.6569   -1.8887    1.2780 H       1  UNL1        0.0498
     66 H          -1.6045   -2.1583    3.3809 H       1  UNL1        0.0284
     67 H          -3.1345   -2.8116    2.6629 H       1  UNL1        0.0284
     68 H          -1.5048   -4.6341    3.3554 H       1  UNL1        0.0291
     69 H          -0.2281   -3.8020    2.3100 H       1  UNL1        0.0291
     70 H          -2.2604   -5.8133    1.5815 H       1  UNL1        0.0593
     71 H          -0.0367   -5.6850    0.8113 H       1  UNL1        0.2098
     72 H          -3.7298   -3.8449    1.0248 H       1  UNL1        0.0291
     73 H          -2.9991   -4.6274   -0.4711 H       1  UNL1        0.0291
     74 H          -3.0050   -2.1749   -0.5020 H       1  UNL1        0.0284
     75 H          -1.3204   -2.9104   -0.6102 H       1  UNL1        0.0284
@<TRIPOS>BOND
     1     1     2    1
     2     2     3    1
     3     3     4    1
     4     4     5    1
     5     5     6    1
     6     6     7   ar
     7     7     8   ar
     8     8     9   ar
     9     9    10    1
    10    10    11   ar
    11    11    12   ar
    12    12    13    1
    13    13    14    1
    14    14    15   ar
    15    15    16   ar
    16    16    17   ar
    17    17    18   ar
    18    18    19    1
    19    19    20    1
    20    19    21    1
    21    19    22    1
    22    18    23   ar
    23    12    24   ar
    24    24    25   ar
    25    25    26   ar
    26     9    27   ar
    27    27    28    1
    28    28    29    1
    29    29    30    1
    30    30    31    1
    31    31    32    1
    32    32    33    1
    33    32    34    1
    34    34    35    1
    35    27    36   ar
    36    36     6   ar
    37    26    10   ar
    38    35    29    1
    39    23    14   ar
    40     1    37    1
    41     1    38    1
    42     1    39    1
    43     2    40    1
    44     2    41    1
    45     3    42    1
    46     3    43    1
    47     4    44    1
    48     4    45    1
    49     5    46    1
    50     8    47    1
    51    11    48    1
    52    13    49    1
    53    15    50    1
    54    16    51    1
    55    17    52    1
    56    20    53    1
    57    20    54    1
    58    20    55    1
    59    21    56    1
    60    21    57    1
    61    21    58    1
    62    22    59    1
    63    22    60    1
    64    22    61    1
    65    23    62    1
    66    25    63    1
    67    28    64    1
    68    29    65    1
    69    30    66    1
    70    30    67    1
    71    31    68    1
    72    31    69    1
    73    32    70    1
    74    33    71    1
    75    34    72    1
    76    34    73    1
    77    35    74    1
    78    35    75    1
