
     RDKit          3D

 75 78  0  0  0  0  0  0  0  0999 V2000
   -7.2817    5.2302   -1.3372 C   0  0  0  0  0  0  0  0  0  0  0  0
   -5.9036    4.6546   -1.6348 C   0  0  0  0  0  0  0  0  0  0  0  0
   -5.1811    4.5059   -0.3274 C   0  0  0  0  0  0  0  0  0  0  0  0
   -5.8739    3.5896    0.6487 C   0  0  0  0  0  0  0  0  0  0  0  0
   -6.0254    2.2302    0.1423 N   0  0  0  0  0  0  0  0  0  0  0  0
   -4.8420    1.5253   -0.1911 C   0  0  0  0  0  0  0  0  0  0  0  0
   -4.4505    1.4787   -1.4699 N   0  0  0  0  0  0  0  0  0  0  0  0
   -3.3549    0.8606   -1.8857 C   0  0  0  0  0  0  0  0  0  0  0  0
   -2.5224    0.1981   -0.9431 C   0  0  0  0  0  0  0  0  0  0  0  0
   -1.1720   -0.1151   -1.3890 C   0  0  0  0  0  0  0  0  0  0  0  0
   -0.0439   -0.1283   -0.6035 C   0  0  0  0  0  0  0  0  0  0  0  0
    1.2500   -0.2610   -1.1204 C   0  0  0  0  0  0  0  0  0  0  0  0
    2.3614   -0.2460   -0.2670 N   0  0  0  0  0  0  0  0  0  0  0  0
    3.7046   -0.4661   -0.6053 C   0  0  0  0  0  0  0  0  0  0  0  0
    4.0664   -1.1491   -1.7305 C   0  0  0  0  0  0  0  0  0  0  0  0
    5.4040   -1.3611   -2.0721 C   0  0  0  0  0  0  0  0  0  0  0  0
    6.4028   -0.8769   -1.2671 C   0  0  0  0  0  0  0  0  0  0  0  0
    6.0676   -0.1724   -0.1063 C   0  0  0  0  0  0  0  0  0  0  0  0
    7.1795    0.3321    0.7301 C   0  0  0  0  0  0  0  0  0  0  0  0
    6.6845    1.1245    1.9215 C   0  0  0  0  0  0  0  0  0  0  0  0
    7.9570   -0.8598    1.3066 C   0  0  0  0  0  0  0  0  0  0  0  0
    8.1537    1.1626   -0.0474 C   0  0  0  0  0  0  0  0  0  0  0  0
    4.7336    0.0114    0.1892 C   0  0  0  0  0  0  0  0  0  0  0  0
    1.3463   -0.3738   -2.4446 N   0  0  0  0  0  0  0  0  0  0  0  0
    0.2602   -0.3609   -3.2466 C   0  0  0  0  0  0  0  0  0  0  0  0
   -0.9542   -0.2329   -2.7047 N   0  0  0  0  0  0  0  0  0  0  0  0
   -2.9136    0.2274    0.3465 C   0  0  0  0  0  0  0  0  0  0  0  0
   -2.4431   -0.6778    1.3538 N   0  0  0  0  0  0  0  0  0  0  0  0
   -1.7549   -1.9173    1.2500 C   0  0  1  0  0  0  0  0  0  0  0  0
   -2.0436   -2.7431    2.5645 C   0  0  0  0  0  0  0  0  0  0  0  0
   -1.3227   -4.0428    2.4323 C   0  0  0  0  0  0  0  0  0  0  0  0
   -1.7923   -4.8564    1.2481 C   0  0  2  0  0  0  0  0  0  0  0  0
   -0.7600   -5.1646    0.3681 O   0  0  0  0  0  0  0  0  0  0  0  0
   -2.7961   -4.0382    0.4624 C   0  0  0  0  0  0  0  0  0  0  0  0
   -2.1950   -2.7250    0.0587 C   0  0  0  0  0  0  0  0  0  0  0  0
   -4.0657    0.8985    0.6916 N   0  0  0  0  0  0  0  0  0  0  0  0
   -7.4024    5.4557   -0.2673 H   0  0  0  0  0  0  0  0  0  0  0  0
   -8.0675    4.5359   -1.6785 H   0  0  0  0  0  0  0  0  0  0  0  0
   -7.4065    6.1914   -1.8983 H   0  0  0  0  0  0  0  0  0  0  0  0
   -6.0094    3.6933   -2.1684 H   0  0  0  0  0  0  0  0  0  0  0  0
   -5.3070    5.3493   -2.2570 H   0  0  0  0  0  0  0  0  0  0  0  0
   -5.1843    5.5188    0.1693 H   0  0  0  0  0  0  0  0  0  0  0  0
   -4.1189    4.2092   -0.4722 H   0  0  0  0  0  0  0  0  0  0  0  0
   -6.8098    4.0057    1.0295 H   0  0  0  0  0  0  0  0  0  0  0  0
   -5.1675    3.4877    1.5256 H   0  0  0  0  0  0  0  0  0  0  0  0
   -6.9628    1.7884    0.0267 H   0  0  0  0  0  0  0  0  0  0  0  0
   -3.0296    0.8101   -2.9085 H   0  0  0  0  0  0  0  0  0  0  0  0
   -0.1344    0.0506    0.4558 H   0  0  0  0  0  0  0  0  0  0  0  0
    2.1867   -0.0467    0.7675 H   0  0  0  0  0  0  0  0  0  0  0  0
    3.3379   -1.5601   -2.4042 H   0  0  0  0  0  0  0  0  0  0  0  0
    5.6799   -1.9024   -2.9643 H   0  0  0  0  0  0  0  0  0  0  0  0
    7.4569   -1.0328   -1.5156 H   0  0  0  0  0  0  0  0  0  0  0  0
    7.5294    1.7108    2.3627 H   0  0  0  0  0  0  0  0  0  0  0  0
    6.2275    0.4978    2.7028 H   0  0  0  0  0  0  0  0  0  0  0  0
    5.9361    1.8892    1.6245 H   0  0  0  0  0  0  0  0  0  0  0  0
    8.5091   -1.3554    0.4857 H   0  0  0  0  0  0  0  0  0  0  0  0
    7.2064   -1.5937    1.7077 H   0  0  0  0  0  0  0  0  0  0  0  0
    8.6513   -0.5158    2.0866 H   0  0  0  0  0  0  0  0  0  0  0  0
    8.8849    0.5247   -0.6255 H   0  0  0  0  0  0  0  0  0  0  0  0
    7.6357    1.8710   -0.7506 H   0  0  0  0  0  0  0  0  0  0  0  0
    8.7809    1.7602    0.6516 H   0  0  0  0  0  0  0  0  0  0  0  0
    4.4726    0.5691    1.1049 H   0  0  0  0  0  0  0  0  0  0  0  0
    0.3214   -0.4516   -4.3152 H   0  0  0  0  0  0  0  0  0  0  0  0
   -2.6152   -0.3708    2.3824 H   0  0  0  0  0  0  0  0  0  0  0  0
   -0.6569   -1.8887    1.2780 H   0  0  0  0  0  0  0  0  0  0  0  0
   -1.6045   -2.1583    3.3809 H   0  0  0  0  0  0  0  0  0  0  0  0
   -3.1345   -2.8116    2.6629 H   0  0  0  0  0  0  0  0  0  0  0  0
   -1.5048   -4.6341    3.3554 H   0  0  0  0  0  0  0  0  0  0  0  0
   -0.2281   -3.8020    2.3100 H   0  0  0  0  0  0  0  0  0  0  0  0
   -2.2604   -5.8133    1.5815 H   0  0  0  0  0  0  0  0  0  0  0  0
   -0.0367   -5.6850    0.8113 H   0  0  0  0  0  0  0  0  0  0  0  0
   -3.7298   -3.8449    1.0248 H   0  0  0  0  0  0  0  0  0  0  0  0
   -2.9991   -4.6274   -0.4711 H   0  0  0  0  0  0  0  0  0  0  0  0
   -3.0050   -2.1749   -0.5020 H   0  0  0  0  0  0  0  0  0  0  0  0
   -1.3204   -2.9104   -0.6102 H   0  0  0  0  0  0  0  0  0  0  0  0
  1  2  1  0
  2  3  1  0
  3  4  1  0
  4  5  1  0
  5  6  1  0
  6  7  2  0
  7  8  1  0
  8  9  2  0
  9 10  1  0
 10 11  2  0
 11 12  1  0
 12 13  1  0
 13 14  1  0
 14 15  2  0
 15 16  1  0
 16 17  2  0
 17 18  1  0
 18 19  1  0
 19 20  1  0
 19 21  1  0
 19 22  1  0
 18 23  2  0
 12 24  2  0
 24 25  1  0
 25 26  2  0
  9 27  1  0
 27 28  1  0
 28 29  1  0
 29 30  1  0
 30 31  1  0
 31 32  1  0
 32 33  1  0
 32 34  1  0
 34 35  1  0
 27 36  2  0
 36  6  1  0
 26 10  1  0
 35 29  1  0
 23 14  1  0
  1 37  1  0
  1 38  1  0
  1 39  1  0
  2 40  1  0
  2 41  1  0
  3 42  1  0
  3 43  1  0
  4 44  1  0
  4 45  1  0
  5 46  1  0
  8 47  1  0
 11 48  1  0
 13 49  1  0
 15 50  1  0
 16 51  1  0
 17 52  1  0
 20 53  1  0
 20 54  1  0
 20 55  1  0
 21 56  1  0
 21 57  1  0
 21 58  1  0
 22 59  1  0
 22 60  1  0
 22 61  1  0
 23 62  1  0
 25 63  1  0
 28 64  1  0
 29 65  1  6
 30 66  1  0
 30 67  1  0
 31 68  1  0
 31 69  1  0
 32 70  1  1
 33 71  1  0
 34 72  1  0
 34 73  1  0
 35 74  1  0
 35 75  1  0
M  END
$$$$
