@<TRIPOS>MOLECULE
*****
 47 48 0 0 0
SMALL
GASTEIGER

@<TRIPOS>ATOM
      1 C           6.4601   -2.0114    1.9099 C.3     1  UNL1        0.0790
      2 O           6.6636   -1.7700    0.5537 O.3     1  UNL1       -0.4914
      3 C           5.8723   -0.9541   -0.2390 C.ar    1  UNL1        0.1618
      4 C           4.7872   -0.2930    0.2614 C.ar    1  UNL1       -0.0092
      5 C           3.9505    0.5523   -0.5169 C.ar    1  UNL1       -0.0212
      6 C           2.8985    1.2618    0.1572 C.2     1  UNL1       -0.0512
      7 C           1.7961    1.7898   -0.1614 C.2     1  UNL1       -0.0182
      8 C           1.0991    1.8898   -1.4003 C.2     1  UNL1        0.1635
      9 O           1.4268    1.4180   -2.4995 O.2     1  UNL1       -0.2922
     10 C          -0.2099    2.6669   -1.3874 C.3     1  UNL1        0.0724
     11 C          -1.2714    1.6598   -0.9181 C.2     1  UNL1        0.1635
     12 O          -0.8156    0.5355   -0.6810 O.2     1  UNL1       -0.2922
     13 C          -2.6264    2.0716   -0.7959 C.2     1  UNL1       -0.0182
     14 C          -3.7105    1.5104   -0.4699 C.2     1  UNL1       -0.0512
     15 C          -4.0364    0.1699   -0.0830 C.ar    1  UNL1       -0.0212
     16 C          -3.3373   -0.9704   -0.3357 C.ar    1  UNL1       -0.0509
     17 C          -3.7073   -2.2154    0.1881 C.ar    1  UNL1       -0.0160
     18 C          -4.8161   -2.3300    0.9915 C.ar    1  UNL1        0.1585
     19 O          -5.1769   -3.5529    1.5047 O.3     1  UNL1       -0.5033
     20 C          -5.5508   -1.2068    1.2692 C.ar    1  UNL1        0.1618
     21 O          -6.6618   -1.3385    2.0766 O.3     1  UNL1       -0.4914
     22 C          -7.5246   -0.2924    2.4619 C.3     1  UNL1        0.0790
     23 C          -5.1768   -0.0038    0.7528 C.ar    1  UNL1       -0.0092
     24 C           4.2447    0.7165   -1.8329 C.ar    1  UNL1       -0.0509
     25 C           5.3592    0.0382   -2.3552 C.ar    1  UNL1       -0.0160
     26 C           6.1496   -0.7741   -1.5774 C.ar    1  UNL1        0.1585
     27 O           7.2475   -1.4433   -2.0884 O.3     1  UNL1       -0.5033
     28 H           6.0527   -1.1741    2.4822 H       1  UNL1        0.0660
     29 H           5.7061   -2.8483    1.9798 H       1  UNL1        0.0660
     30 H           7.4060   -2.4365    2.3298 H       1  UNL1        0.0660
     31 H           4.5542   -0.4244    1.3052 H       1  UNL1        0.0661
     32 H           3.1095    1.4044    1.2978 H       1  UNL1        0.0625
     33 H           1.2261    2.2960    0.7239 H       1  UNL1        0.0653
     34 H          -0.4486    2.9892   -2.4088 H       1  UNL1        0.0426
     35 H          -0.1031    3.4572   -0.6431 H       1  UNL1        0.0426
     36 H          -2.7577    3.1961   -1.0615 H       1  UNL1        0.0653
     37 H          -4.6399    2.2237   -0.5095 H       1  UNL1        0.0625
     38 H          -2.4946   -0.9990   -1.0012 H       1  UNL1        0.0625
     39 H          -3.1308   -3.0904   -0.0313 H       1  UNL1        0.0655
     40 H          -5.5726   -4.2993    0.9682 H       1  UNL1        0.2923
     41 H          -7.9184   -0.5588    3.4878 H       1  UNL1        0.0660
     42 H          -8.4028   -0.2565    1.7531 H       1  UNL1        0.0660
     43 H          -7.0703    0.6986    2.5001 H       1  UNL1        0.0660
     44 H          -5.7552    0.8736    0.9749 H       1  UNL1        0.0661
     45 H           3.7229    1.3695   -2.5120 H       1  UNL1        0.0625
     46 H           5.5755    0.1786   -3.3984 H       1  UNL1        0.0655
     47 H           7.6076   -1.3231   -3.0220 H       1  UNL1        0.2923
@<TRIPOS>BOND
     1     1     2    1
     2     2     3    1
     3     3     4   ar
     4     4     5   ar
     5     5     6    1
     6     6     7    2
     7     7     8    1
     8     8     9    2
     9     8    10    1
    10    10    11    1
    11    11    12    2
    12    11    13    1
    13    13    14    2
    14    14    15    1
    15    15    16   ar
    16    16    17   ar
    17    17    18   ar
    18    18    19    1
    19    18    20   ar
    20    20    21    1
    21    21    22    1
    22    20    23   ar
    23     5    24   ar
    24    24    25   ar
    25    25    26   ar
    26    26    27    1
    27    26     3   ar
    28    23    15   ar
    29     1    28    1
    30     1    29    1
    31     1    30    1
    32     4    31    1
    33     6    32    1
    34     7    33    1
    35    10    34    1
    36    10    35    1
    37    13    36    1
    38    14    37    1
    39    16    38    1
    40    17    39    1
    41    19    40    1
    42    22    41    1
    43    22    42    1
    44    22    43    1
    45    23    44    1
    46    24    45    1
    47    25    46    1
    48    27    47    1
