
     RDKit          3D

 47 48  0  0  0  0  0  0  0  0999 V2000
    6.4601   -2.0114    1.9099 C   0  0  0  0  0  0  0  0  0  0  0  0
    6.6636   -1.7700    0.5537 O   0  0  0  0  0  0  0  0  0  0  0  0
    5.8723   -0.9541   -0.2390 C   0  0  0  0  0  0  0  0  0  0  0  0
    4.7872   -0.2930    0.2614 C   0  0  0  0  0  0  0  0  0  0  0  0
    3.9505    0.5523   -0.5169 C   0  0  0  0  0  0  0  0  0  0  0  0
    2.8985    1.2618    0.1572 C   0  0  0  0  0  0  0  0  0  0  0  0
    1.7961    1.7898   -0.1614 C   0  0  0  0  0  0  0  0  0  0  0  0
    1.0991    1.8898   -1.4003 C   0  0  0  0  0  0  0  0  0  0  0  0
    1.4268    1.4180   -2.4995 O   0  0  0  0  0  0  0  0  0  0  0  0
   -0.2099    2.6669   -1.3874 C   0  0  0  0  0  0  0  0  0  0  0  0
   -1.2714    1.6598   -0.9181 C   0  0  0  0  0  0  0  0  0  0  0  0
   -0.8156    0.5355   -0.6810 O   0  0  0  0  0  0  0  0  0  0  0  0
   -2.6264    2.0716   -0.7959 C   0  0  0  0  0  0  0  0  0  0  0  0
   -3.7105    1.5104   -0.4699 C   0  0  0  0  0  0  0  0  0  0  0  0
   -4.0364    0.1699   -0.0830 C   0  0  0  0  0  0  0  0  0  0  0  0
   -3.3373   -0.9704   -0.3357 C   0  0  0  0  0  0  0  0  0  0  0  0
   -3.7073   -2.2154    0.1881 C   0  0  0  0  0  0  0  0  0  0  0  0
   -4.8161   -2.3300    0.9915 C   0  0  0  0  0  0  0  0  0  0  0  0
   -5.1769   -3.5529    1.5047 O   0  0  0  0  0  0  0  0  0  0  0  0
   -5.5508   -1.2068    1.2692 C   0  0  0  0  0  0  0  0  0  0  0  0
   -6.6618   -1.3385    2.0766 O   0  0  0  0  0  0  0  0  0  0  0  0
   -7.5246   -0.2924    2.4619 C   0  0  0  0  0  0  0  0  0  0  0  0
   -5.1768   -0.0038    0.7528 C   0  0  0  0  0  0  0  0  0  0  0  0
    4.2447    0.7165   -1.8329 C   0  0  0  0  0  0  0  0  0  0  0  0
    5.3592    0.0382   -2.3552 C   0  0  0  0  0  0  0  0  0  0  0  0
    6.1496   -0.7741   -1.5774 C   0  0  0  0  0  0  0  0  0  0  0  0
    7.2475   -1.4433   -2.0884 O   0  0  0  0  0  0  0  0  0  0  0  0
    6.0527   -1.1741    2.4822 H   0  0  0  0  0  0  0  0  0  0  0  0
    5.7061   -2.8483    1.9798 H   0  0  0  0  0  0  0  0  0  0  0  0
    7.4060   -2.4365    2.3298 H   0  0  0  0  0  0  0  0  0  0  0  0
    4.5542   -0.4244    1.3052 H   0  0  0  0  0  0  0  0  0  0  0  0
    3.1095    1.4044    1.2978 H   0  0  0  0  0  0  0  0  0  0  0  0
    1.2261    2.2960    0.7239 H   0  0  0  0  0  0  0  0  0  0  0  0
   -0.4486    2.9892   -2.4088 H   0  0  0  0  0  0  0  0  0  0  0  0
   -0.1031    3.4572   -0.6431 H   0  0  0  0  0  0  0  0  0  0  0  0
   -2.7577    3.1961   -1.0615 H   0  0  0  0  0  0  0  0  0  0  0  0
   -4.6399    2.2237   -0.5095 H   0  0  0  0  0  0  0  0  0  0  0  0
   -2.4946   -0.9990   -1.0012 H   0  0  0  0  0  0  0  0  0  0  0  0
   -3.1308   -3.0904   -0.0313 H   0  0  0  0  0  0  0  0  0  0  0  0
   -5.5726   -4.2993    0.9682 H   0  0  0  0  0  0  0  0  0  0  0  0
   -7.9184   -0.5588    3.4878 H   0  0  0  0  0  0  0  0  0  0  0  0
   -8.4028   -0.2565    1.7531 H   0  0  0  0  0  0  0  0  0  0  0  0
   -7.0703    0.6986    2.5001 H   0  0  0  0  0  0  0  0  0  0  0  0
   -5.7552    0.8736    0.9749 H   0  0  0  0  0  0  0  0  0  0  0  0
    3.7229    1.3695   -2.5120 H   0  0  0  0  0  0  0  0  0  0  0  0
    5.5755    0.1786   -3.3984 H   0  0  0  0  0  0  0  0  0  0  0  0
    7.6076   -1.3231   -3.0220 H   0  0  0  0  0  0  0  0  0  0  0  0
  1  2  1  0
  2  3  1  0
  3  4  2  0
  4  5  1  0
  5  6  1  0
  6  7  2  3
  7  8  1  0
  8  9  2  0
  8 10  1  0
 10 11  1  0
 11 12  2  0
 11 13  1  0
 13 14  2  3
 14 15  1  0
 15 16  2  0
 16 17  1  0
 17 18  2  0
 18 19  1  0
 18 20  1  0
 20 21  1  0
 21 22  1  0
 20 23  2  0
  5 24  2  0
 24 25  1  0
 25 26  2  0
 26 27  1  0
 26  3  1  0
 23 15  1  0
  1 28  1  0
  1 29  1  0
  1 30  1  0
  4 31  1  0
  6 32  1  0
  7 33  1  0
 10 34  1  0
 10 35  1  0
 13 36  1  0
 14 37  1  0
 16 38  1  0
 17 39  1  0
 19 40  1  0
 22 41  1  0
 22 42  1  0
 22 43  1  0
 23 44  1  0
 24 45  1  0
 25 46  1  0
 27 47  1  0
M  END
$$$$
