@<TRIPOS>MOLECULE
*****
 50 53 0 0 0
SMALL
GASTEIGER

@<TRIPOS>ATOM
      1 C           8.0884    1.6041   -2.2456 C.3     1  UNL1       -0.0334
      2 C           7.1013    0.7385   -1.5458 C.ar    1  UNL1       -0.0125
      3 C           6.5165   -0.4487   -1.8973 C.ar    1  UNL1       -0.0511
      4 C           5.6429   -1.0055   -1.0409 C.ar    1  UNL1       -0.0422
      5 C           5.3699   -0.3973    0.1149 C.ar    1  UNL1        0.0741
      6 C           4.4870   -0.7478    1.2213 C.2     1  UNL1        0.2508
      7 O           4.4399    0.0424    2.1982 O.2     1  UNL1       -0.2696
      8 N           3.7047   -1.9279    1.2153 N.am    1  UNL1       -0.3073
      9 C           2.8237   -2.2982    2.2919 C.3     1  UNL1        0.0506
     10 C           1.7637   -1.2449    2.4859 C.3     1  UNL1        0.1361
     11 C           0.8441   -1.2666    1.2793 C.3     1  UNL1        0.0616
     12 N          -0.4473   -0.9622    1.8408 N.am    1  UNL1       -0.2337
     13 C          -1.5974   -0.4458    1.1543 C.ar    1  UNL1        0.0397
     14 C          -1.8362    0.9037    1.0291 C.ar    1  UNL1       -0.0384
     15 C          -2.9588    1.4120    0.3598 C.ar    1  UNL1       -0.0385
     16 C          -3.8599    0.5688   -0.1945 C.ar    1  UNL1        0.0365
     17 N          -5.0162    0.9897   -0.8702 N.am    1  UNL1       -0.2673
     18 C          -5.9166    0.0194   -1.5125 C.3     1  UNL1        0.0433
     19 C          -6.8295    0.7678   -2.4845 C.3     1  UNL1        0.0644
     20 O          -6.1369    1.8080   -3.1048 O.3     1  UNL1       -0.3690
     21 C          -5.9351    2.8728   -2.2313 C.3     1  UNL1        0.1242
     22 C          -5.3813    2.3553   -0.9746 C.2     1  UNL1        0.2456
     23 O          -5.2305    3.1428    0.0267 O.2     1  UNL1       -0.2727
     24 C          -3.6353   -0.8113   -0.0785 C.ar    1  UNL1       -0.0385
     25 C          -2.5293   -1.2828    0.5811 C.ar    1  UNL1       -0.0384
     26 C          -0.3663   -1.2767    3.2285 C.2     1  UNL1        0.4076
     27 O          -1.3521   -1.2015    4.0058 O.2     1  UNL1       -0.2259
     28 O           0.9221   -1.6610    3.5584 O.3     1  UNL1       -0.4436
     29 S           6.3885    1.0753    0.0511 S.2     1  UNL1       -0.0889
     30 H           8.3067    1.1183   -3.1948 H       1  UNL1        0.0283
     31 H           9.0474    1.6892   -1.6903 H       1  UNL1        0.0283
     32 H           7.6343    2.6251   -2.3632 H       1  UNL1        0.0283
     33 H           6.8018   -0.8928   -2.8881 H       1  UNL1        0.0626
     34 H           5.1372   -1.9802   -1.2869 H       1  UNL1        0.0630
     35 H           3.8125   -2.5337    0.3481 H       1  UNL1        0.1492
     36 H           2.3721   -3.2793    2.0518 H       1  UNL1        0.0499
     37 H           3.4292   -2.4469    3.2216 H       1  UNL1        0.0499
     38 H           2.1954   -0.2592    2.6667 H       1  UNL1        0.0766
     39 H           0.9003   -2.2627    0.8282 H       1  UNL1        0.0507
     40 H           1.1474   -0.4523    0.5729 H       1  UNL1        0.0507
     41 H          -1.1361    1.6079    1.4606 H       1  UNL1        0.0637
     42 H          -3.0830    2.4953    0.2928 H       1  UNL1        0.0637
     43 H          -6.5619   -0.4453   -0.7409 H       1  UNL1        0.0491
     44 H          -5.3749   -0.7232   -2.1016 H       1  UNL1        0.0491
     45 H          -7.1926    0.0980   -3.2938 H       1  UNL1        0.0576
     46 H          -7.7404    1.1530   -1.9687 H       1  UNL1        0.0576
     47 H          -5.1950    3.5671   -2.6855 H       1  UNL1        0.0657
     48 H          -6.8793    3.4625   -2.0861 H       1  UNL1        0.0657
     49 H          -4.3519   -1.5062   -0.5199 H       1  UNL1        0.0637
     50 H          -2.3335   -2.3571    0.6842 H       1  UNL1        0.0637
@<TRIPOS>BOND
     1     1     2    1
     2     2     3   ar
     3     3     4   ar
     4     4     5   ar
     5     5     6    1
     6     6     7    2
     7     6     8   am
     8     8     9    1
     9     9    10    1
    10    10    11    1
    11    11    12    1
    12    12    13    1
    13    13    14   ar
    14    14    15   ar
    15    15    16   ar
    16    16    17    1
    17    17    18    1
    18    18    19    1
    19    19    20    1
    20    20    21    1
    21    21    22    1
    22    22    23    2
    23    16    24   ar
    24    24    25   ar
    25    12    26   am
    26    26    27    2
    27    26    28    1
    28     5    29   ar
    29    29     2   ar
    30    28    10    1
    31    25    13   ar
    32    22    17   am
    33     1    30    1
    34     1    31    1
    35     1    32    1
    36     3    33    1
    37     4    34    1
    38     8    35    1
    39     9    36    1
    40     9    37    1
    41    10    38    1
    42    11    39    1
    43    11    40    1
    44    14    41    1
    45    15    42    1
    46    18    43    1
    47    18    44    1
    48    19    45    1
    49    19    46    1
    50    21    47    1
    51    21    48    1
    52    24    49    1
    53    25    50    1
