
     RDKit          3D

 50 53  0  0  0  0  0  0  0  0999 V2000
    8.0884    1.6041   -2.2456 C   0  0  0  0  0  0  0  0  0  0  0  0
    7.1013    0.7385   -1.5458 C   0  0  0  0  0  0  0  0  0  0  0  0
    6.5165   -0.4487   -1.8973 C   0  0  0  0  0  0  0  0  0  0  0  0
    5.6429   -1.0055   -1.0409 C   0  0  0  0  0  0  0  0  0  0  0  0
    5.3699   -0.3973    0.1149 C   0  0  0  0  0  0  0  0  0  0  0  0
    4.4870   -0.7478    1.2213 C   0  0  0  0  0  0  0  0  0  0  0  0
    4.4399    0.0424    2.1982 O   0  0  0  0  0  0  0  0  0  0  0  0
    3.7047   -1.9279    1.2153 N   0  0  0  0  0  0  0  0  0  0  0  0
    2.8237   -2.2982    2.2919 C   0  0  0  0  0  0  0  0  0  0  0  0
    1.7637   -1.2449    2.4859 C   0  0  1  0  0  0  0  0  0  0  0  0
    0.8441   -1.2666    1.2793 C   0  0  0  0  0  0  0  0  0  0  0  0
   -0.4473   -0.9622    1.8408 N   0  0  0  0  0  0  0  0  0  0  0  0
   -1.5974   -0.4458    1.1543 C   0  0  0  0  0  0  0  0  0  0  0  0
   -1.8362    0.9037    1.0291 C   0  0  0  0  0  0  0  0  0  0  0  0
   -2.9588    1.4120    0.3598 C   0  0  0  0  0  0  0  0  0  0  0  0
   -3.8599    0.5688   -0.1945 C   0  0  0  0  0  0  0  0  0  0  0  0
   -5.0162    0.9897   -0.8702 N   0  0  0  0  0  0  0  0  0  0  0  0
   -5.9166    0.0194   -1.5125 C   0  0  0  0  0  0  0  0  0  0  0  0
   -6.8295    0.7678   -2.4845 C   0  0  0  0  0  0  0  0  0  0  0  0
   -6.1369    1.8080   -3.1048 O   0  0  0  0  0  0  0  0  0  0  0  0
   -5.9351    2.8728   -2.2313 C   0  0  0  0  0  0  0  0  0  0  0  0
   -5.3813    2.3553   -0.9746 C   0  0  0  0  0  0  0  0  0  0  0  0
   -5.2305    3.1428    0.0267 O   0  0  0  0  0  0  0  0  0  0  0  0
   -3.6353   -0.8113   -0.0785 C   0  0  0  0  0  0  0  0  0  0  0  0
   -2.5293   -1.2828    0.5811 C   0  0  0  0  0  0  0  0  0  0  0  0
   -0.3663   -1.2767    3.2285 C   0  0  0  0  0  0  0  0  0  0  0  0
   -1.3521   -1.2015    4.0058 O   0  0  0  0  0  0  0  0  0  0  0  0
    0.9221   -1.6610    3.5584 O   0  0  0  0  0  0  0  0  0  0  0  0
    6.3885    1.0753    0.0511 S   0  0  0  0  0  0  0  0  0  0  0  0
    8.3067    1.1183   -3.1948 H   0  0  0  0  0  0  0  0  0  0  0  0
    9.0474    1.6892   -1.6903 H   0  0  0  0  0  0  0  0  0  0  0  0
    7.6343    2.6251   -2.3632 H   0  0  0  0  0  0  0  0  0  0  0  0
    6.8018   -0.8928   -2.8881 H   0  0  0  0  0  0  0  0  0  0  0  0
    5.1372   -1.9802   -1.2869 H   0  0  0  0  0  0  0  0  0  0  0  0
    3.8125   -2.5337    0.3481 H   0  0  0  0  0  0  0  0  0  0  0  0
    2.3721   -3.2793    2.0518 H   0  0  0  0  0  0  0  0  0  0  0  0
    3.4292   -2.4469    3.2216 H   0  0  0  0  0  0  0  0  0  0  0  0
    2.1954   -0.2592    2.6667 H   0  0  0  0  0  0  0  0  0  0  0  0
    0.9003   -2.2627    0.8282 H   0  0  0  0  0  0  0  0  0  0  0  0
    1.1474   -0.4523    0.5729 H   0  0  0  0  0  0  0  0  0  0  0  0
   -1.1361    1.6079    1.4606 H   0  0  0  0  0  0  0  0  0  0  0  0
   -3.0830    2.4953    0.2928 H   0  0  0  0  0  0  0  0  0  0  0  0
   -6.5619   -0.4453   -0.7409 H   0  0  0  0  0  0  0  0  0  0  0  0
   -5.3749   -0.7232   -2.1016 H   0  0  0  0  0  0  0  0  0  0  0  0
   -7.1926    0.0980   -3.2938 H   0  0  0  0  0  0  0  0  0  0  0  0
   -7.7404    1.1530   -1.9687 H   0  0  0  0  0  0  0  0  0  0  0  0
   -5.1950    3.5671   -2.6855 H   0  0  0  0  0  0  0  0  0  0  0  0
   -6.8793    3.4625   -2.0861 H   0  0  0  0  0  0  0  0  0  0  0  0
   -4.3519   -1.5062   -0.5199 H   0  0  0  0  0  0  0  0  0  0  0  0
   -2.3335   -2.3571    0.6842 H   0  0  0  0  0  0  0  0  0  0  0  0
  1  2  1  0
  2  3  2  0
  3  4  1  0
  4  5  2  0
  5  6  1  0
  6  7  2  0
  6  8  1  0
  8  9  1  0
  9 10  1  0
 10 11  1  0
 11 12  1  0
 12 13  1  0
 13 14  2  0
 14 15  1  0
 15 16  2  0
 16 17  1  0
 17 18  1  0
 18 19  1  0
 19 20  1  0
 20 21  1  0
 21 22  1  0
 22 23  2  0
 16 24  1  0
 24 25  2  0
 12 26  1  0
 26 27  2  0
 26 28  1  0
  5 29  1  0
 29  2  1  0
 28 10  1  0
 25 13  1  0
 22 17  1  0
  1 30  1  0
  1 31  1  0
  1 32  1  0
  3 33  1  0
  4 34  1  0
  8 35  1  0
  9 36  1  0
  9 37  1  0
 10 38  1  1
 11 39  1  0
 11 40  1  0
 14 41  1  0
 15 42  1  0
 18 43  1  0
 18 44  1  0
 19 45  1  0
 19 46  1  0
 21 47  1  0
 21 48  1  0
 24 49  1  0
 25 50  1  0
M  END
$$$$
