
     RDKit          3D

 33 33  0  0  0  0  0  0  0  0999 V2000
   -5.8120    0.2210   -0.0064 C   0  0  0  0  0  0  0  0  0  0  0  0
   -5.2164    0.6842    1.2763 C   0  0  0  0  0  0  0  0  0  0  0  0
   -3.9185    0.4526    1.4382 C   0  0  0  0  0  0  0  0  0  0  0  0
   -3.0090   -0.2298    0.4478 C   0  0  0  0  0  0  0  0  0  0  0  0
   -1.9373    0.7340    0.0885 C   0  0  0  0  0  0  0  0  0  0  0  0
   -0.6177    0.6713    0.2176 C   0  0  0  0  0  0  0  0  0  0  0  0
    0.1159   -0.4802    0.8002 C   0  0  0  0  0  0  0  0  0  0  0  0
    1.0647   -1.0540   -0.2072 C   0  0  0  0  0  0  0  0  0  0  0  0
    2.0975   -0.0936   -0.6830 C   0  0  0  0  0  0  0  0  0  0  0  0
    2.2004    1.0476   -0.3087 O   0  0  0  0  0  0  0  0  0  0  0  0
    3.0761   -0.5490   -1.6843 C   0  0  1  0  0  0  0  0  0  0  0  0
    3.7032    0.3287   -2.5523 O   0  0  0  0  0  0  0  0  0  0  0  0
    4.4764   -0.0439   -1.4464 C   0  0  1  0  0  0  0  0  0  0  0  0
    4.6651    1.1136   -0.5030 C   0  0  0  0  0  0  0  0  0  0  0  0
    5.9240    1.1361    0.2040 N   0  0  0  0  0  0  0  0  0  0  0  0
    4.5222    2.1782    0.1909 O   0  0  0  0  0  0  0  0  0  0  0  0
   -5.5599   -0.8612   -0.1124 H   0  0  0  0  0  0  0  0  0  0  0  0
   -6.9068    0.3732    0.0961 H   0  0  0  0  0  0  0  0  0  0  0  0
   -5.3938    0.8305   -0.8319 H   0  0  0  0  0  0  0  0  0  0  0  0
   -5.6468    1.1900    2.1333 H   0  0  0  0  0  0  0  0  0  0  0  0
   -3.2890    0.6992    2.2781 H   0  0  0  0  0  0  0  0  0  0  0  0
   -3.5834   -0.5089   -0.4712 H   0  0  0  0  0  0  0  0  0  0  0  0
   -2.5846   -1.1484    0.9116 H   0  0  0  0  0  0  0  0  0  0  0  0
   -2.4383    1.5799   -0.3347 H   0  0  0  0  0  0  0  0  0  0  0  0
   -0.0658    1.5244   -0.1298 H   0  0  0  0  0  0  0  0  0  0  0  0
   -0.5714   -1.3106    1.0817 H   0  0  0  0  0  0  0  0  0  0  0  0
    0.6886   -0.1385    1.7092 H   0  0  0  0  0  0  0  0  0  0  0  0
    1.5155   -1.9571    0.2516 H   0  0  0  0  0  0  0  0  0  0  0  0
    0.4425   -1.4466   -1.0643 H   0  0  0  0  0  0  0  0  0  0  0  0
    2.9948   -1.5948   -2.0458 H   0  0  0  0  0  0  0  0  0  0  0  0
    5.2832   -0.7928   -1.5506 H   0  0  0  0  0  0  0  0  0  0  0  0
    6.8240    1.1571    0.7302 H   0  0  0  0  0  0  0  0  0  0  0  0
    6.9565    0.9857    0.0768 H   0  0  0  0  0  0  0  0  0  0  0  0
  1  2  1  0
  2  3  2  3
  3  4  1  0
  4  5  1  0
  5  6  2  3
  6  7  1  0
  7  8  1  0
  8  9  1  0
  9 10  2  0
  9 11  1  0
 11 12  1  0
 12 13  1  0
 13 14  1  0
 14 15  1  0
 14 16  2  0
 13 11  1  0
  1 17  1  0
  1 18  1  0
  1 19  1  0
  2 20  1  0
  3 21  1  0
  4 22  1  0
  4 23  1  0
  5 24  1  0
  6 25  1  0
  7 26  1  0
  7 27  1  0
  8 28  1  0
  8 29  1  0
 11 30  1  6
 13 31  1  6
 15 32  1  0
 15 33  1  0
M  END
$$$$
