@<TRIPOS>MOLECULE
*****
 33 33 0 0 0
SMALL
GASTEIGER

@<TRIPOS>ATOM
      1 C          -5.8120    0.2210   -0.0064 C.3     1  UNL1       -0.0468
      2 C          -5.2164    0.6842    1.2763 C.2     1  UNL1       -0.0907
      3 C          -3.9185    0.4526    1.4382 C.2     1  UNL1       -0.0845
      4 C          -3.0090   -0.2298    0.4478 C.3     1  UNL1       -0.0166
      5 C          -1.9373    0.7340    0.0885 C.2     1  UNL1       -0.0842
      6 C          -0.6177    0.6713    0.2176 C.2     1  UNL1       -0.0872
      7 C           0.1159   -0.4802    0.8002 C.3     1  UNL1       -0.0280
      8 C           1.0647   -1.0540   -0.2072 C.3     1  UNL1        0.0120
      9 C           2.0975   -0.0936   -0.6830 C.2     1  UNL1        0.1652
     10 O           2.2004    1.0476   -0.3087 O.2     1  UNL1       -0.2945
     11 C           3.0761   -0.5490   -1.6843 C.3     1  UNL1        0.1519
     12 O           3.7032    0.3287   -2.5523 O.3     1  UNL1       -0.3505
     13 C           4.4764   -0.0439   -1.4464 C.3     1  UNL1        0.1678
     14 C           4.6651    1.1136   -0.5030 C.2     1  UNL1        0.2424
     15 N           5.9240    1.1361    0.2040 N.am    1  UNL1       -0.3271
     16 O           4.5222    2.1782    0.1909 O.2     1  UNL1       -0.2731
     17 H          -5.5599   -0.8612   -0.1124 H       1  UNL1        0.0272
     18 H          -6.9068    0.3732    0.0961 H       1  UNL1        0.0272
     19 H          -5.3938    0.8305   -0.8319 H       1  UNL1        0.0272
     20 H          -5.6468    1.1900    2.1333 H       1  UNL1        0.0566
     21 H          -3.2890    0.6992    2.2781 H       1  UNL1        0.0572
     22 H          -3.5834   -0.5089   -0.4712 H       1  UNL1        0.0350
     23 H          -2.5846   -1.1484    0.9116 H       1  UNL1        0.0350
     24 H          -2.4383    1.5799   -0.3347 H       1  UNL1        0.0572
     25 H          -0.0658    1.5244   -0.1298 H       1  UNL1        0.0569
     26 H          -0.5714   -1.3106    1.0817 H       1  UNL1        0.0311
     27 H           0.6886   -0.1385    1.7092 H       1  UNL1        0.0311
     28 H           1.5155   -1.9571    0.2516 H       1  UNL1        0.0345
     29 H           0.4425   -1.4466   -1.0643 H       1  UNL1        0.0345
     30 H           2.9948   -1.5948   -2.0458 H       1  UNL1        0.0707
     31 H           5.2832   -0.7928   -1.5506 H       1  UNL1        0.0724
     32 H           6.8240    1.1571    0.7302 H       1  UNL1        0.1450
     33 H           6.9565    0.9857    0.0768 H       1  UNL1        0.1450
@<TRIPOS>BOND
     1     1     2    1
     2     2     3    2
     3     3     4    1
     4     4     5    1
     5     5     6    2
     6     6     7    1
     7     7     8    1
     8     8     9    1
     9     9    10    2
    10     9    11    1
    11    11    12    1
    12    12    13    1
    13    13    14    1
    14    14    15   am
    15    14    16    2
    16    13    11    1
    17     1    17    1
    18     1    18    1
    19     1    19    1
    20     2    20    1
    21     3    21    1
    22     4    22    1
    23     4    23    1
    24     5    24    1
    25     6    25    1
    26     7    26    1
    27     7    27    1
    28     8    28    1
    29     8    29    1
    30    11    30    1
    31    13    31    1
    32    15    32    1
    33    15    33    1
