@<TRIPOS>MOLECULE
*****
 51 54 0 0 0
SMALL
GASTEIGER

@<TRIPOS>ATOM
      1 C          -3.7990   -1.8511   -0.2126 C.3     1  UNL1        0.0731
      2 C          -3.7924   -3.1308   -1.0209 C.3     1  UNL1       -0.0370
      3 O          -4.6828   -0.9279   -0.7658 O.3     1  UNL1       -0.3900
      4 C          -2.4092   -1.1682   -0.2414 C.3     1  UNL1        0.0613
      5 C          -1.3710   -2.0629    0.3225 C.3     1  UNL1       -0.0256
      6 C           0.0343   -1.5746    0.3696 C.3     1  UNL1       -0.0222
      7 C           0.5971   -1.3225   -0.9480 C.ar    1  UNL1       -0.0028
      8 C           0.2197   -1.6237   -2.2297 C.ar    1  UNL1       -0.0550
      9 C           0.8554   -1.3295   -3.4081 C.ar    1  UNL1       -0.0593
     10 C           2.0598   -0.6219   -3.2937 C.ar    1  UNL1       -0.0326
     11 C           2.4981   -0.2886   -2.0404 C.ar    1  UNL1        0.1101
     12 C           1.8150   -0.6105   -0.8561 C.ar    1  UNL1        0.1589
     13 O           2.5446   -0.1282    0.1482 O.2     1  UNL1       -0.4350
     14 C           3.6160    0.4601   -0.3025 C.ar    1  UNL1        0.2284
     15 N           3.6312    0.3871   -1.6697 N.ar    1  UNL1       -0.2089
     16 C           4.6700    1.1063    0.4642 C.ar    1  UNL1        0.0370
     17 C           5.7617    1.7218   -0.1467 C.ar    1  UNL1       -0.0481
     18 C           6.7631    2.3004    0.6130 C.ar    1  UNL1       -0.0427
     19 C           6.7029    2.2800    2.0069 C.ar    1  UNL1        0.0410
     20 CL          8.0192    3.0317    2.9237 Cl      1  UNL1       -0.0835
     21 C           5.6449    1.6839    2.6604 C.ar    1  UNL1       -0.0427
     22 C           4.6803    1.1264    1.8400 C.ar    1  UNL1       -0.0481
     23 N          -2.6180    0.0152    0.6184 N.ar    1  UNL1       -0.3305
     24 C          -2.2840    0.3700    1.8780 C.ar    1  UNL1        0.0971
     25 N          -2.7432    1.5936    2.1632 N.ar    1  UNL1       -0.2311
     26 C          -3.3830    2.0419    1.0787 C.ar    1  UNL1        0.1428
     27 C          -3.3110    1.0690    0.1150 C.ar    1  UNL1        0.0368
     28 C          -4.0450    3.3677    0.9707 C.2     1  UNL1        0.2613
     29 N          -4.7399    3.6426   -0.2592 N.am    1  UNL1       -0.3240
     30 O          -3.9052    4.0850    1.9949 O.2     1  UNL1       -0.2687
     31 H          -4.0809   -2.0205    0.8395 H       1  UNL1        0.0611
     32 H          -3.2286   -2.9622   -1.9599 H       1  UNL1        0.0255
     33 H          -3.3567   -3.9611   -0.3973 H       1  UNL1        0.0255
     34 H          -4.8449   -3.3391   -1.2815 H       1  UNL1        0.0255
     35 H          -5.4444   -1.4318   -1.1636 H       1  UNL1        0.2099
     36 H          -2.2415   -0.8581   -1.2681 H       1  UNL1        0.0553
     37 H          -1.7283   -2.3860    1.3496 H       1  UNL1        0.0289
     38 H          -1.4243   -3.0433   -0.2528 H       1  UNL1        0.0289
     39 H           0.1362   -0.6808    1.0527 H       1  UNL1        0.0315
     40 H           0.6431   -2.3740    0.8784 H       1  UNL1        0.0315
     41 H          -0.6990   -2.1910   -2.2827 H       1  UNL1        0.0621
     42 H           0.4113   -1.6457   -4.3396 H       1  UNL1        0.0618
     43 H           2.5908   -0.3713   -4.1958 H       1  UNL1        0.0640
     44 H           5.7737    1.7186   -1.2377 H       1  UNL1        0.0626
     45 H           7.6082    2.7786    0.1369 H       1  UNL1        0.0632
     46 H           5.5766    1.6564    3.7299 H       1  UNL1        0.0632
     47 H           3.8076    0.6359    2.2909 H       1  UNL1        0.0626
     48 H          -1.7258   -0.3385    2.4708 H       1  UNL1        0.1029
     49 H          -3.7628    1.1961   -0.8774 H       1  UNL1        0.0833
     50 H          -5.5224    2.9951   -0.5729 H       1  UNL1        0.1453
     51 H          -5.5173    2.9806   -0.5500 H       1  UNL1        0.1453
@<TRIPOS>BOND
     1     1     2    1
     2     1     3    1
     3     1     4    1
     4     4     5    1
     5     5     6    1
     6     6     7    1
     7     7     8   ar
     8     8     9   ar
     9     9    10   ar
    10    10    11   ar
    11    11    12   ar
    12    12    13   ar
    13    13    14   ar
    14    14    15   ar
    15    14    16    1
    16    16    17   ar
    17    17    18   ar
    18    18    19   ar
    19    19    20    1
    20    19    21   ar
    21    21    22   ar
    22     4    23    1
    23    23    24   ar
    24    24    25   ar
    25    25    26   ar
    26    26    27   ar
    27    26    28    1
    28    28    29   am
    29    28    30    2
    30    12     7   ar
    31    22    16   ar
    32    27    23   ar
    33    15    11   ar
    34     1    31    1
    35     2    32    1
    36     2    33    1
    37     2    34    1
    38     3    35    1
    39     4    36    1
    40     5    37    1
    41     5    38    1
    42     6    39    1
    43     6    40    1
    44     8    41    1
    45     9    42    1
    46    10    43    1
    47    17    44    1
    48    18    45    1
    49    21    46    1
    50    22    47    1
    51    24    48    1
    52    27    49    1
    53    29    50    1
    54    29    51    1
