
     RDKit          3D

 51 54  0  0  0  0  0  0  0  0999 V2000
   -3.7990   -1.8511   -0.2126 C   0  0  2  0  0  0  0  0  0  0  0  0
   -3.7924   -3.1308   -1.0209 C   0  0  0  0  0  0  0  0  0  0  0  0
   -4.6828   -0.9279   -0.7658 O   0  0  0  0  0  0  0  0  0  0  0  0
   -2.4092   -1.1682   -0.2414 C   0  0  2  0  0  0  0  0  0  0  0  0
   -1.3710   -2.0629    0.3225 C   0  0  0  0  0  0  0  0  0  0  0  0
    0.0343   -1.5746    0.3696 C   0  0  0  0  0  0  0  0  0  0  0  0
    0.5971   -1.3225   -0.9480 C   0  0  0  0  0  0  0  0  0  0  0  0
    0.2197   -1.6237   -2.2297 C   0  0  0  0  0  0  0  0  0  0  0  0
    0.8554   -1.3295   -3.4081 C   0  0  0  0  0  0  0  0  0  0  0  0
    2.0598   -0.6219   -3.2937 C   0  0  0  0  0  0  0  0  0  0  0  0
    2.4981   -0.2886   -2.0404 C   0  0  0  0  0  0  0  0  0  0  0  0
    1.8150   -0.6105   -0.8561 C   0  0  0  0  0  0  0  0  0  0  0  0
    2.5446   -0.1282    0.1482 O   0  0  0  0  0  0  0  0  0  0  0  0
    3.6160    0.4601   -0.3025 C   0  0  0  0  0  0  0  0  0  0  0  0
    3.6312    0.3871   -1.6697 N   0  0  0  0  0  0  0  0  0  0  0  0
    4.6700    1.1063    0.4642 C   0  0  0  0  0  0  0  0  0  0  0  0
    5.7617    1.7218   -0.1467 C   0  0  0  0  0  0  0  0  0  0  0  0
    6.7631    2.3004    0.6130 C   0  0  0  0  0  0  0  0  0  0  0  0
    6.7029    2.2800    2.0069 C   0  0  0  0  0  0  0  0  0  0  0  0
    8.0192    3.0317    2.9237 Cl  0  0  0  0  0  0  0  0  0  0  0  0
    5.6449    1.6839    2.6604 C   0  0  0  0  0  0  0  0  0  0  0  0
    4.6803    1.1264    1.8400 C   0  0  0  0  0  0  0  0  0  0  0  0
   -2.6180    0.0152    0.6184 N   0  0  0  0  0  0  0  0  0  0  0  0
   -2.2840    0.3700    1.8780 C   0  0  0  0  0  0  0  0  0  0  0  0
   -2.7432    1.5936    2.1632 N   0  0  0  0  0  0  0  0  0  0  0  0
   -3.3830    2.0419    1.0787 C   0  0  0  0  0  0  0  0  0  0  0  0
   -3.3110    1.0690    0.1150 C   0  0  0  0  0  0  0  0  0  0  0  0
   -4.0450    3.3677    0.9707 C   0  0  0  0  0  0  0  0  0  0  0  0
   -4.7399    3.6426   -0.2592 N   0  0  0  0  0  0  0  0  0  0  0  0
   -3.9052    4.0850    1.9949 O   0  0  0  0  0  0  0  0  0  0  0  0
   -4.0809   -2.0205    0.8395 H   0  0  0  0  0  0  0  0  0  0  0  0
   -3.2286   -2.9622   -1.9599 H   0  0  0  0  0  0  0  0  0  0  0  0
   -3.3567   -3.9611   -0.3973 H   0  0  0  0  0  0  0  0  0  0  0  0
   -4.8449   -3.3391   -1.2815 H   0  0  0  0  0  0  0  0  0  0  0  0
   -5.4444   -1.4318   -1.1636 H   0  0  0  0  0  0  0  0  0  0  0  0
   -2.2415   -0.8581   -1.2681 H   0  0  0  0  0  0  0  0  0  0  0  0
   -1.7283   -2.3860    1.3496 H   0  0  0  0  0  0  0  0  0  0  0  0
   -1.4243   -3.0433   -0.2528 H   0  0  0  0  0  0  0  0  0  0  0  0
    0.1362   -0.6808    1.0527 H   0  0  0  0  0  0  0  0  0  0  0  0
    0.6431   -2.3740    0.8784 H   0  0  0  0  0  0  0  0  0  0  0  0
   -0.6990   -2.1910   -2.2827 H   0  0  0  0  0  0  0  0  0  0  0  0
    0.4113   -1.6457   -4.3396 H   0  0  0  0  0  0  0  0  0  0  0  0
    2.5908   -0.3713   -4.1958 H   0  0  0  0  0  0  0  0  0  0  0  0
    5.7737    1.7186   -1.2377 H   0  0  0  0  0  0  0  0  0  0  0  0
    7.6082    2.7786    0.1369 H   0  0  0  0  0  0  0  0  0  0  0  0
    5.5766    1.6564    3.7299 H   0  0  0  0  0  0  0  0  0  0  0  0
    3.8076    0.6359    2.2909 H   0  0  0  0  0  0  0  0  0  0  0  0
   -1.7258   -0.3385    2.4708 H   0  0  0  0  0  0  0  0  0  0  0  0
   -3.7628    1.1961   -0.8774 H   0  0  0  0  0  0  0  0  0  0  0  0
   -5.5224    2.9951   -0.5729 H   0  0  0  0  0  0  0  0  0  0  0  0
   -5.5173    2.9806   -0.5500 H   0  0  0  0  0  0  0  0  0  0  0  0
  1  2  1  0
  1  3  1  0
  1  4  1  0
  4  5  1  0
  5  6  1  0
  6  7  1  0
  7  8  2  0
  8  9  1  0
  9 10  2  0
 10 11  1  0
 11 12  2  0
 12 13  1  0
 13 14  1  0
 14 15  2  0
 14 16  1  0
 16 17  2  0
 17 18  1  0
 18 19  2  0
 19 20  1  0
 19 21  1  0
 21 22  2  0
  4 23  1  0
 23 24  1  0
 24 25  2  0
 25 26  1  0
 26 27  2  0
 26 28  1  0
 28 29  1  0
 28 30  2  0
 12  7  1  0
 22 16  1  0
 27 23  1  0
 15 11  1  0
  1 31  1  1
  2 32  1  0
  2 33  1  0
  2 34  1  0
  3 35  1  0
  4 36  1  6
  5 37  1  0
  5 38  1  0
  6 39  1  0
  6 40  1  0
  8 41  1  0
  9 42  1  0
 10 43  1  0
 17 44  1  0
 18 45  1  0
 21 46  1  0
 22 47  1  0
 24 48  1  0
 27 49  1  0
 29 50  1  0
 29 51  1  0
M  END
$$$$
