
     RDKit          3D

 25 25  0  0  0  0  0  0  0  0999 V2000
   -2.7500    0.0306   -0.5510 N   0  0  0  0  0  0  0  0  0  0  0  0
   -1.5650    0.1815    0.2693 C   0  0  1  0  0  0  0  0  0  0  0  0
   -0.9284   -1.1587    0.4534 C   0  0  2  0  0  0  0  0  0  0  0  0
   -1.4864   -1.8967    1.4841 O   0  0  0  0  0  0  0  0  0  0  0  0
    0.4085   -0.9468    0.7906 O   0  0  0  0  0  0  0  0  0  0  0  0
    1.0627   -0.6954   -0.4155 C   0  0  2  0  0  0  0  0  0  0  0  0
    2.5565   -0.7707   -0.2456 C   0  0  0  0  0  0  0  0  0  0  0  0
    3.0348    0.1492    0.6760 O   0  0  0  0  0  0  0  0  0  0  0  0
    0.5576    0.5595   -1.0240 C   0  0  2  0  0  0  0  0  0  0  0  0
    1.5353    1.5574   -1.1094 O   0  0  0  0  0  0  0  0  0  0  0  0
   -0.6380    1.1741   -0.3586 C   0  0  2  0  0  0  0  0  0  0  0  0
   -0.1988    2.1387    0.5607 O   0  0  0  0  0  0  0  0  0  0  0  0
   -3.3833    0.8363   -0.5176 H   0  0  0  0  0  0  0  0  0  0  0  0
   -3.2156   -0.8823   -0.3996 H   0  0  0  0  0  0  0  0  0  0  0  0
   -1.8742    0.5790    1.2783 H   0  0  0  0  0  0  0  0  0  0  0  0
   -1.0237   -1.7096   -0.5055 H   0  0  0  0  0  0  0  0  0  0  0  0
   -2.4501   -2.0217    1.4361 H   0  0  0  0  0  0  0  0  0  0  0  0
    0.7947   -1.5719   -1.0661 H   0  0  0  0  0  0  0  0  0  0  0  0
    2.7899   -1.7822    0.1442 H   0  0  0  0  0  0  0  0  0  0  0  0
    3.0142   -0.6446   -1.2446 H   0  0  0  0  0  0  0  0  0  0  0  0
    3.6690    0.7405    0.2284 H   0  0  0  0  0  0  0  0  0  0  0  0
    0.2712    0.3628   -2.0987 H   0  0  0  0  0  0  0  0  0  0  0  0
    1.6621    1.9828   -0.2439 H   0  0  0  0  0  0  0  0  0  0  0  0
   -1.2019    1.7661   -1.1258 H   0  0  0  0  0  0  0  0  0  0  0  0
   -0.6411    2.0222    1.4229 H   0  0  0  0  0  0  0  0  0  0  0  0
  1  2  1  0
  2  3  1  0
  3  4  1  0
  3  5  1  0
  5  6  1  0
  6  7  1  0
  7  8  1  0
  6  9  1  0
  9 10  1  0
  9 11  1  0
 11 12  1  0
 11  2  1  0
  1 13  1  0
  1 14  1  0
  2 15  1  1
  3 16  1  6
  4 17  1  0
  6 18  1  6
  7 19  1  0
  7 20  1  0
  8 21  1  0
  9 22  1  6
 10 23  1  0
 11 24  1  6
 12 25  1  0
M  END
$$$$
