@<TRIPOS>MOLECULE
*****
 25 25 0 0 0
SMALL
GASTEIGER

@<TRIPOS>ATOM
      1 N          -2.7500    0.0306   -0.5510 N.3     1  UNL1       -0.3211
      2 C          -1.5650    0.1815    0.2693 C.3     1  UNL1        0.0851
      3 C          -0.9284   -1.1587    0.4534 C.3     1  UNL1        0.1744
      4 O          -1.4864   -1.8967    1.4841 O.3     1  UNL1       -0.3656
      5 O           0.4085   -0.9468    0.7906 O.3     1  UNL1       -0.3417
      6 C           1.0627   -0.6954   -0.4155 C.3     1  UNL1        0.1129
      7 C           2.5565   -0.7707   -0.2456 C.3     1  UNL1        0.0730
      8 O           3.0348    0.1492    0.6760 O.3     1  UNL1       -0.3924
      9 C           0.5576    0.5595   -1.0240 C.3     1  UNL1        0.1109
     10 O           1.5353    1.5574   -1.1094 O.3     1  UNL1       -0.3865
     11 C          -0.6380    1.1741   -0.3586 C.3     1  UNL1        0.1033
     12 O          -0.1988    2.1387    0.5607 O.3     1  UNL1       -0.3874
     13 H          -3.3833    0.8363   -0.5176 H       1  UNL1        0.1187
     14 H          -3.2156   -0.8823   -0.3996 H       1  UNL1        0.1187
     15 H          -1.8742    0.5790    1.2783 H       1  UNL1        0.0535
     16 H          -1.0237   -1.7096   -0.5055 H       1  UNL1        0.0925
     17 H          -2.4501   -2.0217    1.4361 H       1  UNL1        0.2125
     18 H           0.7947   -1.5719   -1.0661 H       1  UNL1        0.0647
     19 H           2.7899   -1.7822    0.1442 H       1  UNL1        0.0584
     20 H           3.0142   -0.6446   -1.2446 H       1  UNL1        0.0584
     21 H           3.6690    0.7405    0.2284 H       1  UNL1        0.2095
     22 H           0.2712    0.3628   -2.0987 H       1  UNL1        0.0646
     23 H           1.6621    1.9828   -0.2439 H       1  UNL1        0.2100
     24 H          -1.2019    1.7661   -1.1258 H       1  UNL1        0.0637
     25 H          -0.6411    2.0222    1.4229 H       1  UNL1        0.2100
@<TRIPOS>BOND
     1     1     2    1
     2     2     3    1
     3     3     4    1
     4     3     5    1
     5     5     6    1
     6     6     7    1
     7     7     8    1
     8     6     9    1
     9     9    10    1
    10     9    11    1
    11    11    12    1
    12    11     2    1
    13     1    13    1
    14     1    14    1
    15     2    15    1
    16     3    16    1
    17     4    17    1
    18     6    18    1
    19     7    19    1
    20     7    20    1
    21     8    21    1
    22     9    22    1
    23    10    23    1
    24    11    24    1
    25    12    25    1
