@<TRIPOS>MOLECULE
*****
 62 66 0 0 0
SMALL
GASTEIGER

@<TRIPOS>ATOM
      1 C           7.8140    2.7190   -0.0890 C.3     1  UNL1        0.0596
      2 S           7.5910    1.4368   -1.2881 S.O2    1  UNL1       -0.0059
      3 O           7.8263    2.0246   -2.6682 O.2     1  UNL1       -0.1696
      4 O           8.5378    0.3097   -1.1064 O.2     1  UNL1       -0.1696
      5 C           5.9326    0.8558   -1.2434 C.ar    1  UNL1        0.0883
      6 C           4.9370    1.4120   -2.0247 C.ar    1  UNL1       -0.0334
      7 C           3.6444    0.9820   -2.0102 C.ar    1  UNL1       -0.0178
      8 C           3.3266   -0.0743   -1.1578 C.ar    1  UNL1        0.1246
      9 C           4.2702   -0.6691   -0.3568 C.ar    1  UNL1       -0.0038
     10 C           5.5611   -0.2012   -0.4057 C.ar    1  UNL1       -0.0302
     11 C           3.9558   -1.7962    0.5600 C.3     1  UNL1       -0.0206
     12 C           2.5955   -2.3556    0.2960 C.3     1  UNL1       -0.0088
     13 C           1.5727   -1.2661    0.0582 C.3     1  UNL1        0.1124
     14 C           1.5021   -0.2821    1.1744 C.3     1  UNL1       -0.0114
     15 C           1.2811   -0.8693    2.5267 C.3     1  UNL1       -0.0335
     16 C          -0.2058   -0.6881    2.8654 C.3     1  UNL1        0.0163
     17 N          -0.9223   -1.0764    1.6654 N.am    1  UNL1       -0.2855
     18 C          -2.0076   -0.2287    1.3126 C.2     1  UNL1        0.3024
     19 O          -2.2929    0.7845    2.0284 O.2     1  UNL1       -0.2526
     20 N          -2.8283   -0.4298    0.1844 N.am    1  UNL1       -0.2958
     21 C          -3.9428    0.4625   -0.1553 C.3     1  UNL1        0.0320
     22 C          -4.0449    0.7723   -1.6599 C.3     1  UNL1       -0.0254
     23 C          -5.0458   -0.0916   -0.9779 C.3     1  UNL1        0.0043
     24 C          -6.4084    0.4865   -0.8906 C.ar    1  UNL1       -0.0425
     25 C          -7.5211   -0.3097   -1.0656 C.ar    1  UNL1       -0.0582
     26 C          -8.7945    0.2007   -0.9898 C.ar    1  UNL1       -0.0615
     27 C          -9.0206    1.5352   -0.7348 C.ar    1  UNL1       -0.0617
     28 C          -7.9122    2.3389   -0.5584 C.ar    1  UNL1       -0.0615
     29 C          -6.6308    1.8198   -0.6358 C.ar    1  UNL1       -0.0582
     30 C          -0.6185   -2.2185    0.8400 C.3     1  UNL1        0.0197
     31 C           0.2497   -1.8560   -0.3327 C.3     1  UNL1        0.0030
     32 O           2.0264   -0.5517   -1.1031 O.3     1  UNL1       -0.4854
     33 H           8.7306    3.3140   -0.3413 H       1  UNL1        0.0468
     34 H           6.9081    3.3510   -0.0416 H       1  UNL1        0.0468
     35 H           7.9318    2.2852    0.9366 H       1  UNL1        0.0468
     36 H           5.2015    2.2356   -2.6845 H       1  UNL1        0.0638
     37 H           2.8520    1.4091   -2.6182 H       1  UNL1        0.0655
     38 H           6.3625   -0.6170    0.1949 H       1  UNL1        0.0640
     39 H           4.1066   -1.4644    1.6135 H       1  UNL1        0.0316
     40 H           4.7198   -2.5962    0.3392 H       1  UNL1        0.0316
     41 H           2.3082   -3.0639    1.0806 H       1  UNL1        0.0307
     42 H           2.6617   -2.9235   -0.6759 H       1  UNL1        0.0307
     43 H           0.7743    0.5014    0.8981 H       1  UNL1        0.0304
     44 H           2.4998    0.2453    1.2065 H       1  UNL1        0.0304
     45 H           1.8749   -0.3607    3.3278 H       1  UNL1        0.0282
     46 H           1.4678   -1.9617    2.5774 H       1  UNL1        0.0282
     47 H          -0.3374    0.3922    3.0717 H       1  UNL1        0.0465
     48 H          -0.5147   -1.3421    3.6965 H       1  UNL1        0.0465
     49 H          -2.6649   -1.2275   -0.4490 H       1  UNL1        0.1505
     50 H          -4.1202    1.3220    0.5231 H       1  UNL1        0.0505
     51 H          -3.3415    0.2906   -2.3424 H       1  UNL1        0.0290
     52 H          -4.3366    1.8125   -1.9435 H       1  UNL1        0.0290
     53 H          -5.0065   -1.1797   -1.1845 H       1  UNL1        0.0367
     54 H          -7.3543   -1.3727   -1.2690 H       1  UNL1        0.0620
     55 H          -9.6696   -0.4192   -1.1263 H       1  UNL1        0.0618
     56 H         -10.0369    1.9292   -0.6769 H       1  UNL1        0.0618
     57 H          -8.0795    3.3772   -0.3599 H       1  UNL1        0.0618
     58 H          -5.7607    2.4496   -0.4977 H       1  UNL1        0.0620
     59 H          -0.1335   -3.0225    1.4643 H       1  UNL1        0.0466
     60 H          -1.5464   -2.6510    0.4695 H       1  UNL1        0.0466
     61 H           0.3965   -2.7621   -0.9364 H       1  UNL1        0.0319
     62 H          -0.3215   -1.1268   -0.9513 H       1  UNL1        0.0319
@<TRIPOS>BOND
     1     1     2    1
     2     2     3    2
     3     2     4    2
     4     2     5    1
     5     5     6   ar
     6     6     7   ar
     7     7     8   ar
     8     8     9   ar
     9     9    10   ar
    10     9    11    1
    11    11    12    1
    12    12    13    1
    13    13    14    1
    14    14    15    1
    15    15    16    1
    16    16    17    1
    17    17    18   am
    18    18    19    2
    19    18    20   am
    20    20    21    1
    21    21    22    1
    22    22    23    1
    23    23    24    1
    24    24    25   ar
    25    25    26   ar
    26    26    27   ar
    27    27    28   ar
    28    28    29   ar
    29    17    30    1
    30    30    31    1
    31    13    32    1
    32    10     5   ar
    33    31    13    1
    34    32     8    1
    35    23    21    1
    36    29    24   ar
    37     1    33    1
    38     1    34    1
    39     1    35    1
    40     6    36    1
    41     7    37    1
    42    10    38    1
    43    11    39    1
    44    11    40    1
    45    12    41    1
    46    12    42    1
    47    14    43    1
    48    14    44    1
    49    15    45    1
    50    15    46    1
    51    16    47    1
    52    16    48    1
    53    20    49    1
    54    21    50    1
    55    22    51    1
    56    22    52    1
    57    23    53    1
    58    25    54    1
    59    26    55    1
    60    27    56    1
    61    28    57    1
    62    29    58    1
    63    30    59    1
    64    30    60    1
    65    31    61    1
    66    31    62    1
