@<TRIPOS>MOLECULE
*****
 40 43 0 0 0
SMALL
GASTEIGER

@<TRIPOS>ATOM
      1 C          -2.4898    1.0065    3.1046 C.3     1  UNL1        0.0573
      2 N          -2.1250    0.2706    1.8973 N.am    1  UNL1       -0.1614
      3 C          -1.5357    0.7747    0.7090 C.2     1  UNL1        0.3303
      4 O          -1.2370    1.9890    0.5354 O.2     1  UNL1       -0.2520
      5 C          -1.3731   -0.3715   -0.1938 C.3     1  UNL1        0.2651
      6 C           0.0217   -0.6067   -0.5938 C.ar    1  UNL1        0.0112
      7 C           0.2920   -1.6803   -1.4136 C.ar    1  UNL1       -0.0540
      8 C           1.5850   -1.9527   -1.8199 C.ar    1  UNL1       -0.0608
      9 C           2.6243   -1.1231   -1.3887 C.ar    1  UNL1       -0.0539
     10 C           2.3599   -0.0491   -0.5697 C.ar    1  UNL1       -0.0146
     11 C           3.4674    0.7862   -0.1450 C.ar    1  UNL1        0.0183
     12 C           3.3706    1.3895    1.1041 C.ar    1  UNL1        0.0385
     13 N           4.3488    2.1880    1.5942 N.ar    1  UNL1       -0.2431
     14 C           5.4511    2.4140    0.8651 C.ar    1  UNL1        0.1159
     15 N           5.5663    1.8405   -0.3472 N.ar    1  UNL1       -0.2431
     16 C           4.5965    1.0322   -0.8649 C.ar    1  UNL1        0.0385
     17 C           1.0468    0.1948   -0.1807 C.ar    1  UNL1       -0.0462
     18 C          -2.2124   -0.1360   -1.4692 C.ar    1  UNL1        0.0191
     19 C          -2.0211    1.0242   -2.1693 C.ar    1  UNL1       -0.0152
     20 S          -3.2025    0.8761   -3.5767 S.2     1  UNL1       -0.0848
     21 C          -3.8102   -0.7534   -3.0321 C.ar    1  UNL1        0.0784
     22 CL         -5.0283   -1.6690   -3.8595 Cl      1  UNL1       -0.0758
     23 C          -3.1037   -1.0298   -1.8925 C.ar    1  UNL1       -0.0285
     24 N          -1.8894   -1.4730    0.5485 N.2     1  UNL1       -0.0890
     25 C          -2.3070   -1.1252    1.7065 C.2     1  UNL1        0.3731
     26 N          -2.8899   -1.9900    2.7160 N.pl3   1  UNL1       -0.2512
     27 H          -2.5944    2.0955    2.9064 H       1  UNL1        0.0602
     28 H          -1.7552    0.7874    3.9056 H       1  UNL1        0.0602
     29 H          -3.4689    0.6179    3.4357 H       1  UNL1        0.0602
     30 H          -0.5007   -2.3422   -1.7632 H       1  UNL1        0.0622
     31 H           1.7465   -2.8047   -2.4621 H       1  UNL1        0.0618
     32 H           3.6433   -1.3505   -1.7173 H       1  UNL1        0.0624
     33 H           2.5085    1.2373    1.7224 H       1  UNL1        0.0837
     34 H           6.2137    3.0598    1.2928 H       1  UNL1        0.1047
     35 H           4.6943    0.5712   -1.8464 H       1  UNL1        0.0837
     36 H           0.8913    1.0498    0.4631 H       1  UNL1        0.0628
     37 H          -1.3766    1.8778   -2.0328 H       1  UNL1        0.0698
     38 H          -3.3090   -2.0019   -1.3656 H       1  UNL1        0.0642
     39 H          -2.3535   -2.2293    3.5756 H       1  UNL1        0.2412
     40 H          -3.8446   -2.3948    2.6214 H       1  UNL1        0.2412
@<TRIPOS>BOND
     1     1     2    1
     2     2     3   am
     3     3     4    2
     4     3     5    1
     5     5     6    1
     6     6     7   ar
     7     7     8   ar
     8     8     9   ar
     9     9    10   ar
    10    10    11    1
    11    11    12   ar
    12    12    13   ar
    13    13    14   ar
    14    14    15   ar
    15    15    16   ar
    16    10    17   ar
    17     5    18    1
    18    18    19   ar
    19    19    20   ar
    20    20    21   ar
    21    21    22    1
    22    21    23   ar
    23     5    24    1
    24    24    25    2
    25    25    26    1
    26    25     2    1
    27    17     6   ar
    28    23    18   ar
    29    16    11   ar
    30     1    27    1
    31     1    28    1
    32     1    29    1
    33     7    30    1
    34     8    31    1
    35     9    32    1
    36    12    33    1
    37    14    34    1
    38    16    35    1
    39    17    36    1
    40    19    37    1
    41    23    38    1
    42    26    39    1
    43    26    40    1
