
     RDKit          3D

 40 43  0  0  0  0  0  0  0  0999 V2000
   -2.4898    1.0065    3.1046 C   0  0  0  0  0  0  0  0  0  0  0  0
   -2.1250    0.2706    1.8973 N   0  0  0  0  0  0  0  0  0  0  0  0
   -1.5357    0.7747    0.7090 C   0  0  0  0  0  0  0  0  0  0  0  0
   -1.2370    1.9890    0.5354 O   0  0  0  0  0  0  0  0  0  0  0  0
   -1.3731   -0.3715   -0.1938 C   0  0  0  0  0  0  0  0  0  0  0  0
    0.0217   -0.6067   -0.5938 C   0  0  0  0  0  0  0  0  0  0  0  0
    0.2920   -1.6803   -1.4136 C   0  0  0  0  0  0  0  0  0  0  0  0
    1.5850   -1.9527   -1.8199 C   0  0  0  0  0  0  0  0  0  0  0  0
    2.6243   -1.1231   -1.3887 C   0  0  0  0  0  0  0  0  0  0  0  0
    2.3599   -0.0491   -0.5697 C   0  0  0  0  0  0  0  0  0  0  0  0
    3.4674    0.7862   -0.1450 C   0  0  0  0  0  0  0  0  0  0  0  0
    3.3706    1.3895    1.1041 C   0  0  0  0  0  0  0  0  0  0  0  0
    4.3488    2.1880    1.5942 N   0  0  0  0  0  0  0  0  0  0  0  0
    5.4511    2.4140    0.8651 C   0  0  0  0  0  0  0  0  0  0  0  0
    5.5663    1.8405   -0.3472 N   0  0  0  0  0  0  0  0  0  0  0  0
    4.5965    1.0322   -0.8649 C   0  0  0  0  0  0  0  0  0  0  0  0
    1.0468    0.1948   -0.1807 C   0  0  0  0  0  0  0  0  0  0  0  0
   -2.2124   -0.1360   -1.4692 C   0  0  0  0  0  0  0  0  0  0  0  0
   -2.0211    1.0242   -2.1693 C   0  0  0  0  0  0  0  0  0  0  0  0
   -3.2025    0.8761   -3.5767 S   0  0  0  0  0  0  0  0  0  0  0  0
   -3.8102   -0.7534   -3.0321 C   0  0  0  0  0  0  0  0  0  0  0  0
   -5.0283   -1.6690   -3.8595 Cl  0  0  0  0  0  0  0  0  0  0  0  0
   -3.1037   -1.0298   -1.8925 C   0  0  0  0  0  0  0  0  0  0  0  0
   -1.8894   -1.4730    0.5485 N   0  0  0  0  0  0  0  0  0  0  0  0
   -2.3070   -1.1252    1.7065 C   0  0  0  0  0  0  0  0  0  0  0  0
   -2.8899   -1.9900    2.7160 N   0  0  0  0  0  0  0  0  0  0  0  0
   -2.5944    2.0955    2.9064 H   0  0  0  0  0  0  0  0  0  0  0  0
   -1.7552    0.7874    3.9056 H   0  0  0  0  0  0  0  0  0  0  0  0
   -3.4689    0.6179    3.4357 H   0  0  0  0  0  0  0  0  0  0  0  0
   -0.5007   -2.3422   -1.7632 H   0  0  0  0  0  0  0  0  0  0  0  0
    1.7465   -2.8047   -2.4621 H   0  0  0  0  0  0  0  0  0  0  0  0
    3.6433   -1.3505   -1.7173 H   0  0  0  0  0  0  0  0  0  0  0  0
    2.5085    1.2373    1.7224 H   0  0  0  0  0  0  0  0  0  0  0  0
    6.2137    3.0598    1.2928 H   0  0  0  0  0  0  0  0  0  0  0  0
    4.6943    0.5712   -1.8464 H   0  0  0  0  0  0  0  0  0  0  0  0
    0.8913    1.0498    0.4631 H   0  0  0  0  0  0  0  0  0  0  0  0
   -1.3766    1.8778   -2.0328 H   0  0  0  0  0  0  0  0  0  0  0  0
   -3.3090   -2.0019   -1.3656 H   0  0  0  0  0  0  0  0  0  0  0  0
   -2.3535   -2.2293    3.5756 H   0  0  0  0  0  0  0  0  0  0  0  0
   -3.8446   -2.3948    2.6214 H   0  0  0  0  0  0  0  0  0  0  0  0
  1  2  1  0
  2  3  1  0
  3  4  2  0
  3  5  1  0
  5  6  1  0
  6  7  2  0
  7  8  1  0
  8  9  2  0
  9 10  1  0
 10 11  1  0
 11 12  2  0
 12 13  1  0
 13 14  2  0
 14 15  1  0
 15 16  2  0
 10 17  2  0
  5 18  1  0
 18 19  2  0
 19 20  1  0
 20 21  1  0
 21 22  1  0
 21 23  2  0
  5 24  1  0
 24 25  2  0
 25 26  1  0
 25  2  1  0
 17  6  1  0
 23 18  1  0
 16 11  1  0
  1 27  1  0
  1 28  1  0
  1 29  1  0
  7 30  1  0
  8 31  1  0
  9 32  1  0
 12 33  1  0
 14 34  1  0
 16 35  1  0
 17 36  1  0
 19 37  1  0
 23 38  1  0
 26 39  1  0
 26 40  1  0
M  END
$$$$
