@<TRIPOS>MOLECULE
*****
 51 54 0 0 0
SMALL
GASTEIGER

@<TRIPOS>ATOM
      1 C          -1.1313    0.9951   -0.2255 C.3     1  UNL1       -0.0286
      2 C          -1.9828    2.0104    0.4494 C.3     1  UNL1       -0.0458
      3 C          -3.3981    1.4904    0.2734 C.3     1  UNL1       -0.0118
      4 C          -3.2433    0.1630   -0.4812 C.3     1  UNL1        0.1319
      5 O          -4.2961   -0.6662   -0.2176 O.3     1  UNL1       -0.3760
      6 C          -3.1757    0.4958   -1.9039 C.1     1  UNL1       -0.0704
      7 C          -3.0991    0.7717   -3.0758 C.1     1  UNL1       -0.1163
      8 C          -1.9048   -0.2792    0.0026 C.3     1  UNL1        0.0136
      9 C          -1.9189   -0.5974    1.4717 C.3     1  UNL1       -0.0464
     10 C          -2.6473   -1.8315    1.8537 C.3     1  UNL1       -0.0646
     11 C          -1.2680   -1.3634   -0.7861 C.3     1  UNL1       -0.0433
     12 C           0.1530   -1.5411   -0.3270 C.3     1  UNL1       -0.0488
     13 C           0.9422   -0.2665   -0.4319 C.3     1  UNL1       -0.0314
     14 C           2.2654   -0.4309    0.2935 C.3     1  UNL1       -0.0160
     15 C           2.9035   -1.7679    0.0513 C.3     1  UNL1       -0.0392
     16 C           4.2365   -1.7906    0.7284 C.3     1  UNL1        0.0104
     17 C           4.9867   -0.5740    0.3342 C.2     1  UNL1        0.1561
     18 O           6.2341   -0.6702    0.5034 O.2     1  UNL1       -0.2927
     19 C           4.4234    0.6521   -0.2026 C.2     1  UNL1       -0.0197
     20 C           3.0989    0.7000   -0.2128 C.2     1  UNL1       -0.0629
     21 C           2.4022    1.8870   -0.7312 C.3     1  UNL1       -0.0308
     22 C           1.0400    2.1344   -0.1532 C.3     1  UNL1       -0.0460
     23 C           0.2836    0.9158    0.2493 C.3     1  UNL1       -0.0339
     24 H          -1.1200    1.2180   -1.2991 H       1  UNL1        0.0310
     25 H          -1.7154    2.1742    1.5213 H       1  UNL1        0.0269
     26 H          -1.8812    3.0366   -0.0091 H       1  UNL1        0.0269
     27 H          -3.9457    2.2053   -0.3675 H       1  UNL1        0.0303
     28 H          -3.8982    1.3480    1.2481 H       1  UNL1        0.0303
     29 H          -5.1109   -0.1142   -0.0774 H       1  UNL1        0.2114
     30 H          -3.0286    1.0265   -4.1102 H       1  UNL1        0.1229
     31 H          -2.3249    0.2866    1.9958 H       1  UNL1        0.0269
     32 H          -0.8781   -0.7103    1.8594 H       1  UNL1        0.0269
     33 H          -3.2437   -2.3163    1.0590 H       1  UNL1        0.0230
     34 H          -3.3511   -1.5924    2.6774 H       1  UNL1        0.0230
     35 H          -2.0001   -2.6374    2.2590 H       1  UNL1        0.0230
     36 H          -1.2238   -1.0962   -1.8588 H       1  UNL1        0.0272
     37 H          -1.8085   -2.3128   -0.6033 H       1  UNL1        0.0272
     38 H           0.6361   -2.2651   -1.0058 H       1  UNL1        0.0268
     39 H           0.2573   -1.9318    0.6830 H       1  UNL1        0.0268
     40 H           1.1072   -0.0482   -1.5021 H       1  UNL1        0.0309
     41 H           2.1380   -0.2502    1.3841 H       1  UNL1        0.0349
     42 H           2.9597   -1.9372   -1.0400 H       1  UNL1        0.0275
     43 H           2.2570   -2.5170    0.5544 H       1  UNL1        0.0275
     44 H           4.0278   -1.7116    1.8330 H       1  UNL1        0.0345
     45 H           4.7965   -2.7216    0.4945 H       1  UNL1        0.0345
     46 H           5.0507    1.4505   -0.5604 H       1  UNL1        0.0652
     47 H           2.3814    1.8370   -1.8392 H       1  UNL1        0.0310
     48 H           3.0420    2.7705   -0.4874 H       1  UNL1        0.0310
     49 H           0.4649    2.6771   -0.9356 H       1  UNL1        0.0271
     50 H           1.1201    2.8784    0.6912 H       1  UNL1        0.0271
     51 H           0.3874    0.8165    1.3467 H       1  UNL1        0.0307
@<TRIPOS>BOND
     1     1     2    1
     2     2     3    1
     3     3     4    1
     4     4     5    1
     5     4     6    1
     6     6     7    3
     7     4     8    1
     8     8     9    1
     9     9    10    1
    10     8    11    1
    11    11    12    1
    12    12    13    1
    13    13    14    1
    14    14    15    1
    15    15    16    1
    16    16    17    1
    17    17    18    2
    18    17    19    1
    19    19    20    2
    20    20    21    1
    21    21    22    1
    22    22    23    1
    23     8     1    1
    24    23    13    1
    25    23     1    1
    26    20    14    1
    27     1    24    1
    28     2    25    1
    29     2    26    1
    30     3    27    1
    31     3    28    1
    32     5    29    1
    33     7    30    1
    34     9    31    1
    35     9    32    1
    36    10    33    1
    37    10    34    1
    38    10    35    1
    39    11    36    1
    40    11    37    1
    41    12    38    1
    42    12    39    1
    43    13    40    1
    44    14    41    1
    45    15    42    1
    46    15    43    1
    47    16    44    1
    48    16    45    1
    49    19    46    1
    50    21    47    1
    51    21    48    1
    52    22    49    1
    53    22    50    1
    54    23    51    1
