@<TRIPOS>MOLECULE
*****
 36 38 0 0 0
SMALL
GASTEIGER

@<TRIPOS>ATOM
      1 C           1.4498    4.4548   -1.4766 C.3     1  UNL1        0.0821
      2 O           0.4710    3.4790   -1.1626 O.3     1  UNL1       -0.4622
      3 C           0.9117    2.1567   -0.9594 C.2     1  UNL1        0.3784
      4 O           2.1137    1.8844   -1.0573 O.2     1  UNL1       -0.2413
      5 C          -0.1244    1.1760   -0.6374 C.ar    1  UNL1        0.2555
      6 O          -1.3964    1.3579   -0.5130 O.2     1  UNL1       -0.4435
      7 C          -2.0309    0.2040   -0.2075 C.ar    1  UNL1        0.1545
      8 C          -1.0571   -0.7122   -0.1508 C.ar    1  UNL1        0.1018
      9 S          -1.8542   -2.1891    0.2383 S.2     1  UNL1       -0.0813
     10 C          -3.5411   -1.4892    0.3135 C.ar    1  UNL1        0.0236
     11 C          -4.7721   -2.0581    0.5796 C.ar    1  UNL1       -0.0473
     12 C          -5.8956   -1.2537    0.5635 C.ar    1  UNL1       -0.0607
     13 C          -5.7400    0.0701    0.2850 C.ar    1  UNL1       -0.0610
     14 C          -4.5014    0.5953    0.0266 C.ar    1  UNL1       -0.0500
     15 C          -3.3121   -0.1762    0.0279 C.ar    1  UNL1        0.0322
     16 C           0.1912   -0.1445   -0.4188 C.ar    1  UNL1        0.1980
     17 O           1.3515   -0.8512   -0.4265 O.3     1  UNL1       -0.4204
     18 C           2.1744   -1.0537    0.6652 C.2     1  UNL1        0.3151
     19 O           1.8258   -0.5436    1.7620 O.2     1  UNL1       -0.2501
     20 C           3.4028   -1.8510    0.4761 C.3     1  UNL1        0.0512
     21 C           4.2528   -1.1391   -0.5698 C.3     1  UNL1       -0.0525
     22 C           4.1590   -1.9916    1.7800 C.3     1  UNL1       -0.0525
     23 H           2.4259    4.0050   -1.7303 H       1  UNL1        0.0661
     24 H           1.1279    5.1323   -2.2934 H       1  UNL1        0.0661
     25 H           1.5966    5.0677   -0.5567 H       1  UNL1        0.0661
     26 H          -4.7997   -3.1153    0.7898 H       1  UNL1        0.0629
     27 H          -6.8440   -1.6754    0.7652 H       1  UNL1        0.0618
     28 H          -6.6245    0.7528    0.2627 H       1  UNL1        0.0618
     29 H          -4.4558    1.6619   -0.1877 H       1  UNL1        0.0625
     30 H           3.1462   -2.8489    0.0527 H       1  UNL1        0.0408
     31 H           4.9461   -0.4464   -0.0394 H       1  UNL1        0.0237
     32 H           4.8764   -1.8638   -1.1427 H       1  UNL1        0.0237
     33 H           3.5625   -0.6255   -1.2558 H       1  UNL1        0.0237
     34 H           3.4959   -1.6454    2.5878 H       1  UNL1        0.0237
     35 H           4.4512   -3.0370    1.8839 H       1  UNL1        0.0237
     36 H           5.0166   -1.2873    1.7260 H       1  UNL1        0.0237
@<TRIPOS>BOND
     1     1     2    1
     2     2     3    1
     3     3     4    2
     4     3     5    1
     5     5     6   ar
     6     6     7   ar
     7     7     8   ar
     8     8     9   ar
     9     9    10   ar
    10    10    11   ar
    11    11    12   ar
    12    12    13   ar
    13    13    14   ar
    14    14    15   ar
    15     8    16   ar
    16    16    17    1
    17    17    18    1
    18    18    19    2
    19    18    20    1
    20    20    21    1
    21    20    22    1
    22    16     5   ar
    23    15     7   ar
    24    15    10   ar
    25     1    23    1
    26     1    24    1
    27     1    25    1
    28    11    26    1
    29    12    27    1
    30    13    28    1
    31    14    29    1
    32    20    30    1
    33    21    31    1
    34    21    32    1
    35    21    33    1
    36    22    34    1
    37    22    35    1
    38    22    36    1
