
     RDKit          3D

 36 38  0  0  0  0  0  0  0  0999 V2000
    1.4498    4.4548   -1.4766 C   0  0  0  0  0  0  0  0  0  0  0  0
    0.4710    3.4790   -1.1626 O   0  0  0  0  0  0  0  0  0  0  0  0
    0.9117    2.1567   -0.9594 C   0  0  0  0  0  0  0  0  0  0  0  0
    2.1137    1.8844   -1.0573 O   0  0  0  0  0  0  0  0  0  0  0  0
   -0.1244    1.1760   -0.6374 C   0  0  0  0  0  0  0  0  0  0  0  0
   -1.3964    1.3579   -0.5130 O   0  0  0  0  0  0  0  0  0  0  0  0
   -2.0309    0.2040   -0.2075 C   0  0  0  0  0  0  0  0  0  0  0  0
   -1.0571   -0.7122   -0.1508 C   0  0  0  0  0  0  0  0  0  0  0  0
   -1.8542   -2.1891    0.2383 S   0  0  0  0  0  0  0  0  0  0  0  0
   -3.5411   -1.4892    0.3135 C   0  0  0  0  0  0  0  0  0  0  0  0
   -4.7721   -2.0581    0.5796 C   0  0  0  0  0  0  0  0  0  0  0  0
   -5.8956   -1.2537    0.5635 C   0  0  0  0  0  0  0  0  0  0  0  0
   -5.7400    0.0701    0.2850 C   0  0  0  0  0  0  0  0  0  0  0  0
   -4.5014    0.5953    0.0266 C   0  0  0  0  0  0  0  0  0  0  0  0
   -3.3121   -0.1762    0.0279 C   0  0  0  0  0  0  0  0  0  0  0  0
    0.1912   -0.1445   -0.4188 C   0  0  0  0  0  0  0  0  0  0  0  0
    1.3515   -0.8512   -0.4265 O   0  0  0  0  0  0  0  0  0  0  0  0
    2.1744   -1.0537    0.6652 C   0  0  0  0  0  0  0  0  0  0  0  0
    1.8258   -0.5436    1.7620 O   0  0  0  0  0  0  0  0  0  0  0  0
    3.4028   -1.8510    0.4761 C   0  0  0  0  0  0  0  0  0  0  0  0
    4.2528   -1.1391   -0.5698 C   0  0  0  0  0  0  0  0  0  0  0  0
    4.1590   -1.9916    1.7800 C   0  0  0  0  0  0  0  0  0  0  0  0
    2.4259    4.0050   -1.7303 H   0  0  0  0  0  0  0  0  0  0  0  0
    1.1279    5.1323   -2.2934 H   0  0  0  0  0  0  0  0  0  0  0  0
    1.5966    5.0677   -0.5567 H   0  0  0  0  0  0  0  0  0  0  0  0
   -4.7997   -3.1153    0.7898 H   0  0  0  0  0  0  0  0  0  0  0  0
   -6.8440   -1.6754    0.7652 H   0  0  0  0  0  0  0  0  0  0  0  0
   -6.6245    0.7528    0.2627 H   0  0  0  0  0  0  0  0  0  0  0  0
   -4.4558    1.6619   -0.1877 H   0  0  0  0  0  0  0  0  0  0  0  0
    3.1462   -2.8489    0.0527 H   0  0  0  0  0  0  0  0  0  0  0  0
    4.9461   -0.4464   -0.0394 H   0  0  0  0  0  0  0  0  0  0  0  0
    4.8764   -1.8638   -1.1427 H   0  0  0  0  0  0  0  0  0  0  0  0
    3.5625   -0.6255   -1.2558 H   0  0  0  0  0  0  0  0  0  0  0  0
    3.4959   -1.6454    2.5878 H   0  0  0  0  0  0  0  0  0  0  0  0
    4.4512   -3.0370    1.8839 H   0  0  0  0  0  0  0  0  0  0  0  0
    5.0166   -1.2873    1.7260 H   0  0  0  0  0  0  0  0  0  0  0  0
  1  2  1  0
  2  3  1  0
  3  4  2  0
  3  5  1  0
  5  6  1  0
  6  7  1  0
  7  8  2  0
  8  9  1  0
  9 10  1  0
 10 11  2  0
 11 12  1  0
 12 13  2  0
 13 14  1  0
 14 15  2  0
  8 16  1  0
 16 17  1  0
 17 18  1  0
 18 19  2  0
 18 20  1  0
 20 21  1  0
 20 22  1  0
 16  5  2  0
 15  7  1  0
 15 10  1  0
  1 23  1  0
  1 24  1  0
  1 25  1  0
 11 26  1  0
 12 27  1  0
 13 28  1  0
 14 29  1  0
 20 30  1  0
 21 31  1  0
 21 32  1  0
 21 33  1  0
 22 34  1  0
 22 35  1  0
 22 36  1  0
M  END
$$$$
