@<TRIPOS>MOLECULE
*****
 78 82 0 0 0
SMALL
GASTEIGER

@<TRIPOS>ATOM
      1 C          -6.7748    2.0412    0.5768 C.3     1  UNL1       -0.0557
      2 C          -6.1314    0.6755    0.8372 C.3     1  UNL1        0.0135
      3 C          -7.2328   -0.2966    1.2725 C.3     1  UNL1       -0.0557
      4 C          -5.5593    0.1240   -0.4176 C.ar    1  UNL1        0.1363
      5 N          -6.4201   -0.0288   -1.4333 N.ar    1  UNL1       -0.1341
      6 N          -5.6886   -0.5252   -2.4294 N.ar    1  UNL1       -0.1346
      7 C          -4.3930   -0.6688   -2.0091 C.ar    1  UNL1        0.1306
      8 C          -3.3017   -1.1887   -2.8400 C.3     1  UNL1       -0.0044
      9 N          -4.2773   -0.2565   -0.7101 N.ar    1  UNL1       -0.3116
     10 C          -3.1506   -0.2024    0.1761 C.3     1  UNL1        0.0401
     11 C          -2.5080   -1.5112    0.4879 C.3     1  UNL1       -0.0163
     12 C          -1.3444   -1.2882    1.4288 C.3     1  UNL1        0.0126
     13 C          -1.7402   -0.5260    2.6806 C.3     1  UNL1       -0.0358
     14 C          -1.5228    0.8821    2.2530 C.3     1  UNL1       -0.0358
     15 C          -1.0497    0.8471    0.8446 C.3     1  UNL1        0.0126
     16 C          -2.1467    0.8522   -0.1989 C.3     1  UNL1       -0.0163
     17 N          -0.3458   -0.4298    0.7584 N.3     1  UNL1       -0.2963
     18 C           0.8287   -0.3238    1.5442 C.3     1  UNL1        0.0014
     19 C           1.8540   -1.4200    1.3970 C.3     1  UNL1       -0.0175
     20 C           2.4558   -1.5476    0.0418 C.3     1  UNL1        0.0495
     21 N           3.0930   -0.2590   -0.2867 N.am    1  UNL1       -0.3082
     22 C           4.5131   -0.1618   -0.5073 C.2     1  UNL1        0.2166
     23 O           5.2969   -1.1445   -0.4399 O.2     1  UNL1       -0.2755
     24 C           4.9363    1.2521   -0.8269 C.3     1  UNL1        0.0359
     25 C           6.3843    1.3543   -1.1517 C.3     1  UNL1       -0.0365
     26 C           7.2915    1.4804    0.0409 C.3     1  UNL1        0.0114
     27 C           7.0392    2.7750    0.7733 C.3     1  UNL1        0.2490
     28 F           7.7762    3.8144    0.2341 F       1  UNL1       -0.2057
     29 F           7.4257    2.6494    2.1054 F       1  UNL1       -0.2057
     30 C           5.5804    3.1948    0.6446 C.3     1  UNL1        0.0114
     31 C           4.6875    1.9990    0.4898 C.3     1  UNL1       -0.0365
     32 C           1.6466   -2.0239   -1.0498 C.ar    1  UNL1       -0.0272
     33 C           0.5162   -2.7965   -1.1251 C.ar    1  UNL1       -0.0568
     34 C          -0.1624   -3.1496   -2.2617 C.ar    1  UNL1       -0.0614
     35 C           0.3216   -2.6939   -3.4695 C.ar    1  UNL1       -0.0617
     36 C           1.4570   -1.9090   -3.4916 C.ar    1  UNL1       -0.0614
     37 C           2.0916   -1.5912   -2.3061 C.ar    1  UNL1       -0.0568
     38 H          -7.8783    1.9262    0.5526 H       1  UNL1        0.0236
     39 H          -6.5105    2.7486    1.4147 H       1  UNL1        0.0236
     40 H          -6.4063    2.3878   -0.4005 H       1  UNL1        0.0236
     41 H          -5.4266    0.7544    1.6563 H       1  UNL1        0.0374
     42 H          -8.1688    0.0458    0.7864 H       1  UNL1        0.0236
     43 H          -7.3920   -0.2603    2.3665 H       1  UNL1        0.0236
     44 H          -6.9732   -1.3069    0.9330 H       1  UNL1        0.0236
     45 H          -2.9654   -2.2237   -2.5681 H       1  UNL1        0.0308
     46 H          -3.7184   -1.3401   -3.8852 H       1  UNL1        0.0308
     47 H          -2.4594   -0.4897   -3.0096 H       1  UNL1        0.0308
     48 H          -3.5555    0.1602    1.1737 H       1  UNL1        0.0530
     49 H          -3.2582   -2.1039    1.0927 H       1  UNL1        0.0300
     50 H          -2.1386   -2.0824   -0.3639 H       1  UNL1        0.0300
     51 H          -0.8936   -2.2682    1.6913 H       1  UNL1        0.0463
     52 H          -2.7846   -0.7489    2.9821 H       1  UNL1        0.0281
     53 H          -1.1222   -0.8510    3.5409 H       1  UNL1        0.0281
     54 H          -0.6927    1.3422    2.8571 H       1  UNL1        0.0281
     55 H          -2.3960    1.5467    2.4285 H       1  UNL1        0.0281
     56 H          -0.3106    1.6479    0.6076 H       1  UNL1        0.0463
     57 H          -2.6396    1.8588   -0.1647 H       1  UNL1        0.0300
     58 H          -1.6411    0.7007   -1.1608 H       1  UNL1        0.0300
     59 H           0.5797   -0.2280    2.6461 H       1  UNL1        0.0427
     60 H           1.3401    0.6543    1.3366 H       1  UNL1        0.0427
     61 H           2.6573   -1.1710    2.1321 H       1  UNL1        0.0299
     62 H           1.4573   -2.3957    1.7893 H       1  UNL1        0.0299
     63 H           3.3007   -2.3036    0.1379 H       1  UNL1        0.0549
     64 H           2.4401    0.5296   -0.3421 H       1  UNL1        0.1493
     65 H           4.3031    1.7036   -1.6050 H       1  UNL1        0.0394
     66 H           6.7772    0.5217   -1.7638 H       1  UNL1        0.0274
     67 H           6.5104    2.3204   -1.7243 H       1  UNL1        0.0274
     68 H           7.1900    0.6429    0.7711 H       1  UNL1        0.0323
     69 H           8.3395    1.5197   -0.3429 H       1  UNL1        0.0323
     70 H           5.4117    3.9996   -0.0705 H       1  UNL1        0.0323
     71 H           5.3254    3.6209    1.6567 H       1  UNL1        0.0323
     72 H           3.6309    2.2726    0.6259 H       1  UNL1        0.0274
     73 H           4.9484    1.3170    1.3514 H       1  UNL1        0.0274
     74 H           0.1815   -3.1420   -0.1655 H       1  UNL1        0.0621
     75 H          -1.0401   -3.7668   -2.1371 H       1  UNL1        0.0618
     76 H          -0.2550   -3.0048   -4.3336 H       1  UNL1        0.0618
     77 H           1.8052   -1.5716   -4.4541 H       1  UNL1        0.0618
     78 H           2.9821   -0.9612   -2.4573 H       1  UNL1        0.0621
@<TRIPOS>BOND
     1     1     2    1
     2     2     3    1
     3     2     4    1
     4     4     5   ar
     5     5     6   ar
     6     6     7   ar
     7     7     8    1
     8     7     9   ar
     9     9    10    1
    10    10    11    1
    11    11    12    1
    12    12    13    1
    13    13    14    1
    14    14    15    1
    15    15    16    1
    16    15    17    1
    17    17    18    1
    18    18    19    1
    19    19    20    1
    20    20    21    1
    21    21    22   am
    22    22    23    2
    23    22    24    1
    24    24    25    1
    25    25    26    1
    26    26    27    1
    27    27    28    1
    28    27    29    1
    29    27    30    1
    30    30    31    1
    31    20    32    1
    32    32    33   ar
    33    33    34   ar
    34    34    35   ar
    35    35    36   ar
    36    36    37   ar
    37     9     4   ar
    38    16    10    1
    39    31    24    1
    40    37    32   ar
    41    17    12    1
    42     1    38    1
    43     1    39    1
    44     1    40    1
    45     2    41    1
    46     3    42    1
    47     3    43    1
    48     3    44    1
    49     8    45    1
    50     8    46    1
    51     8    47    1
    52    10    48    1
    53    11    49    1
    54    11    50    1
    55    12    51    1
    56    13    52    1
    57    13    53    1
    58    14    54    1
    59    14    55    1
    60    15    56    1
    61    16    57    1
    62    16    58    1
    63    18    59    1
    64    18    60    1
    65    19    61    1
    66    19    62    1
    67    20    63    1
    68    21    64    1
    69    24    65    1
    70    25    66    1
    71    25    67    1
    72    26    68    1
    73    26    69    1
    74    30    70    1
    75    30    71    1
    76    31    72    1
    77    31    73    1
    78    33    74    1
    79    34    75    1
    80    35    76    1
    81    36    77    1
    82    37    78    1
