
     RDKit          3D

 53 56  0  0  0  0  0  0  0  0999 V2000
    5.7293   -0.6953   -0.2253 C   0  0  0  0  0  0  0  0  0  0  0  0
    4.4552    0.0193   -0.4805 C   0  0  0  0  0  0  0  0  0  0  0  0
    4.5028    1.1043   -1.0040 O   0  0  0  0  0  0  0  0  0  0  0  0
    3.1889   -0.6011   -0.0961 C   0  0  1  0  0  0  0  0  0  0  0  0
    3.2438   -0.8908    1.4100 C   0  0  0  0  0  0  0  0  0  0  0  0
    1.8965   -0.4686    1.9630 C   0  0  0  0  0  0  0  0  0  0  0  0
    1.0722   -0.4498    0.7528 C   0  0  1  0  0  0  0  0  0  0  0  0
   -0.2549    0.1302    0.7676 C   0  0  2  0  0  0  0  0  0  0  0  0
   -1.1105   -0.2489    1.9568 C   0  0  0  0  0  0  0  0  0  0  0  0
   -2.2888    0.7200    1.8849 C   0  0  0  0  0  0  0  0  0  0  0  0
   -3.0333    0.2940    0.6607 C   0  0  0  0  0  0  0  0  0  0  0  0
   -4.3346    0.1498    0.7635 C   0  0  0  0  0  0  0  0  0  0  0  0
   -5.1811   -0.2630   -0.3599 C   0  0  0  0  0  0  0  0  0  0  0  0
   -6.3969   -0.0373   -0.4264 O   0  0  0  0  0  0  0  0  0  0  0  0
   -4.5169   -0.9910   -1.4664 C   0  0  0  0  0  0  0  0  0  0  0  0
   -3.0465   -1.1613   -1.2598 C   0  0  0  0  0  0  0  0  0  0  0  0
   -2.3752    0.0352   -0.6234 C   0  0  1  0  0  0  0  0  0  0  0  0
   -2.7042    1.2304   -1.5300 C   0  0  0  0  0  0  0  0  0  0  0  0
   -0.9196   -0.2317   -0.5610 C   0  0  1  0  0  0  0  0  0  0  0  0
   -0.1226    0.5801   -1.5929 C   0  0  0  0  0  0  0  0  0  0  0  0
    1.3125    0.1738   -1.5716 C   0  0  0  0  0  0  0  0  0  0  0  0
    1.9644    0.2811   -0.2438 C   0  0  2  0  0  0  0  0  0  0  0  0
    2.2864    1.6807    0.1185 C   0  0  0  0  0  0  0  0  0  0  0  0
    5.5664   -1.4956    0.5251 H   0  0  0  0  0  0  0  0  0  0  0  0
    6.5181   -0.0051    0.1595 H   0  0  0  0  0  0  0  0  0  0  0  0
    6.0843   -1.1020   -1.1925 H   0  0  0  0  0  0  0  0  0  0  0  0
    2.9737   -1.5372   -0.6607 H   0  0  0  0  0  0  0  0  0  0  0  0
    4.0789   -0.3503    1.8887 H   0  0  0  0  0  0  0  0  0  0  0  0
    3.3471   -1.9882    1.5194 H   0  0  0  0  0  0  0  0  0  0  0  0
    1.9499    0.5038    2.4811 H   0  0  0  0  0  0  0  0  0  0  0  0
    1.5261   -1.2671    2.6555 H   0  0  0  0  0  0  0  0  0  0  0  0
    1.0112   -1.5009    0.3542 H   0  0  0  0  0  0  0  0  0  0  0  0
   -0.2190    1.2363    0.7682 H   0  0  0  0  0  0  0  0  0  0  0  0
   -0.5345   -0.0363    2.8547 H   0  0  0  0  0  0  0  0  0  0  0  0
   -1.4903   -1.2806    1.8806 H   0  0  0  0  0  0  0  0  0  0  0  0
   -1.8586    1.7185    1.6635 H   0  0  0  0  0  0  0  0  0  0  0  0
   -2.8851    0.6645    2.7856 H   0  0  0  0  0  0  0  0  0  0  0  0
   -4.8453    0.3371    1.7129 H   0  0  0  0  0  0  0  0  0  0  0  0
   -4.9680   -2.0147   -1.4839 H   0  0  0  0  0  0  0  0  0  0  0  0
   -4.7364   -0.5559   -2.4629 H   0  0  0  0  0  0  0  0  0  0  0  0
   -2.5765   -1.2886   -2.2682 H   0  0  0  0  0  0  0  0  0  0  0  0
   -2.8272   -2.0460   -0.6150 H   0  0  0  0  0  0  0  0  0  0  0  0
   -2.4220    1.0456   -2.5721 H   0  0  0  0  0  0  0  0  0  0  0  0
   -2.2347    2.1457   -1.0935 H   0  0  0  0  0  0  0  0  0  0  0  0
   -3.7892    1.4090   -1.5073 H   0  0  0  0  0  0  0  0  0  0  0  0
   -0.6434   -1.2871   -0.7674 H   0  0  0  0  0  0  0  0  0  0  0  0
   -0.5191    0.3147   -2.6171 H   0  0  0  0  0  0  0  0  0  0  0  0
   -0.2926    1.6537   -1.4693 H   0  0  0  0  0  0  0  0  0  0  0  0
    1.4174   -0.8321   -2.0271 H   0  0  0  0  0  0  0  0  0  0  0  0
    1.8570    0.8662   -2.2723 H   0  0  0  0  0  0  0  0  0  0  0  0
    2.5074    2.2456   -0.8362 H   0  0  0  0  0  0  0  0  0  0  0  0
    1.4456    2.2783    0.5508 H   0  0  0  0  0  0  0  0  0  0  0  0
    3.1921    1.8086    0.7544 H   0  0  0  0  0  0  0  0  0  0  0  0
  1  2  1  0
  2  3  2  0
  2  4  1  0
  4  5  1  0
  5  6  1  0
  6  7  1  0
  7  8  1  0
  8  9  1  0
  9 10  1  0
 10 11  1  0
 11 12  2  0
 12 13  1  0
 13 14  2  0
 13 15  1  0
 15 16  1  0
 16 17  1  0
 17 18  1  6
 17 19  1  0
 19 20  1  0
 20 21  1  0
 21 22  1  0
 22 23  1  1
 22  4  1  0
 22  7  1  0
 19  8  1  0
 17 11  1  0
  1 24  1  0
  1 25  1  0
  1 26  1  0
  4 27  1  6
  5 28  1  0
  5 29  1  0
  6 30  1  0
  6 31  1  0
  7 32  1  6
  8 33  1  6
  9 34  1  0
  9 35  1  0
 10 36  1  0
 10 37  1  0
 12 38  1  0
 15 39  1  0
 15 40  1  0
 16 41  1  0
 16 42  1  0
 18 43  1  0
 18 44  1  0
 18 45  1  0
 19 46  1  6
 20 47  1  0
 20 48  1  0
 21 49  1  0
 21 50  1  0
 23 51  1  0
 23 52  1  0
 23 53  1  0
M  END
$$$$
