@<TRIPOS>MOLECULE
*****
 53 56 0 0 0
SMALL
GASTEIGER

@<TRIPOS>ATOM
      1 C           5.7293   -0.6953   -0.2253 C.3     1  UNL1       -0.0058
      2 C           4.4552    0.0193   -0.4805 C.2     1  UNL1        0.1339
      3 O           4.5028    1.1043   -1.0040 O.2     1  UNL1       -0.2974
      4 C           3.1889   -0.6011   -0.0961 C.3     1  UNL1        0.0229
      5 C           3.2438   -0.8908    1.4100 C.3     1  UNL1       -0.0427
      6 C           1.8965   -0.4686    1.9630 C.3     1  UNL1       -0.0488
      7 C           1.0722   -0.4498    0.7528 C.3     1  UNL1       -0.0319
      8 C          -0.2549    0.1302    0.7676 C.3     1  UNL1       -0.0338
      9 C          -1.1105   -0.2489    1.9568 C.3     1  UNL1       -0.0459
     10 C          -2.2888    0.7200    1.8849 C.3     1  UNL1       -0.0305
     11 C          -3.0333    0.2940    0.6607 C.2     1  UNL1       -0.0601
     12 C          -4.3346    0.1498    0.7635 C.2     1  UNL1       -0.0194
     13 C          -5.1811   -0.2630   -0.3599 C.2     1  UNL1        0.1561
     14 O          -6.3969   -0.0373   -0.4264 O.2     1  UNL1       -0.2927
     15 C          -4.5169   -0.9910   -1.4664 C.3     1  UNL1        0.0107
     16 C          -3.0465   -1.1613   -1.2598 C.3     1  UNL1       -0.0367
     17 C          -2.3752    0.0352   -0.6234 C.3     1  UNL1       -0.0072
     18 C          -2.7042    1.2304   -1.5300 C.3     1  UNL1       -0.0556
     19 C          -0.9196   -0.2317   -0.5610 C.3     1  UNL1       -0.0288
     20 C          -0.1226    0.5801   -1.5929 C.3     1  UNL1       -0.0486
     21 C           1.3125    0.1738   -1.5716 C.3     1  UNL1       -0.0464
     22 C           1.9644    0.2811   -0.2438 C.3     1  UNL1       -0.0195
     23 C           2.2864    1.6807    0.1185 C.3     1  UNL1       -0.0587
     24 H           5.5664   -1.4956    0.5251 H       1  UNL1        0.0306
     25 H           6.5181   -0.0051    0.1595 H       1  UNL1        0.0306
     26 H           6.0843   -1.1020   -1.1925 H       1  UNL1        0.0306
     27 H           2.9737   -1.5372   -0.6607 H       1  UNL1        0.0383
     28 H           4.0789   -0.3503    1.8887 H       1  UNL1        0.0272
     29 H           3.3471   -1.9882    1.5194 H       1  UNL1        0.0272
     30 H           1.9499    0.5038    2.4811 H       1  UNL1        0.0268
     31 H           1.5261   -1.2671    2.6555 H       1  UNL1        0.0268
     32 H           1.0112   -1.5009    0.3542 H       1  UNL1        0.0309
     33 H          -0.2190    1.2363    0.7682 H       1  UNL1        0.0307
     34 H          -0.5345   -0.0363    2.8547 H       1  UNL1        0.0271
     35 H          -1.4903   -1.2806    1.8806 H       1  UNL1        0.0271
     36 H          -1.8586    1.7185    1.6635 H       1  UNL1        0.0310
     37 H          -2.8851    0.6645    2.7856 H       1  UNL1        0.0310
     38 H          -4.8453    0.3371    1.7129 H       1  UNL1        0.0652
     39 H          -4.9680   -2.0147   -1.4839 H       1  UNL1        0.0345
     40 H          -4.7364   -0.5559   -2.4629 H       1  UNL1        0.0345
     41 H          -2.5765   -1.2886   -2.2682 H       1  UNL1        0.0278
     42 H          -2.8272   -2.0460   -0.6150 H       1  UNL1        0.0278
     43 H          -2.4220    1.0456   -2.5721 H       1  UNL1        0.0238
     44 H          -2.2347    2.1457   -1.0935 H       1  UNL1        0.0238
     45 H          -3.7892    1.4090   -1.5073 H       1  UNL1        0.0238
     46 H          -0.6434   -1.2871   -0.7674 H       1  UNL1        0.0312
     47 H          -0.5191    0.3147   -2.6171 H       1  UNL1        0.0268
     48 H          -0.2926    1.6537   -1.4693 H       1  UNL1        0.0268
     49 H           1.4174   -0.8321   -2.0271 H       1  UNL1        0.0271
     50 H           1.8570    0.8662   -2.2723 H       1  UNL1        0.0271
     51 H           2.5074    2.2456   -0.8362 H       1  UNL1        0.0235
     52 H           1.4456    2.2783    0.5508 H       1  UNL1        0.0235
     53 H           3.1921    1.8086    0.7544 H       1  UNL1        0.0235
@<TRIPOS>BOND
     1     1     2    1
     2     2     3    2
     3     2     4    1
     4     4     5    1
     5     5     6    1
     6     6     7    1
     7     7     8    1
     8     8     9    1
     9     9    10    1
    10    10    11    1
    11    11    12    2
    12    12    13    1
    13    13    14    2
    14    13    15    1
    15    15    16    1
    16    16    17    1
    17    17    18    1
    18    17    19    1
    19    19    20    1
    20    20    21    1
    21    21    22    1
    22    22    23    1
    23    22     4    1
    24    22     7    1
    25    19     8    1
    26    17    11    1
    27     1    24    1
    28     1    25    1
    29     1    26    1
    30     4    27    1
    31     5    28    1
    32     5    29    1
    33     6    30    1
    34     6    31    1
    35     7    32    1
    36     8    33    1
    37     9    34    1
    38     9    35    1
    39    10    36    1
    40    10    37    1
    41    12    38    1
    42    15    39    1
    43    15    40    1
    44    16    41    1
    45    16    42    1
    46    18    43    1
    47    18    44    1
    48    18    45    1
    49    19    46    1
    50    20    47    1
    51    20    48    1
    52    21    49    1
    53    21    50    1
    54    23    51    1
    55    23    52    1
    56    23    53    1
