@<TRIPOS>MOLECULE
*****
 30 30 0 0 0
SMALL
GASTEIGER

@<TRIPOS>ATOM
      1 C           4.1919    1.4643   -1.1552 C.3     1  UNL1       -0.0395
      2 C           2.9657    0.7473   -0.7169 C.ar    1  UNL1       -0.0439
      3 C           2.9875   -0.1097    0.3551 C.ar    1  UNL1        0.0204
      4 C           1.8388   -0.7590    0.7388 C.ar    1  UNL1        0.2939
      5 C           0.6354   -0.6027    0.1023 C.ar    1  UNL1        0.1053
      6 N          -0.5172   -1.3028    0.5240 N.pl3   1  UNL1       -0.3386
      7 C          -1.8608   -1.2546   -0.0095 C.3     1  UNL1        0.0105
      8 C          -2.5367    0.0594    0.2401 C.3     1  UNL1       -0.0251
      9 C          -3.9499    0.0389   -0.3528 C.3     1  UNL1       -0.0055
     10 N          -4.5562    1.3399   -0.0797 N.3     1  UNL1       -0.3299
     11 C           0.6652    0.2650   -0.9646 C.ar    1  UNL1       -0.0340
     12 C           1.7856    0.9370   -1.3867 C.ar    1  UNL1       -0.0567
     13 N           2.0090   -1.6128    1.8582 N.pl3   1  UNL1        0.0815
     14 O           1.5087   -2.7283    2.4300 O.co2   1  UNL1       -0.5760
     15 O           2.8688   -1.4471    2.7409 O.2     1  UNL1        0.0415
     16 H           4.0989    1.8503   -2.1835 H       1  UNL1        0.0278
     17 H           4.4749    2.2601   -0.4221 H       1  UNL1        0.0278
     18 H           5.0283    0.7174   -1.0711 H       1  UNL1        0.0278
     19 H           3.9369   -0.2314    0.8548 H       1  UNL1        0.0688
     20 H          -0.3988   -1.9596    1.3457 H       1  UNL1        0.1463
     21 H          -2.5015   -2.0572    0.4085 H       1  UNL1        0.0461
     22 H          -1.8093   -1.4766   -1.1208 H       1  UNL1        0.0461
     23 H          -2.6466    0.1415    1.3572 H       1  UNL1        0.0292
     24 H          -2.0281    0.9291   -0.1575 H       1  UNL1        0.0292
     25 H          -4.5450   -0.7836    0.0544 H       1  UNL1        0.0422
     26 H          -3.8655   -0.0534   -1.4509 H       1  UNL1        0.0422
     27 H          -3.9062    2.1088   -0.2583 H       1  UNL1        0.1182
     28 H          -5.4476    1.4466   -0.6225 H       1  UNL1        0.1182
     29 H          -0.2129    0.4603   -1.5466 H       1  UNL1        0.0638
     30 H           1.7865    1.6130   -2.2258 H       1  UNL1        0.0621
@<TRIPOS>UNITY_ATOM_ATTR
13 1
charge 1
14 1
charge -1
@<TRIPOS>BOND
     1     1     2    1
     2     2     3   ar
     3     3     4   ar
     4     4     5   ar
     5     5     6    1
     6     6     7    1
     7     7     8    1
     8     8     9    1
     9     9    10    1
    10     5    11   ar
    11    11    12   ar
    12     4    13    1
    13    13    14    1
    14    13    15    2
    15    12     2   ar
    16     1    16    1
    17     1    17    1
    18     1    18    1
    19     3    19    1
    20     6    20    1
    21     7    21    1
    22     7    22    1
    23     8    23    1
    24     8    24    1
    25     9    25    1
    26     9    26    1
    27    10    27    1
    28    10    28    1
    29    11    29    1
    30    12    30    1
