
     RDKit          3D

 57 61  0  0  0  0  0  0  0  0999 V2000
    2.3752   -1.3135   -0.8461 C   0  0  0  0  0  0  0  0  0  0  0  0
    1.4631   -0.1024   -1.0908 C   0  0  2  0  0  0  0  0  0  0  0  0
    0.1642   -0.6751   -1.5663 C   0  0  0  0  0  0  0  0  0  0  0  0
   -1.0310   -0.4534   -0.9232 C   0  0  0  0  0  0  0  0  0  0  0  0
   -2.2194   -0.9862   -1.3720 C   0  0  0  0  0  0  0  0  0  0  0  0
   -3.4997   -0.7567   -0.6786 C   0  0  0  0  0  0  0  0  0  0  0  0
   -4.6261   -0.5212   -1.3108 C   0  0  0  0  0  0  0  0  0  0  0  0
   -4.5697   -0.4925   -2.6658 F   0  0  0  0  0  0  0  0  0  0  0  0
   -5.9095   -0.3015   -0.6554 C   0  0  0  0  0  0  0  0  0  0  0  0
   -7.0250   -0.0547   -1.4250 C   0  0  0  0  0  0  0  0  0  0  0  0
   -8.2701    0.1545   -0.8504 C   0  0  0  0  0  0  0  0  0  0  0  0
   -8.4074    0.1164    0.5289 C   0  0  0  0  0  0  0  0  0  0  0  0
   -9.7103    0.3354    1.0923 C   0  0  0  0  0  0  0  0  0  0  0  0
  -10.7663    0.5309    1.5449 N   0  0  0  0  0  0  0  0  0  0  0  0
   -7.2787   -0.1315    1.2705 C   0  0  0  0  0  0  0  0  0  0  0  0
   -6.0747   -0.3320    0.6786 N   0  0  0  0  0  0  0  0  0  0  0  0
   -2.1682   -1.7647   -2.5101 C   0  0  0  0  0  0  0  0  0  0  0  0
   -0.9919   -2.0165   -3.1919 C   0  0  0  0  0  0  0  0  0  0  0  0
    0.1679   -1.4583   -2.6988 C   0  0  0  0  0  0  0  0  0  0  0  0
    1.3118   -1.7229   -3.3951 F   0  0  0  0  0  0  0  0  0  0  0  0
    1.9462    0.7105   -2.1653 N   0  0  0  0  0  0  0  0  0  0  0  0
    2.9456    1.4878   -2.0547 C   0  0  0  0  0  0  0  0  0  0  0  0
    3.3896    2.2690   -3.1354 N   0  0  0  0  0  0  0  0  0  0  0  0
    3.7523    1.5573   -0.4652 S   0  0  0  0  0  0  0  0  0  0  0  0
    2.4166    1.3065    0.7598 C   0  0  1  0  0  0  0  0  0  0  0  0
    2.8370    1.1457    2.1584 C   0  0  0  0  0  0  0  0  0  0  0  0
    2.0590    1.5611    3.0503 O   0  0  0  0  0  0  0  0  0  0  0  0
    4.0634    0.5511    2.5223 N   0  0  0  0  0  0  0  0  0  0  0  0
    4.5111    0.3601    3.8907 C   0  0  0  0  0  0  0  0  0  0  0  0
    5.9962    0.1186    3.7947 C   0  0  0  0  0  0  0  0  0  0  0  0
    6.0790   -0.6828    2.4964 C   0  0  0  0  0  0  0  0  0  0  0  0
    5.7133   -1.9677    2.7656 F   0  0  0  0  0  0  0  0  0  0  0  0
    7.3590   -0.6541    2.0064 F   0  0  0  0  0  0  0  0  0  0  0  0
    5.0894    0.0412    1.6180 C   0  0  0  0  0  0  0  0  0  0  0  0
    1.1468    2.0131    0.4160 C   0  0  0  0  0  0  0  0  0  0  0  0
    1.2772    0.5650    0.2258 C   0  0  1  0  0  0  0  0  0  0  0  0
    2.5246   -1.5054    0.2288 H   0  0  0  0  0  0  0  0  0  0  0  0
    3.3451   -1.1938   -1.3682 H   0  0  0  0  0  0  0  0  0  0  0  0
    1.9329   -2.2428   -1.2572 H   0  0  0  0  0  0  0  0  0  0  0  0
   -1.0609    0.1585   -0.0329 H   0  0  0  0  0  0  0  0  0  0  0  0
   -3.5137   -0.7829    0.3989 H   0  0  0  0  0  0  0  0  0  0  0  0
   -6.9792   -0.0134   -2.5040 H   0  0  0  0  0  0  0  0  0  0  0  0
   -9.1510    0.3475   -1.4466 H   0  0  0  0  0  0  0  0  0  0  0  0
   -7.3881   -0.1608    2.3522 H   0  0  0  0  0  0  0  0  0  0  0  0
   -3.1015   -2.2081   -2.8880 H   0  0  0  0  0  0  0  0  0  0  0  0
   -0.9794   -2.6392   -4.0951 H   0  0  0  0  0  0  0  0  0  0  0  0
    4.3511    2.7092   -3.1727 H   0  0  0  0  0  0  0  0  0  0  0  0
    2.7876    2.4651   -3.9807 H   0  0  0  0  0  0  0  0  0  0  0  0
    4.0096   -0.5126    4.3295 H   0  0  0  0  0  0  0  0  0  0  0  0
    4.2720    1.2535    4.5085 H   0  0  0  0  0  0  0  0  0  0  0  0
    6.3860   -0.4303    4.6603 H   0  0  0  0  0  0  0  0  0  0  0  0
    6.5284    1.0858    3.6109 H   0  0  0  0  0  0  0  0  0  0  0  0
    4.6374   -0.5998    0.8524 H   0  0  0  0  0  0  0  0  0  0  0  0
    5.6341    0.9260    1.1851 H   0  0  0  0  0  0  0  0  0  0  0  0
    1.0925    2.6131   -0.5311 H   0  0  0  0  0  0  0  0  0  0  0  0
    0.4586    2.3799    1.1801 H   0  0  0  0  0  0  0  0  0  0  0  0
    0.6981   -0.0858    0.9487 H   0  0  0  0  0  0  0  0  0  0  0  0
  2  1  1  1
  2  3  1  0
  3  4  2  0
  4  5  1  0
  5  6  1  0
  6  7  2  0
  7  8  1  0
  7  9  1  0
  9 10  2  0
 10 11  1  0
 11 12  2  0
 12 13  1  0
 13 14  3  0
 12 15  1  0
 15 16  2  0
  5 17  2  0
 17 18  1  0
 18 19  2  0
 19 20  1  0
  2 21  1  0
 21 22  2  0
 22 23  1  0
 22 24  1  0
 24 25  1  0
 25 26  1  1
 26 27  2  0
 26 28  1  0
 28 29  1  0
 29 30  1  0
 30 31  1  0
 31 32  1  0
 31 33  1  0
 31 34  1  0
 25 35  1  0
 35 36  1  0
 36  2  1  0
 19  3  1  0
 36 25  1  0
 16  9  1  0
 34 28  1  0
  1 37  1  0
  1 38  1  0
  1 39  1  0
  4 40  1  0
  6 41  1  0
 10 42  1  0
 11 43  1  0
 15 44  1  0
 17 45  1  0
 18 46  1  0
 23 47  1  0
 23 48  1  0
 29 49  1  0
 29 50  1  0
 30 51  1  0
 30 52  1  0
 34 53  1  0
 34 54  1  0
 35 55  1  0
 35 56  1  0
 36 57  1  1
M  END
$$$$
