@<TRIPOS>MOLECULE
*****
 57 61 0 0 0
SMALL
GASTEIGER

@<TRIPOS>ATOM
      1 C           2.3752   -1.3135   -0.8461 C.3     1  UNL1       -0.0351
      2 C           1.4631   -0.1024   -1.0908 C.3     1  UNL1        0.0935
      3 C           0.1642   -0.6751   -1.5663 C.ar    1  UNL1        0.0158
      4 C          -1.0310   -0.4534   -0.9232 C.ar    1  UNL1       -0.0463
      5 C          -2.2194   -0.9862   -1.3720 C.ar    1  UNL1       -0.0217
      6 C          -3.4997   -0.7567   -0.6786 C.2     1  UNL1       -0.0172
      7 C          -4.6261   -0.5212   -1.3108 C.2     1  UNL1        0.1492
      8 F          -4.5697   -0.4925   -2.6658 F       1  UNL1       -0.2032
      9 C          -5.9095   -0.3015   -0.6554 C.ar    1  UNL1        0.0990
     10 C          -7.0250   -0.0547   -1.4250 C.ar    1  UNL1       -0.0322
     11 C          -8.2701    0.1545   -0.8504 C.ar    1  UNL1       -0.0408
     12 C          -8.4074    0.1164    0.5289 C.ar    1  UNL1        0.0699
     13 C          -9.7103    0.3354    1.0923 C.1     1  UNL1        0.1007
     14 N         -10.7663    0.5309    1.5449 N.1     1  UNL1       -0.1908
     15 C          -7.2787   -0.1315    1.2705 C.ar    1  UNL1        0.0457
     16 N          -6.0747   -0.3320    0.6786 N.ar    1  UNL1       -0.2514
     17 C          -2.1682   -1.7647   -2.5101 C.ar    1  UNL1       -0.0518
     18 C          -0.9919   -2.0165   -3.1919 C.ar    1  UNL1       -0.0255
     19 C           0.1679   -1.4583   -2.6988 C.ar    1  UNL1        0.1289
     20 F           1.3118   -1.7229   -3.3951 F       1  UNL1       -0.2051
     21 N           1.9462    0.7105   -2.1653 N.2     1  UNL1       -0.2521
     22 C           2.9456    1.4878   -2.0547 C.2     1  UNL1        0.1485
     23 N           3.3896    2.2690   -3.1354 N.pl3   1  UNL1       -0.3380
     24 S           3.7523    1.5573   -0.4652 S.3     1  UNL1       -0.0746
     25 C           2.4166    1.3065    0.7598 C.3     1  UNL1        0.1054
     26 C           2.8370    1.1457    2.1584 C.2     1  UNL1        0.2326
     27 O           2.0590    1.5611    3.0503 O.2     1  UNL1       -0.2741
     28 N           4.0634    0.5511    2.5223 N.am    1  UNL1       -0.2944
     29 C           4.5111    0.3601    3.8907 C.3     1  UNL1        0.0204
     30 C           5.9962    0.1186    3.7947 C.3     1  UNL1        0.0281
     31 C           6.0790   -0.6828    2.4964 C.3     1  UNL1        0.2657
     32 F           5.7133   -1.9677    2.7656 F       1  UNL1       -0.2039
     33 F           7.3590   -0.6541    2.0064 F       1  UNL1       -0.2039
     34 C           5.0894    0.0412    1.6180 C.3     1  UNL1        0.0781
     35 C           1.1468    2.0131    0.4160 C.3     1  UNL1       -0.0220
     36 C           1.2772    0.5650    0.2258 C.3     1  UNL1        0.0134
     37 H           2.5246   -1.5054    0.2288 H       1  UNL1        0.0256
     38 H           3.3451   -1.1938   -1.3682 H       1  UNL1        0.0256
     39 H           1.9329   -2.2428   -1.2572 H       1  UNL1        0.0256
     40 H          -1.0609    0.1585   -0.0329 H       1  UNL1        0.0628
     41 H          -3.5137   -0.7829    0.3989 H       1  UNL1        0.0653
     42 H          -6.9792   -0.0134   -2.5040 H       1  UNL1        0.0640
     43 H          -9.1510    0.3475   -1.4466 H       1  UNL1        0.0631
     44 H          -7.3881   -0.1608    2.3522 H       1  UNL1        0.0843
     45 H          -3.1015   -2.2081   -2.8880 H       1  UNL1        0.0624
     46 H          -0.9794   -2.6392   -4.0951 H       1  UNL1        0.0646
     47 H           4.3511    2.7092   -3.1727 H       1  UNL1        0.1442
     48 H           2.7876    2.4651   -3.9807 H       1  UNL1        0.1442
     49 H           4.0096   -0.5126    4.3295 H       1  UNL1        0.0466
     50 H           4.2720    1.2535    4.5085 H       1  UNL1        0.0466
     51 H           6.3860   -0.4303    4.6603 H       1  UNL1        0.0338
     52 H           6.5284    1.0858    3.6109 H       1  UNL1        0.0338
     53 H           4.6374   -0.5998    0.8524 H       1  UNL1        0.0523
     54 H           5.6341    0.9260    1.1851 H       1  UNL1        0.0523
     55 H           1.0925    2.6131   -0.5311 H       1  UNL1        0.0287
     56 H           0.4586    2.3799    1.1801 H       1  UNL1        0.0287
     57 H           0.6981   -0.0858    0.9487 H       1  UNL1        0.0346
@<TRIPOS>BOND
     1     2     1    1
     2     2     3    1
     3     3     4   ar
     4     4     5   ar
     5     5     6    1
     6     6     7    2
     7     7     8    1
     8     7     9    1
     9     9    10   ar
    10    10    11   ar
    11    11    12   ar
    12    12    13    1
    13    13    14    3
    14    12    15   ar
    15    15    16   ar
    16     5    17   ar
    17    17    18   ar
    18    18    19   ar
    19    19    20    1
    20     2    21    1
    21    21    22    2
    22    22    23    1
    23    22    24    1
    24    24    25    1
    25    25    26    1
    26    26    27    2
    27    26    28   am
    28    28    29    1
    29    29    30    1
    30    30    31    1
    31    31    32    1
    32    31    33    1
    33    31    34    1
    34    25    35    1
    35    35    36    1
    36    36     2    1
    37    19     3   ar
    38    36    25    1
    39    16     9   ar
    40    34    28    1
    41     1    37    1
    42     1    38    1
    43     1    39    1
    44     4    40    1
    45     6    41    1
    46    10    42    1
    47    11    43    1
    48    15    44    1
    49    17    45    1
    50    18    46    1
    51    23    47    1
    52    23    48    1
    53    29    49    1
    54    29    50    1
    55    30    51    1
    56    30    52    1
    57    34    53    1
    58    34    54    1
    59    35    55    1
    60    35    56    1
    61    36    57    1
