
     RDKit          3D

 55 58  0  0  0  0  0  0  0  0999 V2000
    2.5606   -1.3862   -1.8067 C   0  0  0  0  0  0  0  0  0  0  0  0
    3.7106   -0.4059   -1.8593 C   0  0  0  0  0  0  0  0  0  0  0  0
    3.7259    0.4895   -0.7227 N   0  0  0  0  0  0  0  0  0  0  0  0
    3.0886    1.7009   -0.6609 C   0  0  0  0  0  0  0  0  0  0  0  0
    2.2818    2.2652   -1.7943 C   0  0  0  0  0  0  0  0  0  0  0  0
    0.9262    1.8698   -1.8042 N   0  0  0  0  0  0  0  0  0  0  0  0
   -0.0483    2.3319   -0.8885 C   0  0  0  0  0  0  0  0  0  0  0  0
    0.1916    3.2738    0.0845 C   0  0  0  0  0  0  0  0  0  0  0  0
   -0.8077    3.6775    0.9770 C   0  0  0  0  0  0  0  0  0  0  0  0
   -2.0752    3.1506    0.9206 C   0  0  0  0  0  0  0  0  0  0  0  0
   -2.3328    2.2016   -0.0544 C   0  0  0  0  0  0  0  0  0  0  0  0
   -3.6885    1.6399   -0.1148 C   0  0  0  0  0  0  0  0  0  0  0  0
   -4.5535    2.0255    0.7193 O   0  0  0  0  0  0  0  0  0  0  0  0
   -4.1064    0.6815   -1.0546 N   0  0  0  0  0  0  0  0  0  0  0  0
   -5.4289    0.1118   -1.1353 C   0  0  0  0  0  0  0  0  0  0  0  0
   -5.6480   -0.9208   -0.1056 C   0  0  0  0  0  0  0  0  0  0  0  0
   -5.2777   -2.2318   -0.3590 C   0  0  0  0  0  0  0  0  0  0  0  0
   -5.4815   -3.2143    0.5799 C   0  0  0  0  0  0  0  0  0  0  0  0
   -6.0562   -2.9458    1.8020 C   0  0  0  0  0  0  0  0  0  0  0  0
   -6.4273   -1.6497    2.0638 C   0  0  0  0  0  0  0  0  0  0  0  0
   -6.2190   -0.6501    1.1060 C   0  0  0  0  0  0  0  0  0  0  0  0
   -1.3522    1.8071   -0.9278 C   0  0  0  0  0  0  0  0  0  0  0  0
    3.3635    2.1902    0.5496 N   0  0  0  0  0  0  0  0  0  0  0  0
    4.1272    1.3387    1.2100 N   0  0  0  0  0  0  0  0  0  0  0  0
    4.3591    0.2710    0.4212 C   0  0  0  0  0  0  0  0  0  0  0  0
    5.1648   -0.9196    0.7675 C   0  0  0  0  0  0  0  0  0  0  0  0
    6.4859   -1.0462    0.4015 C   0  0  0  0  0  0  0  0  0  0  0  0
    7.1771   -2.2028    0.7676 C   0  0  0  0  0  0  0  0  0  0  0  0
    6.6055   -3.1985    1.4631 N   0  0  0  0  0  0  0  0  0  0  0  0
    5.3067   -3.0734    1.8225 C   0  0  0  0  0  0  0  0  0  0  0  0
    4.5824   -1.9425    1.4804 C   0  0  0  0  0  0  0  0  0  0  0  0
    1.9044   -1.2856   -2.6897 H   0  0  0  0  0  0  0  0  0  0  0  0
    1.9731   -1.3118   -0.8734 H   0  0  0  0  0  0  0  0  0  0  0  0
    2.9676   -2.4256   -1.8349 H   0  0  0  0  0  0  0  0  0  0  0  0
    3.5805    0.2099   -2.7710 H   0  0  0  0  0  0  0  0  0  0  0  0
    4.6751   -0.9624   -1.9541 H   0  0  0  0  0  0  0  0  0  0  0  0
    2.8100    2.0958   -2.7656 H   0  0  0  0  0  0  0  0  0  0  0  0
    2.3216    3.3810   -1.6349 H   0  0  0  0  0  0  0  0  0  0  0  0
    0.6290    1.1806   -2.5519 H   0  0  0  0  0  0  0  0  0  0  0  0
    1.1827    3.7226    0.1452 H   0  0  0  0  0  0  0  0  0  0  0  0
   -0.5878    4.4186    1.7304 H   0  0  0  0  0  0  0  0  0  0  0  0
   -2.8583    3.4515    1.6025 H   0  0  0  0  0  0  0  0  0  0  0  0
   -3.4021    0.3359   -1.7729 H   0  0  0  0  0  0  0  0  0  0  0  0
   -5.5866   -0.3383   -2.1587 H   0  0  0  0  0  0  0  0  0  0  0  0
   -6.1628    0.9538   -0.9891 H   0  0  0  0  0  0  0  0  0  0  0  0
   -4.8224   -2.4286   -1.3350 H   0  0  0  0  0  0  0  0  0  0  0  0
   -5.1789   -4.2195    0.3420 H   0  0  0  0  0  0  0  0  0  0  0  0
   -6.2157   -3.7194    2.5390 H   0  0  0  0  0  0  0  0  0  0  0  0
   -6.8832   -1.4215    3.0266 H   0  0  0  0  0  0  0  0  0  0  0  0
   -6.5490    0.3355    1.3998 H   0  0  0  0  0  0  0  0  0  0  0  0
   -1.5309    1.0687   -1.6947 H   0  0  0  0  0  0  0  0  0  0  0  0
    6.9623   -0.2658   -0.1528 H   0  0  0  0  0  0  0  0  0  0  0  0
    8.2112   -2.3234    0.4920 H   0  0  0  0  0  0  0  0  0  0  0  0
    4.8671   -3.8694    2.3730 H   0  0  0  0  0  0  0  0  0  0  0  0
    3.5387   -1.8216    1.7589 H   0  0  0  0  0  0  0  0  0  0  0  0
  1  2  1  0
  2  3  1  0
  3  4  1  0
  4  5  1  0
  5  6  1  0
  6  7  1  0
  7  8  2  0
  8  9  1  0
  9 10  2  0
 10 11  1  0
 11 12  1  0
 12 13  2  0
 12 14  1  0
 14 15  1  0
 15 16  1  0
 16 17  2  0
 17 18  1  0
 18 19  2  0
 19 20  1  0
 20 21  2  0
 11 22  2  0
  4 23  2  0
 23 24  1  0
 24 25  2  0
 25 26  1  0
 26 27  2  0
 27 28  1  0
 28 29  2  0
 29 30  1  0
 30 31  2  0
 25  3  1  0
 31 26  1  0
 22  7  1  0
 21 16  1  0
  1 32  1  0
  1 33  1  0
  1 34  1  0
  2 35  1  0
  2 36  1  0
  5 37  1  0
  5 38  1  0
  6 39  1  0
  8 40  1  0
  9 41  1  0
 10 42  1  0
 14 43  1  0
 15 44  1  0
 15 45  1  0
 17 46  1  0
 18 47  1  0
 19 48  1  0
 20 49  1  0
 21 50  1  0
 22 51  1  0
 27 52  1  0
 28 53  1  0
 30 54  1  0
 31 55  1  0
M  END
$$$$
