@<TRIPOS>MOLECULE
*****
 55 58 0 0 0
SMALL
GASTEIGER

@<TRIPOS>ATOM
      1 C           2.5606   -1.3862   -1.8067 C.3     1  UNL1       -0.0470
      2 C           3.7106   -0.4059   -1.8593 C.3     1  UNL1        0.0236
      3 N           3.7259    0.4895   -0.7227 N.ar    1  UNL1       -0.3099
      4 C           3.0886    1.7009   -0.6609 C.ar    1  UNL1        0.1509
      5 C           2.2818    2.2652   -1.7943 C.3     1  UNL1        0.0692
      6 N           0.9262    1.8698   -1.8042 N.pl3   1  UNL1       -0.3367
      7 C          -0.0483    2.3319   -0.8885 C.ar    1  UNL1        0.0282
      8 C           0.1916    3.2738    0.0845 C.ar    1  UNL1       -0.0408
      9 C          -0.8077    3.6775    0.9770 C.ar    1  UNL1       -0.0593
     10 C          -2.0752    3.1506    0.9206 C.ar    1  UNL1       -0.0495
     11 C          -2.3328    2.2016   -0.0544 C.ar    1  UNL1        0.0384
     12 C          -3.6885    1.6399   -0.1148 C.2     1  UNL1        0.2444
     13 O          -4.5535    2.0255    0.7193 O.2     1  UNL1       -0.2702
     14 N          -4.1064    0.6815   -1.0546 N.am    1  UNL1       -0.3072
     15 C          -5.4289    0.1118   -1.1353 C.3     1  UNL1        0.0371
     16 C          -5.6480   -0.9208   -0.1056 C.ar    1  UNL1       -0.0303
     17 C          -5.2777   -2.2318   -0.3590 C.ar    1  UNL1       -0.0571
     18 C          -5.4815   -3.2143    0.5799 C.ar    1  UNL1       -0.0615
     19 C          -6.0562   -2.9458    1.8020 C.ar    1  UNL1       -0.0617
     20 C          -6.4273   -1.6497    2.0638 C.ar    1  UNL1       -0.0615
     21 C          -6.2190   -0.6501    1.1060 C.ar    1  UNL1       -0.0571
     22 C          -1.3522    1.8071   -0.9278 C.ar    1  UNL1       -0.0287
     23 N           3.3635    2.1902    0.5496 N.ar    1  UNL1       -0.1324
     24 N           4.1272    1.3387    1.2100 N.ar    1  UNL1       -0.1291
     25 C           4.3591    0.2710    0.4212 C.ar    1  UNL1        0.1644
     26 C           5.1648   -0.9196    0.7675 C.ar    1  UNL1        0.0221
     27 C           6.4859   -1.0462    0.4015 C.ar    1  UNL1       -0.0329
     28 C           7.1771   -2.2028    0.7676 C.ar    1  UNL1        0.0282
     29 N           6.6055   -3.1985    1.4631 N.ar    1  UNL1       -0.2632
     30 C           5.3067   -3.0734    1.8225 C.ar    1  UNL1        0.0282
     31 C           4.5824   -1.9425    1.4804 C.ar    1  UNL1       -0.0329
     32 H           1.9044   -1.2856   -2.6897 H       1  UNL1        0.0247
     33 H           1.9731   -1.3118   -0.8734 H       1  UNL1        0.0247
     34 H           2.9676   -2.4256   -1.8349 H       1  UNL1        0.0247
     35 H           3.5805    0.2099   -2.7710 H       1  UNL1        0.0490
     36 H           4.6751   -0.9624   -1.9541 H       1  UNL1        0.0490
     37 H           2.8100    2.0958   -2.7656 H       1  UNL1        0.0542
     38 H           2.3216    3.3810   -1.6349 H       1  UNL1        0.0542
     39 H           0.6290    1.1806   -2.5519 H       1  UNL1        0.1465
     40 H           1.1827    3.7226    0.1452 H       1  UNL1        0.0636
     41 H          -0.5878    4.4186    1.7304 H       1  UNL1        0.0618
     42 H          -2.8583    3.4515    1.6025 H       1  UNL1        0.0625
     43 H          -3.4021    0.3359   -1.7729 H       1  UNL1        0.1493
     44 H          -5.5866   -0.3383   -2.1587 H       1  UNL1        0.0512
     45 H          -6.1628    0.9538   -0.9891 H       1  UNL1        0.0512
     46 H          -4.8224   -2.4286   -1.3350 H       1  UNL1        0.0621
     47 H          -5.1789   -4.2195    0.3420 H       1  UNL1        0.0618
     48 H          -6.2157   -3.7194    2.5390 H       1  UNL1        0.0618
     49 H          -6.8832   -1.4215    3.0266 H       1  UNL1        0.0618
     50 H          -6.5490    0.3355    1.3998 H       1  UNL1        0.0621
     51 H          -1.5309    1.0687   -1.6947 H       1  UNL1        0.0643
     52 H           6.9623   -0.2658   -0.1528 H       1  UNL1        0.0640
     53 H           8.2112   -2.3234    0.4920 H       1  UNL1        0.0830
     54 H           4.8671   -3.8694    2.3730 H       1  UNL1        0.0830
     55 H           3.5387   -1.8216    1.7589 H       1  UNL1        0.0640
@<TRIPOS>BOND
     1     1     2    1
     2     2     3    1
     3     3     4   ar
     4     4     5    1
     5     5     6    1
     6     6     7    1
     7     7     8   ar
     8     8     9   ar
     9     9    10   ar
    10    10    11   ar
    11    11    12    1
    12    12    13    2
    13    12    14   am
    14    14    15    1
    15    15    16    1
    16    16    17   ar
    17    17    18   ar
    18    18    19   ar
    19    19    20   ar
    20    20    21   ar
    21    11    22   ar
    22     4    23   ar
    23    23    24   ar
    24    24    25   ar
    25    25    26    1
    26    26    27   ar
    27    27    28   ar
    28    28    29   ar
    29    29    30   ar
    30    30    31   ar
    31    25     3   ar
    32    31    26   ar
    33    22     7   ar
    34    21    16   ar
    35     1    32    1
    36     1    33    1
    37     1    34    1
    38     2    35    1
    39     2    36    1
    40     5    37    1
    41     5    38    1
    42     6    39    1
    43     8    40    1
    44     9    41    1
    45    10    42    1
    46    14    43    1
    47    15    44    1
    48    15    45    1
    49    17    46    1
    50    18    47    1
    51    19    48    1
    52    20    49    1
    53    21    50    1
    54    22    51    1
    55    27    52    1
    56    28    53    1
    57    30    54    1
    58    31    55    1
