@<TRIPOS>MOLECULE
*****
 55 59 0 0 0
SMALL
GASTEIGER

@<TRIPOS>ATOM
      1 O          -2.5129   -4.0105    1.6567 O.2     1  UNL1       -0.2817
      2 C          -2.7494   -2.7855    1.6386 C.2     1  UNL1        0.2496
      3 C          -4.0277   -2.1946    2.0187 C.2     1  UNL1        0.2915
      4 O          -5.0844   -2.7519    2.4158 O.2     1  UNL1       -0.2661
      5 N          -3.8823   -0.7714    1.8574 N.am    1  UNL1       -0.2598
      6 C          -4.9297    0.1907    2.1310 C.3     1  UNL1        0.0452
      7 C          -5.7734    0.4625    0.9377 C.ar    1  UNL1       -0.0295
      8 C          -6.9016   -0.2934    0.6882 C.ar    1  UNL1       -0.0543
      9 C          -7.7101   -0.0691   -0.4116 C.ar    1  UNL1       -0.0261
     10 C          -7.4046    0.9391   -1.3102 C.ar    1  UNL1        0.1234
     11 F          -8.1902    1.1768   -2.4026 F       1  UNL1       -0.2055
     12 C          -6.2867    1.6965   -1.0732 C.ar    1  UNL1       -0.0261
     13 C          -5.4745    1.4646    0.0397 C.ar    1  UNL1       -0.0543
     14 C          -2.5703   -0.4735    1.3957 C.ar    1  UNL1        0.0481
     15 C          -1.9135    0.7048    1.0830 C.ar    1  UNL1       -0.0377
     16 C          -0.5889    0.6795    0.6426 C.ar    1  UNL1       -0.0335
     17 C           0.1039   -0.5064    0.5052 C.ar    1  UNL1        0.1063
     18 S           1.7726   -0.5204   -0.0510 S.O2    1  UNL1        0.0612
     19 O           2.3972    0.7489    0.4587 O.2     1  UNL1       -0.1528
     20 O           2.4196   -1.7318    0.5339 O.2     1  UNL1       -0.1528
     21 N           1.7712   -0.6457   -1.7371 N.3     1  UNL1       -0.1702
     22 C           1.1333    0.4347   -2.4611 C.3     1  UNL1        0.0225
     23 C           2.2956    0.3479   -3.4593 C.3     1  UNL1       -0.0180
     24 C           2.9844   -0.5765   -2.4464 C.3     1  UNL1        0.0671
     25 C           4.1639    0.0708   -1.8301 C.3     1  UNL1        0.1067
     26 O           4.5056   -0.6010   -0.6399 O.3     1  UNL1       -0.4904
     27 C           5.5968   -0.1311    0.0820 C.ar    1  UNL1        0.1206
     28 C           6.3364    0.9480   -0.3242 C.ar    1  UNL1       -0.0199
     29 C           7.4108    1.3748    0.4288 C.ar    1  UNL1       -0.0583
     30 C           7.7690    0.7366    1.5986 C.ar    1  UNL1       -0.0615
     31 C           7.0307   -0.3591    2.0260 C.ar    1  UNL1       -0.0583
     32 C           5.9528   -0.7662    1.2456 C.ar    1  UNL1       -0.0199
     33 C          -0.5676   -1.6655    0.8213 C.ar    1  UNL1       -0.0226
     34 C          -1.8760   -1.6785    1.2593 C.ar    1  UNL1        0.0502
     35 H          -5.5947   -0.1475    2.9548 H       1  UNL1        0.0518
     36 H          -4.4383    1.1236    2.5110 H       1  UNL1        0.0518
     37 H          -7.1206   -1.0770    1.4055 H       1  UNL1        0.0622
     38 H          -8.5910   -0.6646   -0.6001 H       1  UNL1        0.0646
     39 H          -6.0193    2.4923   -1.7554 H       1  UNL1        0.0646
     40 H          -4.5950    2.0592    0.2278 H       1  UNL1        0.0622
     41 H          -2.4344    1.6388    1.1830 H       1  UNL1        0.0637
     42 H          -0.0843    1.6120    0.4003 H       1  UNL1        0.0638
     43 H           1.1272    1.3865   -1.9110 H       1  UNL1        0.0444
     44 H           0.1504    0.1778   -2.8884 H       1  UNL1        0.0444
     45 H           2.7867    1.3120   -3.5871 H       1  UNL1        0.0295
     46 H           1.9797   -0.1830   -4.3913 H       1  UNL1        0.0295
     47 H           3.2504   -1.5454   -2.9261 H       1  UNL1        0.0514
     48 H           4.0764    1.1649   -1.6952 H       1  UNL1        0.0713
     49 H           5.0367   -0.0721   -2.5263 H       1  UNL1        0.0713
     50 H           6.0631    1.4622   -1.2489 H       1  UNL1        0.0654
     51 H           8.0051    2.2310    0.1152 H       1  UNL1        0.0619
     52 H           8.6059    1.0551    2.2016 H       1  UNL1        0.0618
     53 H           7.2810   -0.8859    2.9385 H       1  UNL1        0.0619
     54 H           5.3529   -1.6251    1.5559 H       1  UNL1        0.0654
     55 H          -0.0378   -2.6038    0.7187 H       1  UNL1        0.0645
@<TRIPOS>BOND
     1     1     2    2
     2     2     3    1
     3     3     4    2
     4     3     5   am
     5     5     6    1
     6     6     7    1
     7     7     8   ar
     8     8     9   ar
     9     9    10   ar
    10    10    11    1
    11    10    12   ar
    12    12    13   ar
    13     5    14    1
    14    14    15   ar
    15    15    16   ar
    16    16    17   ar
    17    17    18    1
    18    18    19    2
    19    18    20    2
    20    18    21    1
    21    21    22    1
    22    22    23    1
    23    23    24    1
    24    24    25    1
    25    25    26    1
    26    26    27    1
    27    27    28   ar
    28    28    29   ar
    29    29    30   ar
    30    30    31   ar
    31    31    32   ar
    32    17    33   ar
    33    33    34   ar
    34    34     2    1
    35    13     7   ar
    36    34    14   ar
    37    24    21    1
    38    32    27   ar
    39     6    35    1
    40     6    36    1
    41     8    37    1
    42     9    38    1
    43    12    39    1
    44    13    40    1
    45    15    41    1
    46    16    42    1
    47    22    43    1
    48    22    44    1
    49    23    45    1
    50    23    46    1
    51    24    47    1
    52    25    48    1
    53    25    49    1
    54    28    50    1
    55    29    51    1
    56    30    52    1
    57    31    53    1
    58    32    54    1
    59    33    55    1
