
     RDKit          3D

 27 28  0  0  0  0  0  0  0  0999 V2000
   -1.4998    0.2656   -1.1186 O   0  0  0  0  0  0  0  0  0  0  0  0
   -1.8437   -0.2342   -0.0821 C   0  0  0  0  0  0  0  0  0  0  0  0
   -3.1042   -0.9945   -0.0045 C   0  0  0  0  0  0  0  0  0  0  0  0
   -3.8098   -1.0276   -1.2721 N   0  0  0  0  0  0  0  0  0  0  0  0
   -4.1188    0.2217   -1.6542 O   0  0  0  0  0  0  0  0  0  0  0  0
   -1.0228   -0.1043    1.1326 C   0  0  0  0  0  0  0  0  0  0  0  0
    0.2225    0.6411    0.9364 C   0  0  0  0  0  0  0  0  0  0  0  0
    0.4790    1.9278    1.2945 C   0  0  0  0  0  0  0  0  0  0  0  0
    1.7447    2.2699    0.9447 N   0  0  0  0  0  0  0  0  0  0  0  0
    2.2922    1.1742    0.3552 C   0  0  0  0  0  0  0  0  0  0  0  0
    3.5210    0.8747   -0.2041 C   0  0  0  0  0  0  0  0  0  0  0  0
    3.8021   -0.3627   -0.7419 C   0  0  0  0  0  0  0  0  0  0  0  0
    2.8590   -1.3614   -0.7435 C   0  0  0  0  0  0  0  0  0  0  0  0
    3.1908   -3.0943   -1.4746 Br  0  0  0  0  0  0  0  0  0  0  0  0
    1.6288   -1.0672   -0.1857 C   0  0  0  0  0  0  0  0  0  0  0  0
    1.3596    0.1597    0.3442 C   0  0  0  0  0  0  0  0  0  0  0  0
   -2.8772   -2.0584    0.2898 H   0  0  0  0  0  0  0  0  0  0  0  0
   -3.7565   -0.5998    0.7914 H   0  0  0  0  0  0  0  0  0  0  0  0
   -4.6606   -1.6132   -1.1902 H   0  0  0  0  0  0  0  0  0  0  0  0
   -3.9417    0.8350   -0.9143 H   0  0  0  0  0  0  0  0  0  0  0  0
   -0.8286   -1.1499    1.4899 H   0  0  0  0  0  0  0  0  0  0  0  0
   -1.6597    0.3317    1.9591 H   0  0  0  0  0  0  0  0  0  0  0  0
   -0.1921    2.6073    1.7842 H   0  0  0  0  0  0  0  0  0  0  0  0
    2.2615    3.1567    1.0660 H   0  0  0  0  0  0  0  0  0  0  0  0
    4.2899    1.6253   -0.2247 H   0  0  0  0  0  0  0  0  0  0  0  0
    4.7761   -0.5470   -1.1647 H   0  0  0  0  0  0  0  0  0  0  0  0
    0.8882   -1.8761   -0.1972 H   0  0  0  0  0  0  0  0  0  0  0  0
  1  2  2  0
  2  3  1  0
  3  4  1  0
  4  5  1  0
  2  6  1  0
  6  7  1  0
  7  8  2  0
  8  9  1  0
  9 10  1  0
 10 11  2  0
 11 12  1  0
 12 13  2  0
 13 14  1  0
 13 15  1  0
 15 16  2  0
 16  7  1  0
 16 10  1  0
  3 17  1  0
  3 18  1  0
  4 19  1  0
  5 20  1  0
  6 21  1  0
  6 22  1  0
  8 23  1  0
  9 24  1  0
 11 25  1  0
 12 26  1  0
 15 27  1  0
M  END
$$$$
