@<TRIPOS>MOLECULE
*****
 27 28 0 0 0
SMALL
GASTEIGER

@<TRIPOS>ATOM
      1 O          -1.4998    0.2656   -1.1186 O.2     1  UNL1       -0.2956
      2 C          -1.8437   -0.2342   -0.0821 C.2     1  UNL1        0.1536
      3 C          -3.1042   -0.9945   -0.0045 C.3     1  UNL1        0.0799
      4 N          -3.8098   -1.0276   -1.2721 N.3     1  UNL1       -0.1971
      5 O          -4.1188    0.2217   -1.6542 O.3     1  UNL1       -0.3146
      6 C          -1.0228   -0.1043    1.1326 C.3     1  UNL1        0.0344
      7 C           0.2225    0.6411    0.9364 C.ar    1  UNL1       -0.0152
      8 C           0.4790    1.9278    1.2945 C.ar    1  UNL1        0.0063
      9 N           1.7447    2.2699    0.9447 N.ar    1  UNL1       -0.3604
     10 C           2.2922    1.1742    0.3552 C.ar    1  UNL1        0.0468
     11 C           3.5210    0.8747   -0.2041 C.ar    1  UNL1       -0.0367
     12 C           3.8021   -0.3627   -0.7419 C.ar    1  UNL1       -0.0458
     13 C           2.8590   -1.3614   -0.7435 C.ar    1  UNL1        0.0186
     14 BR          3.1908   -3.0943   -1.4746 Br      1  UNL1       -0.0503
     15 C           1.6288   -1.0672   -0.1857 C.ar    1  UNL1       -0.0383
     16 C           1.3596    0.1597    0.3442 C.ar    1  UNL1        0.0043
     17 H          -2.8772   -2.0584    0.2898 H       1  UNL1        0.0526
     18 H          -3.7565   -0.5998    0.7914 H       1  UNL1        0.0526
     19 H          -4.6606   -1.6132   -1.1902 H       1  UNL1        0.1540
     20 H          -3.9417    0.8350   -0.9143 H       1  UNL1        0.2363
     21 H          -0.8286   -1.1499    1.4899 H       1  UNL1        0.0391
     22 H          -1.6597    0.3317    1.9591 H       1  UNL1        0.0391
     23 H          -0.1921    2.6073    1.7842 H       1  UNL1        0.0810
     24 H           2.2615    3.1567    1.0660 H       1  UNL1        0.1653
     25 H           4.2899    1.6253   -0.2247 H       1  UNL1        0.0639
     26 H           4.7761   -0.5470   -1.1647 H       1  UNL1        0.0629
     27 H           0.8882   -1.8761   -0.1972 H       1  UNL1        0.0635
@<TRIPOS>BOND
     1     1     2    2
     2     2     3    1
     3     3     4    1
     4     4     5    1
     5     2     6    1
     6     6     7    1
     7     7     8   ar
     8     8     9   ar
     9     9    10   ar
    10    10    11   ar
    11    11    12   ar
    12    12    13   ar
    13    13    14    1
    14    13    15   ar
    15    15    16   ar
    16    16     7   ar
    17    16    10   ar
    18     3    17    1
    19     3    18    1
    20     4    19    1
    21     5    20    1
    22     6    21    1
    23     6    22    1
    24     8    23    1
    25     9    24    1
    26    11    25    1
    27    12    26    1
    28    15    27    1
