@<TRIPOS>MOLECULE
*****
 35 36 0 0 0
SMALL
GASTEIGER

@<TRIPOS>ATOM
      1 C          -1.7248    2.1874    2.0951 C.3     1  UNL1       -0.0526
      2 C          -1.0184    2.4379    0.7781 C.3     1  UNL1       -0.0064
      3 N          -1.4069    1.5353   -0.2459 N.3     1  UNL1       -0.3094
      4 C          -1.0055    0.1637   -0.0904 C.3     1  UNL1        0.0370
      5 C          -1.7337   -0.6211   -1.1276 C.3     1  UNL1       -0.0109
      6 C          -1.8745   -2.0700   -0.8793 C.3     1  UNL1        0.0815
      7 C          -3.2560   -2.3773   -0.3487 C.3     1  UNL1       -0.0424
      8 S          -0.6288   -2.4973    0.3407 S.O2    1  UNL1        0.0061
      9 O          -0.1382   -3.8985    0.1162 O.2     1  UNL1       -0.1686
     10 O          -1.1250   -2.3056    1.7216 O.2     1  UNL1       -0.1686
     11 C           0.7007   -1.3552    0.0359 C.ar    1  UNL1        0.1321
     12 C           0.4534    0.0674   -0.1944 C.ar    1  UNL1        0.0035
     13 C           1.5923    0.7756   -0.4175 C.ar    1  UNL1       -0.0215
     14 C           2.8228    0.1931   -0.4197 C.ar    1  UNL1        0.1442
     15 S           2.5479   -1.5403   -0.0891 S.2     1  UNL1       -0.0499
     16 S           4.3955    0.8380   -0.6722 S.O2    1  UNL1        0.0623
     17 N           5.3621    0.5505    0.7152 N.3     1  UNL1       -0.2030
     18 O           5.0072    0.0873   -1.8442 O.2     1  UNL1       -0.1527
     19 O           4.2783    2.2950   -1.0164 O.2     1  UNL1       -0.1527
     20 H          -1.0728    1.5624    2.7336 H       1  UNL1        0.0242
     21 H          -2.7390    1.7758    1.9877 H       1  UNL1        0.0242
     22 H          -1.8051    3.1848    2.6075 H       1  UNL1        0.0242
     23 H           0.0361    2.5415    1.0051 H       1  UNL1        0.0421
     24 H          -1.3619    3.4562    0.4240 H       1  UNL1        0.0421
     25 H          -1.1070    1.9677   -1.1639 H       1  UNL1        0.1225
     26 H          -1.3035   -0.1296    0.9361 H       1  UNL1        0.0511
     27 H          -2.7682   -0.1824   -1.1758 H       1  UNL1        0.0302
     28 H          -1.3117   -0.4674   -2.1403 H       1  UNL1        0.0302
     29 H          -1.6489   -2.6370   -1.8036 H       1  UNL1        0.0538
     30 H          -3.9268   -1.5844   -0.6729 H       1  UNL1        0.0248
     31 H          -3.5814   -3.3379   -0.7931 H       1  UNL1        0.0248
     32 H          -3.2191   -2.5414    0.7479 H       1  UNL1        0.0248
     33 H           1.5605    1.8369   -0.6042 H       1  UNL1        0.0646
     34 H           4.8020    0.1419    1.4982 H       1  UNL1        0.1443
     35 H           6.1984   -0.0531    0.4723 H       1  UNL1        0.1443
@<TRIPOS>BOND
     1     1     2    1
     2     2     3    1
     3     3     4    1
     4     4     5    1
     5     5     6    1
     6     6     7    1
     7     6     8    1
     8     8     9    2
     9     8    10    2
    10     8    11    1
    11    11    12   ar
    12    12    13   ar
    13    13    14   ar
    14    14    15   ar
    15    14    16    1
    16    16    17    1
    17    16    18    2
    18    16    19    2
    19    12     4    1
    20    15    11   ar
    21     1    20    1
    22     1    21    1
    23     1    22    1
    24     2    23    1
    25     2    24    1
    26     3    25    1
    27     4    26    1
    28     5    27    1
    29     5    28    1
    30     6    29    1
    31     7    30    1
    32     7    31    1
    33     7    32    1
    34    13    33    1
    35    17    34    1
    36    17    35    1
