
     RDKit          3D

 52 55  0  0  0  0  0  0  0  0999 V2000
    4.5695   -1.8369    1.8926 C   0  0  0  0  0  0  0  0  0  0  0  0
    3.9375   -0.8612    0.9330 C   0  0  1  0  0  0  0  0  0  0  0  0
    3.4000    0.2770    1.4857 O   0  0  0  0  0  0  0  0  0  0  0  0
    2.1388    0.7901    1.4290 C   0  0  0  0  0  0  0  0  0  0  0  0
    1.1008    0.2013    0.7378 C   0  0  0  0  0  0  0  0  0  0  0  0
   -0.1660    0.7554    0.7061 C   0  0  0  0  0  0  0  0  0  0  0  0
   -1.2638    0.1259   -0.0287 C   0  0  0  0  0  0  0  0  0  0  0  0
   -1.1397   -0.6104   -1.1828 C   0  0  0  0  0  0  0  0  0  0  0  0
   -2.3834   -1.0077   -1.5266 N   0  0  0  0  0  0  0  0  0  0  0  0
   -3.2505   -0.5537   -0.6463 N   0  0  0  0  0  0  0  0  0  0  0  0
   -4.6664   -0.7576   -0.6539 C   0  0  0  0  0  0  0  0  0  0  0  0
   -5.4449    0.4557   -0.1442 C   0  0  0  0  0  0  0  0  0  0  0  0
   -6.8924    0.0212   -0.1166 C   0  0  0  0  0  0  0  0  0  0  0  0
   -7.3896   -0.0574   -1.4477 N   0  0  0  0  0  0  0  0  0  0  0  0
   -6.3287   -0.1221   -2.4152 C   0  0  0  0  0  0  0  0  0  0  0  0
   -5.1985   -1.0421   -2.0311 C   0  0  0  0  0  0  0  0  0  0  0  0
   -2.5917    0.1506    0.2920 C   0  0  0  0  0  0  0  0  0  0  0  0
   -0.3411    1.9320    1.4035 C   0  0  0  0  0  0  0  0  0  0  0  0
    0.6669    2.5097    2.0785 N   0  0  0  0  0  0  0  0  0  0  0  0
    1.9047    1.9849    2.1201 C   0  0  0  0  0  0  0  0  0  0  0  0
    2.9452    2.6424    2.8593 N   0  0  0  0  0  0  0  0  0  0  0  0
    4.9462   -0.4801   -0.0968 C   0  0  0  0  0  0  0  0  0  0  0  0
    5.8370    0.5484    0.0918 C   0  0  0  0  0  0  0  0  0  0  0  0
    5.8398    1.4666    1.5751 Cl  0  0  0  0  0  0  0  0  0  0  0  0
    6.7636    0.8922   -0.8737 C   0  0  0  0  0  0  0  0  0  0  0  0
    6.8159    0.2029   -2.0611 C   0  0  0  0  0  0  0  0  0  0  0  0
    5.9263   -0.8419   -2.2767 C   0  0  0  0  0  0  0  0  0  0  0  0
    5.9470   -1.5482   -3.4401 F   0  0  0  0  0  0  0  0  0  0  0  0
    5.0190   -1.1604   -1.3029 C   0  0  0  0  0  0  0  0  0  0  0  0
    3.8933   -2.4778   -1.5688 Cl  0  0  0  0  0  0  0  0  0  0  0  0
    4.3560   -1.5848    2.9490 H   0  0  0  0  0  0  0  0  0  0  0  0
    5.6731   -1.8204    1.7765 H   0  0  0  0  0  0  0  0  0  0  0  0
    4.2530   -2.8752    1.6371 H   0  0  0  0  0  0  0  0  0  0  0  0
    3.1279   -1.3950    0.3671 H   0  0  0  0  0  0  0  0  0  0  0  0
    1.2427   -0.7186    0.1938 H   0  0  0  0  0  0  0  0  0  0  0  0
   -0.2430   -0.8375   -1.7215 H   0  0  0  0  0  0  0  0  0  0  0  0
   -4.9762   -1.5960    0.0284 H   0  0  0  0  0  0  0  0  0  0  0  0
   -5.3239    1.3418   -0.7813 H   0  0  0  0  0  0  0  0  0  0  0  0
   -5.0847    0.7465    0.8656 H   0  0  0  0  0  0  0  0  0  0  0  0
   -7.5020    0.6670    0.5517 H   0  0  0  0  0  0  0  0  0  0  0  0
   -6.9310   -1.0053    0.3460 H   0  0  0  0  0  0  0  0  0  0  0  0
   -7.9687   -0.9190   -1.5589 H   0  0  0  0  0  0  0  0  0  0  0  0
   -5.9127    0.8818   -2.6681 H   0  0  0  0  0  0  0  0  0  0  0  0
   -6.7115   -0.5126   -3.3990 H   0  0  0  0  0  0  0  0  0  0  0  0
   -5.5273   -2.0900   -2.1314 H   0  0  0  0  0  0  0  0  0  0  0  0
   -4.3981   -0.8872   -2.7863 H   0  0  0  0  0  0  0  0  0  0  0  0
   -2.9955    0.6676    1.1696 H   0  0  0  0  0  0  0  0  0  0  0  0
   -1.3247    2.4003    1.4030 H   0  0  0  0  0  0  0  0  0  0  0  0
    3.6106    3.3003    2.4005 H   0  0  0  0  0  0  0  0  0  0  0  0
    3.0432    2.4666    3.8616 H   0  0  0  0  0  0  0  0  0  0  0  0
    7.4644    1.7074   -0.7163 H   0  0  0  0  0  0  0  0  0  0  0  0
    7.5336    0.4635   -2.8182 H   0  0  0  0  0  0  0  0  0  0  0  0
  1  2  1  0
  2  3  1  0
  3  4  1  0
  4  5  2  0
  5  6  1  0
  6  7  1  0
  7  8  1  0
  8  9  2  0
  9 10  1  0
 10 11  1  0
 11 12  1  0
 12 13  1  0
 13 14  1  0
 14 15  1  0
 15 16  1  0
 10 17  1  0
  6 18  2  0
 18 19  1  0
 19 20  2  0
 20 21  1  0
  2 22  1  0
 22 23  2  0
 23 24  1  0
 23 25  1  0
 25 26  2  0
 26 27  1  0
 27 28  1  0
 27 29  2  0
 29 30  1  0
 20  4  1  0
 29 22  1  0
 17  7  2  0
 16 11  1  0
  1 31  1  0
  1 32  1  0
  1 33  1  0
  2 34  1  6
  5 35  1  0
  8 36  1  0
 11 37  1  0
 12 38  1  0
 12 39  1  0
 13 40  1  0
 13 41  1  0
 14 42  1  0
 15 43  1  0
 15 44  1  0
 16 45  1  0
 16 46  1  0
 17 47  1  0
 18 48  1  0
 21 49  1  0
 21 50  1  0
 25 51  1  0
 26 52  1  0
M  END
$$$$
