@<TRIPOS>MOLECULE
*****
 52 55 0 0 0
SMALL
GASTEIGER

@<TRIPOS>ATOM
      1 C           4.5695   -1.8369    1.8926 C.3     1  UNL1       -0.0234
      2 C           3.9375   -0.8612    0.9330 C.3     1  UNL1        0.1253
      3 O           3.4000    0.2770    1.4857 O.3     1  UNL1       -0.4810
      4 C           2.1388    0.7901    1.4290 C.ar    1  UNL1        0.1613
      5 C           1.1008    0.2013    0.7378 C.ar    1  UNL1       -0.0072
      6 C          -0.1660    0.7554    0.7061 C.ar    1  UNL1        0.0068
      7 C          -1.2638    0.1259   -0.0287 C.ar    1  UNL1        0.0211
      8 C          -1.1397   -0.6104   -1.1828 C.ar    1  UNL1        0.0571
      9 N          -2.3834   -1.0077   -1.5266 N.ar    1  UNL1       -0.1788
     10 N          -3.2505   -0.5537   -0.6463 N.ar    1  UNL1       -0.2677
     11 C          -4.6664   -0.7576   -0.6539 C.3     1  UNL1        0.0550
     12 C          -5.4449    0.4557   -0.1442 C.3     1  UNL1       -0.0179
     13 C          -6.8924    0.0212   -0.1166 C.3     1  UNL1       -0.0022
     14 N          -7.3896   -0.0574   -1.4477 N.3     1  UNL1       -0.3158
     15 C          -6.3287   -0.1221   -2.4152 C.3     1  UNL1       -0.0022
     16 C          -5.1985   -1.0421   -2.0311 C.3     1  UNL1       -0.0179
     17 C          -2.5917    0.1506    0.2920 C.ar    1  UNL1        0.0336
     18 C          -0.3411    1.9320    1.4035 C.ar    1  UNL1        0.0377
     19 N           0.6669    2.5097    2.0785 N.ar    1  UNL1       -0.2364
     20 C           1.9047    1.9849    2.1201 C.ar    1  UNL1        0.1583
     21 N           2.9452    2.6424    2.8593 N.pl3   1  UNL1       -0.3402
     22 C           4.9462   -0.4801   -0.0968 C.ar    1  UNL1        0.0318
     23 C           5.8370    0.5484    0.0918 C.ar    1  UNL1        0.0492
     24 CL          5.8398    1.4666    1.5751 Cl      1  UNL1       -0.0831
     25 C           6.7636    0.8922   -0.8737 C.ar    1  UNL1       -0.0402
     26 C           6.8159    0.2029   -2.0611 C.ar    1  UNL1       -0.0236
     27 C           5.9263   -0.8419   -2.2767 C.ar    1  UNL1        0.1421
     28 F           5.9470   -1.5482   -3.4401 F       1  UNL1       -0.2039
     29 C           5.0190   -1.1604   -1.3029 C.ar    1  UNL1        0.0841
     30 CL          3.8933   -2.4778   -1.5688 Cl      1  UNL1       -0.0801
     31 H           4.3560   -1.5848    2.9490 H       1  UNL1        0.0269
     32 H           5.6731   -1.8204    1.7765 H       1  UNL1        0.0269
     33 H           4.2530   -2.8752    1.6371 H       1  UNL1        0.0269
     34 H           3.1279   -1.3950    0.3671 H       1  UNL1        0.0782
     35 H           1.2427   -0.7186    0.1938 H       1  UNL1        0.0662
     36 H          -0.2430   -0.8375   -1.7215 H       1  UNL1        0.0854
     37 H          -4.9762   -1.5960    0.0284 H       1  UNL1        0.0545
     38 H          -5.3239    1.3418   -0.7813 H       1  UNL1        0.0298
     39 H          -5.0847    0.7465    0.8656 H       1  UNL1        0.0298
     40 H          -7.5020    0.6670    0.5517 H       1  UNL1        0.0425
     41 H          -6.9310   -1.0053    0.3460 H       1  UNL1        0.0425
     42 H          -7.9687   -0.9190   -1.5589 H       1  UNL1        0.1219
     43 H          -5.9127    0.8818   -2.6681 H       1  UNL1        0.0425
     44 H          -6.7115   -0.5126   -3.3990 H       1  UNL1        0.0425
     45 H          -5.5273   -2.0900   -2.1314 H       1  UNL1        0.0298
     46 H          -4.3981   -0.8872   -2.7863 H       1  UNL1        0.0298
     47 H          -2.9955    0.6676    1.1696 H       1  UNL1        0.0832
     48 H          -1.3247    2.4003    1.4030 H       1  UNL1        0.0836
     49 H           3.6106    3.3003    2.4005 H       1  UNL1        0.1438
     50 H           3.0432    2.4666    3.8616 H       1  UNL1        0.1438
     51 H           7.4644    1.7074   -0.7163 H       1  UNL1        0.0633
     52 H           7.5336    0.4635   -2.8182 H       1  UNL1        0.0647
@<TRIPOS>BOND
     1     1     2    1
     2     2     3    1
     3     3     4    1
     4     4     5   ar
     5     5     6   ar
     6     6     7    1
     7     7     8   ar
     8     8     9   ar
     9     9    10   ar
    10    10    11    1
    11    11    12    1
    12    12    13    1
    13    13    14    1
    14    14    15    1
    15    15    16    1
    16    10    17   ar
    17     6    18   ar
    18    18    19   ar
    19    19    20   ar
    20    20    21    1
    21     2    22    1
    22    22    23   ar
    23    23    24    1
    24    23    25   ar
    25    25    26   ar
    26    26    27   ar
    27    27    28    1
    28    27    29   ar
    29    29    30    1
    30    20     4   ar
    31    29    22   ar
    32    17     7   ar
    33    16    11    1
    34     1    31    1
    35     1    32    1
    36     1    33    1
    37     2    34    1
    38     5    35    1
    39     8    36    1
    40    11    37    1
    41    12    38    1
    42    12    39    1
    43    13    40    1
    44    13    41    1
    45    14    42    1
    46    15    43    1
    47    15    44    1
    48    16    45    1
    49    16    46    1
    50    17    47    1
    51    18    48    1
    52    21    49    1
    53    21    50    1
    54    25    51    1
    55    26    52    1
