
     RDKit          3D

 19 19  0  0  0  0  0  0  0  0999 V2000
    3.4466   -0.1725   -0.5229 N   0  0  0  0  0  0  0  0  0  0  0  0
    2.0338   -0.1897   -0.2614 C   0  0  0  0  0  0  0  0  0  0  0  0
    1.2518   -1.2456   -0.7008 C   0  0  0  0  0  0  0  0  0  0  0  0
   -0.0935   -1.2373   -0.4379 C   0  0  0  0  0  0  0  0  0  0  0  0
   -0.7120   -0.2075    0.2556 C   0  0  0  0  0  0  0  0  0  0  0  0
    0.0833    0.8536    0.6953 C   0  0  0  0  0  0  0  0  0  0  0  0
    1.4378    0.8451    0.4306 C   0  0  0  0  0  0  0  0  0  0  0  0
    2.5695    2.4523    1.1106 Hg  0  0  0  0  0  1  0  0  0  0  0  0
   -2.4088   -0.1438    0.6169 S   0  0  0  0  0  0  0  0  0  0  0  0
   -3.3151    0.6442   -0.6147 N   0  0  0  0  0  0  0  0  0  0  0  0
   -2.8991   -1.5591    0.7358 O   0  0  0  0  0  0  0  0  0  0  0  0
   -2.5851    0.5673    1.9265 O   0  0  0  0  0  0  0  0  0  0  0  0
    4.2206   -0.0044    0.1832 H   0  0  0  0  0  0  0  0  0  0  0  0
    3.7810   -0.3404   -1.5053 H   0  0  0  0  0  0  0  0  0  0  0  0
    1.6761   -2.0855   -1.2510 H   0  0  0  0  0  0  0  0  0  0  0  0
   -0.7899   -2.0217   -0.7421 H   0  0  0  0  0  0  0  0  0  0  0  0
   -0.3593    1.6890    1.2465 H   0  0  0  0  0  0  0  0  0  0  0  0
   -3.0149    1.6214   -0.7759 H   0  0  0  0  0  0  0  0  0  0  0  0
   -4.3230    0.5347   -0.3889 H   0  0  0  0  0  0  0  0  0  0  0  0
  1  2  1  0
  2  3  2  0
  3  4  1  0
  4  5  2  0
  5  6  1  0
  6  7  2  0
  7  8  1  0
  5  9  1  0
  9 10  1  0
  9 11  2  0
  9 12  2  0
  7  2  1  0
  1 13  1  0
  1 14  1  0
  3 15  1  0
  4 16  1  0
  6 17  1  0
 10 18  1  0
 10 19  1  0
M  END
$$$$
