@<TRIPOS>MOLECULE
*****
 19 19 0 0 0
SMALL
GASTEIGER

@<TRIPOS>ATOM
      1 N           3.4466   -0.1725   -0.5229 N.pl3   1  UNL1        0.0000
      2 C           2.0338   -0.1897   -0.2614 C.ar    1  UNL1        0.0000
      3 C           1.2518   -1.2456   -0.7008 C.ar    1  UNL1        0.0000
      4 C          -0.0935   -1.2373   -0.4379 C.ar    1  UNL1        0.0000
      5 C          -0.7120   -0.2075    0.2556 C.ar    1  UNL1        0.0000
      6 C           0.0833    0.8536    0.6953 C.ar    1  UNL1        0.0000
      7 C           1.4378    0.8451    0.4306 C.ar    1  UNL1        0.0000
      8 HG          2.5695    2.4523    1.1106 Hg      1  UNL1        0.0000
      9 S          -2.4088   -0.1438    0.6169 S.O2    1  UNL1        0.0000
     10 N          -3.3151    0.6442   -0.6147 N.3     1  UNL1        0.0000
     11 O          -2.8991   -1.5591    0.7358 O.2     1  UNL1        0.0000
     12 O          -2.5851    0.5673    1.9265 O.2     1  UNL1        0.0000
     13 H           4.2206   -0.0044    0.1832 H       1  UNL1        0.0000
     14 H           3.7810   -0.3404   -1.5053 H       1  UNL1        0.0000
     15 H           1.6761   -2.0855   -1.2510 H       1  UNL1        0.0000
     16 H          -0.7899   -2.0217   -0.7421 H       1  UNL1        0.0000
     17 H          -0.3593    1.6890    1.2465 H       1  UNL1        0.0000
     18 H          -3.0149    1.6214   -0.7759 H       1  UNL1        0.0000
     19 H          -4.3230    0.5347   -0.3889 H       1  UNL1        0.0000
@<TRIPOS>BOND
     1     1     2    1
     2     2     3   ar
     3     3     4   ar
     4     4     5   ar
     5     5     6   ar
     6     6     7   ar
     7     7     8    1
     8     5     9    1
     9     9    10    1
    10     9    11    2
    11     9    12    2
    12     7     2   ar
    13     1    13    1
    14     1    14    1
    15     3    15    1
    16     4    16    1
    17     6    17    1
    18    10    18    1
    19    10    19    1
