
     RDKit          3D

129132  0  0  0  0  0  0  0  0999 V2000
    8.4283    1.5566    1.6838 C   0  0  0  0  0  0  0  0  0  0  0  0
    7.8914    0.4189    1.2641 C   0  0  0  0  0  0  0  0  0  0  0  0
    8.2411   -0.3091    0.0012 C   0  0  0  0  0  0  0  0  0  0  0  0
    8.9264   -1.5632    0.3862 C   0  0  0  0  0  0  0  0  0  0  0  0
    7.0368   -0.3801   -0.8699 C   0  0  0  0  0  0  0  0  0  0  0  0
    7.4287   -1.0953   -2.0814 O   0  0  0  0  0  0  0  0  0  0  0  0
    7.4490   -0.4847   -3.3157 C   0  0  0  0  0  0  0  0  0  0  0  0
    7.8896   -1.4753   -4.3391 C   0  0  0  0  0  0  0  0  0  0  0  0
    7.1615    0.7030   -3.6327 O   0  0  0  0  0  0  0  0  0  0  0  0
    5.8369   -1.0488   -0.3167 C   0  0  2  0  0  0  0  0  0  0  0  0
    6.1204   -2.5022   -0.0614 C   0  0  0  0  0  0  0  0  0  0  0  0
    4.5465   -0.7667   -1.0061 C   0  0  0  0  0  0  0  0  0  0  0  0
    3.9471   -1.6517   -1.5559 O   0  0  0  0  0  0  0  0  0  0  0  0
    4.1727    0.6623   -0.8974 C   0  0  0  0  0  0  0  0  0  0  0  0
    3.5552    1.0612    0.3716 C   0  0  0  0  0  0  0  0  0  0  0  0
    2.2527    0.6370    0.8422 C   0  0  2  0  0  0  0  0  0  0  0  0
    2.1386    1.3579    2.2391 C   0  0  0  0  0  0  0  0  0  0  0  0
    1.8228   -0.7314    1.0422 C   0  0  2  0  0  0  0  0  0  0  0  0
    0.4041   -0.8804    1.5316 C   0  0  0  0  0  0  0  0  0  0  0  0
   -0.7318   -0.3503    0.7554 C   0  0  2  0  0  0  0  0  0  0  0  0
   -1.8679   -0.7062    1.6179 O   0  0  0  0  0  0  0  0  0  0  0  0
   -2.5144    0.2168    2.3943 C   0  0  0  0  0  0  0  0  0  0  0  0
   -2.0417    1.3531    2.2900 O   0  0  0  0  0  0  0  0  0  0  0  0
   -3.6630   -0.3183    3.2250 C   0  0  0  0  0  0  0  0  0  0  0  0
   -4.1225    0.6996    4.1987 C   0  0  1  0  0  0  0  0  0  0  0  0
   -4.4921    1.8486    3.4486 O   0  0  0  0  0  0  0  0  0  0  0  0
   -5.3738    0.2689    4.8964 C   0  0  0  0  0  0  0  0  0  0  0  0
   -6.6540    0.3668    4.1830 C   0  0  0  0  0  0  0  0  0  0  0  0
   -6.8497   -0.3023    2.8726 C   0  0  0  0  0  0  0  0  0  0  0  0
   -8.3074   -0.0255    2.5027 C   0  0  0  0  0  0  0  0  0  0  0  0
   -8.8200    0.5550    3.4388 O   0  0  0  0  0  0  0  0  0  0  0  0
   -8.6251   -0.5447    1.1378 C   0  0  0  0  0  0  0  0  0  0  0  0
  -10.0573   -0.1748    0.7984 C   0  0  2  0  0  0  0  0  0  0  0  0
  -11.0673   -0.7934    1.7263 C   0  0  0  0  0  0  0  0  0  0  0  0
  -10.3194   -0.5177   -0.6113 C   0  0  0  0  0  0  0  0  0  0  0  0
  -11.0553   -1.2180   -1.5748 C   0  0  0  0  0  0  0  0  0  0  0  0
  -10.5654   -0.9190   -2.7684 O   0  0  0  0  0  0  0  0  0  0  0  0
   -9.5661   -0.0692   -2.5749 C   0  0  0  0  0  0  0  0  0  0  0  0
   -9.3730    0.2094   -1.2794 N   0  0  0  0  0  0  0  0  0  0  0  0
   -8.6788    0.5824   -3.5403 C   0  0  0  0  0  0  0  0  0  0  0  0
   -8.8166    0.9115   -4.8655 C   0  0  0  0  0  0  0  0  0  0  0  0
   -7.6797    1.4953   -5.2395 O   0  0  0  0  0  0  0  0  0  0  0  0
   -6.8578    1.5407   -4.2181 C   0  0  0  0  0  0  0  0  0  0  0  0
   -7.4449    0.9811   -3.1417 N   0  0  0  0  0  0  0  0  0  0  0  0
   -5.4884    2.0829   -4.1137 C   0  0  0  0  0  0  0  0  0  0  0  0
   -4.9595    3.2034   -4.7597 C   0  0  0  0  0  0  0  0  0  0  0  0
   -3.7217    3.2628   -4.3362 O   0  0  0  0  0  0  0  0  0  0  0  0
   -3.4471    2.2958   -3.5023 C   0  0  0  0  0  0  0  0  0  0  0  0
   -4.5393    1.5233   -3.3331 N   0  0  0  0  0  0  0  0  0  0  0  0
   -2.1851    1.9924   -2.7960 C   0  0  0  0  0  0  0  0  0  0  0  0
   -1.4195    0.9540   -3.0093 C   0  0  0  0  0  0  0  0  0  0  0  0
   -0.1189    0.5097   -2.3818 C   0  0  0  0  0  0  0  0  0  0  0  0
   -0.2807   -0.8332   -1.7267 C   0  0  2  0  0  0  0  0  0  0  0  0
   -0.7316   -1.7258   -2.7300 O   0  0  0  0  0  0  0  0  0  0  0  0
    0.3373   -2.5937   -3.0529 C   0  0  0  0  0  0  0  0  0  0  0  0
   -1.1059   -0.9469   -0.5331 C   0  0  1  0  0  0  0  0  0  0  0  0
   -1.4468   -2.4513   -0.3994 C   0  0  0  0  0  0  0  0  0  0  0  0
    2.5574   -1.1989    2.2078 O   0  0  0  0  0  0  0  0  0  0  0  0
    2.9984   -2.4823    1.9166 C   0  0  0  0  0  0  0  0  0  0  0  0
    9.4145    2.4198    1.1721 N   0  0  0  0  0  0  0  0  0  0  0  0
    9.2746    2.9202   -0.1847 C   0  0  0  0  0  0  0  0  0  0  0  0
   10.5758    2.8491    1.9339 C   0  0  0  0  0  0  0  0  0  0  0  0
   10.0905    3.5407    3.0580 O   0  0  0  0  0  0  0  0  0  0  0  0
    8.1223    2.0296    2.6060 H   0  0  0  0  0  0  0  0  0  0  0  0
    7.1527    0.0211    1.9317 H   0  0  0  0  0  0  0  0  0  0  0  0
    9.0079    0.3190   -0.5436 H   0  0  0  0  0  0  0  0  0  0  0  0
    8.4412   -2.1350    1.2234 H   0  0  0  0  0  0  0  0  0  0  0  0
    9.9051   -1.2281    0.8866 H   0  0  0  0  0  0  0  0  0  0  0  0
    9.2822   -2.2104   -0.4264 H   0  0  0  0  0  0  0  0  0  0  0  0
    6.8013    0.6271   -1.2365 H   0  0  0  0  0  0  0  0  0  0  0  0
    7.0233   -2.1332   -4.5419 H   0  0  0  0  0  0  0  0  0  0  0  0
    8.7192   -2.1204   -3.9871 H   0  0  0  0  0  0  0  0  0  0  0  0
    8.1714   -1.0030   -5.3015 H   0  0  0  0  0  0  0  0  0  0  0  0
    5.7210   -0.6120    0.7515 H   0  0  0  0  0  0  0  0  0  0  0  0
    7.0427   -2.8658   -0.5551 H   0  0  0  0  0  0  0  0  0  0  0  0
    6.1882   -2.7748    1.0099 H   0  0  0  0  0  0  0  0  0  0  0  0
    5.3130   -3.1314   -0.5571 H   0  0  0  0  0  0  0  0  0  0  0  0
    3.5343    0.9592   -1.7939 H   0  0  0  0  0  0  0  0  0  0  0  0
    5.0750    1.2800   -1.0502 H   0  0  0  0  0  0  0  0  0  0  0  0
    4.3251    0.8233    1.1990 H   0  0  0  0  0  0  0  0  0  0  0  0
    3.5640    2.2125    0.4586 H   0  0  0  0  0  0  0  0  0  0  0  0
    1.4854    1.2225    0.2017 H   0  0  0  0  0  0  0  0  0  0  0  0
    2.9302    0.9967    2.8842 H   0  0  0  0  0  0  0  0  0  0  0  0
    2.3678    2.4224    1.9675 H   0  0  0  0  0  0  0  0  0  0  0  0
    1.1201    1.3517    2.6041 H   0  0  0  0  0  0  0  0  0  0  0  0
    2.0264   -1.5001    0.3253 H   0  0  0  0  0  0  0  0  0  0  0  0
    0.3762   -0.4986    2.5779 H   0  0  0  0  0  0  0  0  0  0  0  0
    0.2810   -1.9962    1.6824 H   0  0  0  0  0  0  0  0  0  0  0  0
   -0.6207    0.7573    0.7788 H   0  0  0  0  0  0  0  0  0  0  0  0
   -4.3773   -0.7379    2.5466 H   0  0  0  0  0  0  0  0  0  0  0  0
   -3.1974   -1.2192    3.7524 H   0  0  0  0  0  0  0  0  0  0  0  0
   -3.3268    1.0109    4.9156 H   0  0  0  0  0  0  0  0  0  0  0  0
   -4.4568    1.6512    2.5012 H   0  0  0  0  0  0  0  0  0  0  0  0
   -5.2798   -0.8204    5.2343 H   0  0  0  0  0  0  0  0  0  0  0  0
   -5.4648    0.7894    5.9087 H   0  0  0  0  0  0  0  0  0  0  0  0
   -6.9539    1.4588    4.0007 H   0  0  0  0  0  0  0  0  0  0  0  0
   -7.4542   -0.0669    4.8756 H   0  0  0  0  0  0  0  0  0  0  0  0
   -6.6403   -1.3674    2.8123 H   0  0  0  0  0  0  0  0  0  0  0  0
   -6.3107    0.2088    2.0356 H   0  0  0  0  0  0  0  0  0  0  0  0
   -8.5050   -1.6469    1.1534 H   0  0  0  0  0  0  0  0  0  0  0  0
   -7.9243   -0.0253    0.4534 H   0  0  0  0  0  0  0  0  0  0  0  0
  -10.1506    0.9429    0.9871 H   0  0  0  0  0  0  0  0  0  0  0  0
  -10.6897   -0.8093    2.7719 H   0  0  0  0  0  0  0  0  0  0  0  0
  -11.9902   -0.1774    1.7636 H   0  0  0  0  0  0  0  0  0  0  0  0
  -11.2824   -1.8676    1.4863 H   0  0  0  0  0  0  0  0  0  0  0  0
  -11.8211   -1.8152   -1.1300 H   0  0  0  0  0  0  0  0  0  0  0  0
   -9.6897    0.7301   -5.4938 H   0  0  0  0  0  0  0  0  0  0  0  0
   -5.4587    3.8825   -5.4615 H   0  0  0  0  0  0  0  0  0  0  0  0
   -2.0009    2.7720   -2.0720 H   0  0  0  0  0  0  0  0  0  0  0  0
   -1.7975    0.2841   -3.7977 H   0  0  0  0  0  0  0  0  0  0  0  0
    0.3237    1.2741   -1.7782 H   0  0  0  0  0  0  0  0  0  0  0  0
    0.5649    0.3587   -3.2498 H   0  0  0  0  0  0  0  0  0  0  0  0
    0.7774   -1.1909   -1.5485 H   0  0  0  0  0  0  0  0  0  0  0  0
    0.6323   -3.1356   -2.1589 H   0  0  0  0  0  0  0  0  0  0  0  0
    1.1751   -1.9304   -3.4052 H   0  0  0  0  0  0  0  0  0  0  0  0
    0.0254   -3.2795   -3.8708 H   0  0  0  0  0  0  0  0  0  0  0  0
   -2.1443   -0.5404   -0.8382 H   0  0  0  0  0  0  0  0  0  0  0  0
   -1.6227   -2.7951   -1.4360 H   0  0  0  0  0  0  0  0  0  0  0  0
   -0.6182   -3.0286    0.0045 H   0  0  0  0  0  0  0  0  0  0  0  0
   -2.4256   -2.5715    0.1005 H   0  0  0  0  0  0  0  0  0  0  0  0
    3.6250   -2.5785    1.0468 H   0  0  0  0  0  0  0  0  0  0  0  0
    3.5566   -2.8356    2.8254 H   0  0  0  0  0  0  0  0  0  0  0  0
    2.1061   -3.1808    1.8452 H   0  0  0  0  0  0  0  0  0  0  0  0
   10.1302    2.5004   -0.7510 H   0  0  0  0  0  0  0  0  0  0  0  0
    8.3065    2.5948   -0.6597 H   0  0  0  0  0  0  0  0  0  0  0  0
    9.2413    4.0384   -0.2234 H   0  0  0  0  0  0  0  0  0  0  0  0
   11.1812    3.5714    1.3598 H   0  0  0  0  0  0  0  0  0  0  0  0
   11.1389    1.9464    2.2461 H   0  0  0  0  0  0  0  0  0  0  0  0
    9.9333    2.8729    3.7655 H   0  0  0  0  0  0  0  0  0  0  0  0
  1  2  2  3
  2  3  1  0
  3  4  1  0
  3  5  1  0
  5  6  1  0
  6  7  1  0
  7  8  1  0
  7  9  2  0
  5 10  1  0
 10 11  1  0
 10 12  1  0
 12 13  2  0
 12 14  1  0
 14 15  1  0
 15 16  1  0
 16 17  1  0
 16 18  1  0
 18 19  1  0
 19 20  1  0
 20 21  1  0
 21 22  1  0
 22 23  2  0
 22 24  1  0
 24 25  1  0
 25 26  1  0
 25 27  1  0
 27 28  1  0
 28 29  1  0
 29 30  1  0
 30 31  2  0
 30 32  1  0
 32 33  1  0
 33 34  1  0
 33 35  1  0
 35 36  2  0
 36 37  1  0
 37 38  1  0
 38 39  2  0
 38 40  1  0
 40 41  2  0
 41 42  1  0
 42 43  1  0
 43 44  2  0
 43 45  1  0
 45 46  2  0
 46 47  1  0
 47 48  1  0
 48 49  2  0
 48 50  1  0
 50 51  2  0
 51 52  1  0
 52 53  1  0
 53 54  1  0
 54 55  1  0
 53 56  1  0
 56 57  1  0
 18 58  1  0
 58 59  1  0
  1 60  1  0
 60 61  1  0
 60 62  1  0
 62 63  1  0
 56 20  1  0
 39 35  1  0
 44 40  1  0
 49 45  1  0
  1 64  1  0
  2 65  1  0
  3 66  1  0
  4 67  1  0
  4 68  1  0
  4 69  1  0
  5 70  1  0
  8 71  1  0
  8 72  1  0
  8 73  1  0
 10 74  1  1
 11 75  1  0
 11 76  1  0
 11 77  1  0
 14 78  1  0
 14 79  1  0
 15 80  1  0
 15 81  1  0
 16 82  1  6
 17 83  1  0
 17 84  1  0
 17 85  1  0
 18 86  1  6
 19 87  1  0
 19 88  1  0
 20 89  1  6
 24 90  1  0
 24 91  1  0
 25 92  1  1
 26 93  1  0
 27 94  1  0
 27 95  1  0
 28 96  1  0
 28 97  1  0
 29 98  1  0
 29 99  1  0
 32100  1  0
 32101  1  0
 33102  1  6
 34103  1  0
 34104  1  0
 34105  1  0
 36106  1  0
 41107  1  0
 46108  1  0
 50109  1  0
 51110  1  0
 52111  1  0
 52112  1  0
 53113  1  1
 55114  1  0
 55115  1  0
 55116  1  0
 56117  1  6
 57118  1  0
 57119  1  0
 57120  1  0
 59121  1  0
 59122  1  0
 59123  1  0
 61124  1  0
 61125  1  0
 61126  1  0
 62127  1  0
 62128  1  0
 63129  1  0
M  END
$$$$
