@<TRIPOS>MOLECULE
*****
 129 132 0 0 0
SMALL
GASTEIGER

@<TRIPOS>ATOM
      1 C           8.4283    1.5566    1.6838 C.2     1  UNL1       -0.0099
      2 C           7.8914    0.4189    1.2641 C.2     1  UNL1       -0.0639
      3 C           8.2411   -0.3091    0.0012 C.3     1  UNL1        0.0135
      4 C           8.9264   -1.5632    0.3862 C.3     1  UNL1       -0.0555
      5 C           7.0368   -0.3801   -0.8699 C.3     1  UNL1        0.1182
      6 O           7.4287   -1.0953   -2.0814 O.3     1  UNL1       -0.4603
      7 C           7.4490   -0.4847   -3.3157 C.2     1  UNL1        0.3042
      8 C           7.8896   -1.4753   -4.3391 C.3     1  UNL1        0.0332
      9 O           7.1615    0.7030   -3.6327 O.2     1  UNL1       -0.2512
     10 C           5.8369   -1.0488   -0.3167 C.3     1  UNL1        0.0522
     11 C           6.1204   -2.5022   -0.0614 C.3     1  UNL1       -0.0523
     12 C           4.5465   -0.7667   -1.0061 C.2     1  UNL1        0.1397
     13 O           3.9471   -1.6517   -1.5559 O.2     1  UNL1       -0.2970
     14 C           4.1727    0.6623   -0.8974 C.3     1  UNL1        0.0065
     15 C           3.5552    1.0612    0.3716 C.3     1  UNL1       -0.0414
     16 C           2.2527    0.6370    0.8422 C.3     1  UNL1       -0.0170
     17 C           2.1386    1.3579    2.2391 C.3     1  UNL1       -0.0601
     18 C           1.8228   -0.7314    1.0422 C.3     1  UNL1        0.0643
     19 C           0.4041   -0.8804    1.5316 C.3     1  UNL1        0.0113
     20 C          -0.7318   -0.3503    0.7554 C.3     1  UNL1        0.1103
     21 O          -1.8679   -0.7062    1.6179 O.3     1  UNL1       -0.4608
     22 C          -2.5144    0.2168    2.3943 C.2     1  UNL1        0.3098
     23 O          -2.0417    1.3531    2.2900 O.2     1  UNL1       -0.2507
     24 C          -3.6630   -0.3183    3.2250 C.3     1  UNL1        0.0709
     25 C          -4.1225    0.6996    4.1987 C.3     1  UNL1        0.0653
     26 O          -4.4921    1.8486    3.4486 O.3     1  UNL1       -0.3912
     27 C          -5.3738    0.2689    4.8964 C.3     1  UNL1       -0.0260
     28 C          -6.6540    0.3668    4.1830 C.3     1  UNL1       -0.0440
     29 C          -6.8497   -0.3023    2.8726 C.3     1  UNL1        0.0059
     30 C          -8.3074   -0.0255    2.5027 C.2     1  UNL1        0.1340
     31 O          -8.8200    0.5550    3.4388 O.2     1  UNL1       -0.2974
     32 C          -8.6251   -0.5447    1.1378 C.3     1  UNL1        0.0139
     33 C         -10.0573   -0.1748    0.7984 C.3     1  UNL1        0.0083
     34 C         -11.0673   -0.7934    1.7263 C.3     1  UNL1       -0.0565
     35 C         -10.3194   -0.5177   -0.6113 C.ar    1  UNL1        0.0831
     36 C         -11.0553   -1.2180   -1.5748 C.ar    1  UNL1        0.1160
     37 O         -10.5654   -0.9190   -2.7684 O.2     1  UNL1       -0.4421
     38 C          -9.5661   -0.0692   -2.5749 C.ar    1  UNL1        0.2493
     39 N          -9.3730    0.2094   -1.2794 N.ar    1  UNL1       -0.2123
     40 C          -8.6788    0.5824   -3.5403 C.ar    1  UNL1        0.1641
     41 C          -8.8166    0.9115   -4.8655 C.ar    1  UNL1        0.1251
     42 O          -7.6797    1.4953   -5.2395 O.2     1  UNL1       -0.4416
     43 C          -6.8578    1.5407   -4.2181 C.ar    1  UNL1        0.2498
     44 N          -7.4449    0.9811   -3.1417 N.ar    1  UNL1       -0.2028
     45 C          -5.4884    2.0829   -4.1137 C.ar    1  UNL1        0.1640
     46 C          -4.9595    3.2034   -4.7597 C.ar    1  UNL1        0.1250
     47 O          -3.7217    3.2628   -4.3362 O.2     1  UNL1       -0.4433
     48 C          -3.4471    2.2958   -3.5023 C.ar    1  UNL1        0.2202
     49 N          -4.5393    1.5233   -3.3331 N.ar    1  UNL1       -0.2047
     50 C          -2.1851    1.9924   -2.7960 C.2     1  UNL1       -0.0035
     51 C          -1.4195    0.9540   -3.0093 C.2     1  UNL1       -0.0765
     52 C          -0.1189    0.5097   -2.3818 C.3     1  UNL1       -0.0075
     53 C          -0.2807   -0.8332   -1.7267 C.3     1  UNL1        0.0677
     54 O          -0.7316   -1.7258   -2.7300 O.3     1  UNL1       -0.3791
     55 C           0.3373   -2.5937   -3.0529 C.3     1  UNL1        0.0368
     56 C          -1.1059   -0.9469   -0.5331 C.3     1  UNL1        0.0199
     57 C          -1.4468   -2.4513   -0.3994 C.3     1  UNL1       -0.0567
     58 O           2.5574   -1.1989    2.2078 O.3     1  UNL1       -0.3794
     59 C           2.9984   -2.4823    1.9166 C.3     1  UNL1        0.0368
     60 N           9.4145    2.4198    1.1721 N.pl3   1  UNL1       -0.3168
     61 C           9.2746    2.9202   -0.1847 C.3     1  UNL1        0.0022
     62 C          10.5758    2.8491    1.9339 C.3     1  UNL1        0.1098
     63 O          10.0905    3.5407    3.0580 O.3     1  UNL1       -0.3770
     64 H           8.1223    2.0296    2.6060 H       1  UNL1        0.0777
     65 H           7.1527    0.0211    1.9317 H       1  UNL1        0.0588
     66 H           9.0079    0.3190   -0.5436 H       1  UNL1        0.0377
     67 H           8.4412   -2.1350    1.2234 H       1  UNL1        0.0237
     68 H           9.9051   -1.2281    0.8866 H       1  UNL1        0.0237
     69 H           9.2822   -2.2104   -0.4264 H       1  UNL1        0.0237
     70 H           6.8013    0.6271   -1.2365 H       1  UNL1        0.0746
     71 H           7.0233   -2.1332   -4.5419 H       1  UNL1        0.0342
     72 H           8.7192   -2.1204   -3.9871 H       1  UNL1        0.0342
     73 H           8.1714   -1.0030   -5.3015 H       1  UNL1        0.0342
     74 H           5.7210   -0.6120    0.7515 H       1  UNL1        0.0411
     75 H           7.0427   -2.8658   -0.5551 H       1  UNL1        0.0238
     76 H           6.1882   -2.7748    1.0099 H       1  UNL1        0.0238
     77 H           5.3130   -3.1314   -0.5571 H       1  UNL1        0.0238
     78 H           3.5343    0.9592   -1.7939 H       1  UNL1        0.0342
     79 H           5.0750    1.2800   -1.0502 H       1  UNL1        0.0342
     80 H           4.3251    0.8233    1.1990 H       1  UNL1        0.0273
     81 H           3.5640    2.2125    0.4586 H       1  UNL1        0.0273
     82 H           1.4854    1.2225    0.2017 H       1  UNL1        0.0323
     83 H           2.9302    0.9967    2.8842 H       1  UNL1        0.0233
     84 H           2.3678    2.4224    1.9675 H       1  UNL1        0.0233
     85 H           1.1201    1.3517    2.6041 H       1  UNL1        0.0233
     86 H           2.0264   -1.5001    0.3253 H       1  UNL1        0.0599
     87 H           0.3762   -0.4986    2.5779 H       1  UNL1        0.0326
     88 H           0.2810   -1.9962    1.6824 H       1  UNL1        0.0326
     89 H          -0.6207    0.7573    0.7788 H       1  UNL1        0.0738
     90 H          -4.3773   -0.7379    2.5466 H       1  UNL1        0.0403
     91 H          -3.1974   -1.2192    3.7524 H       1  UNL1        0.0403
     92 H          -3.3268    1.0109    4.9156 H       1  UNL1        0.0598
     93 H          -4.4568    1.6512    2.5012 H       1  UNL1        0.2098
     94 H          -5.2798   -0.8204    5.2343 H       1  UNL1        0.0290
     95 H          -5.4648    0.7894    5.9087 H       1  UNL1        0.0290
     96 H          -6.9539    1.4588    4.0007 H       1  UNL1        0.0270
     97 H          -7.4542   -0.0669    4.8756 H       1  UNL1        0.0270
     98 H          -6.6403   -1.3674    2.8123 H       1  UNL1        0.0342
     99 H          -6.3107    0.2088    2.0356 H       1  UNL1        0.0342
    100 H          -8.5050   -1.6469    1.1534 H       1  UNL1        0.0348
    101 H          -7.9243   -0.0253    0.4534 H       1  UNL1        0.0348
    102 H         -10.1506    0.9429    0.9871 H       1  UNL1        0.0366
    103 H         -10.6897   -0.8093    2.7719 H       1  UNL1        0.0236
    104 H         -11.9902   -0.1774    1.7636 H       1  UNL1        0.0236
    105 H         -11.2824   -1.8676    1.4863 H       1  UNL1        0.0236
    106 H         -11.8211   -1.8152   -1.1300 H       1  UNL1        0.1049
    107 H          -9.6897    0.7301   -5.4938 H       1  UNL1        0.1054
    108 H          -5.4587    3.8825   -5.4615 H       1  UNL1        0.1054
    109 H          -2.0009    2.7720   -2.0720 H       1  UNL1        0.0668
    110 H          -1.7975    0.2841   -3.7977 H       1  UNL1        0.0574
    111 H           0.3237    1.2741   -1.7782 H       1  UNL1        0.0333
    112 H           0.5649    0.3587   -3.2498 H       1  UNL1        0.0333
    113 H           0.7774   -1.1909   -1.5485 H       1  UNL1        0.0603
    114 H           0.6323   -3.1356   -2.1589 H       1  UNL1        0.0524
    115 H           1.1751   -1.9304   -3.4052 H       1  UNL1        0.0524
    116 H           0.0254   -3.2795   -3.8708 H       1  UNL1        0.0524
    117 H          -2.1443   -0.5404   -0.8382 H       1  UNL1        0.0359
    118 H          -1.6227   -2.7951   -1.4360 H       1  UNL1        0.0234
    119 H          -0.6182   -3.0286    0.0045 H       1  UNL1        0.0234
    120 H          -2.4256   -2.5715    0.1005 H       1  UNL1        0.0234
    121 H           3.6250   -2.5785    1.0468 H       1  UNL1        0.0524
    122 H           3.5566   -2.8356    2.8254 H       1  UNL1        0.0524
    123 H           2.1061   -3.1808    1.8452 H       1  UNL1        0.0524
    124 H          10.1302    2.5004   -0.7510 H       1  UNL1        0.0428
    125 H           8.3065    2.5948   -0.6597 H       1  UNL1        0.0428
    126 H           9.2413    4.0384   -0.2234 H       1  UNL1        0.0428
    127 H          11.1812    3.5714    1.3598 H       1  UNL1        0.0768
    128 H          11.1389    1.9464    2.2461 H       1  UNL1        0.0768
    129 H           9.9333    2.8729    3.7655 H       1  UNL1        0.2115
@<TRIPOS>BOND
     1     1     2    2
     2     2     3    1
     3     3     4    1
     4     3     5    1
     5     5     6    1
     6     6     7    1
     7     7     8    1
     8     7     9    2
     9     5    10    1
    10    10    11    1
    11    10    12    1
    12    12    13    2
    13    12    14    1
    14    14    15    1
    15    15    16    1
    16    16    17    1
    17    16    18    1
    18    18    19    1
    19    19    20    1
    20    20    21    1
    21    21    22    1
    22    22    23    2
    23    22    24    1
    24    24    25    1
    25    25    26    1
    26    25    27    1
    27    27    28    1
    28    28    29    1
    29    29    30    1
    30    30    31    2
    31    30    32    1
    32    32    33    1
    33    33    34    1
    34    33    35    1
    35    35    36   ar
    36    36    37   ar
    37    37    38   ar
    38    38    39   ar
    39    38    40    1
    40    40    41   ar
    41    41    42   ar
    42    42    43   ar
    43    43    44   ar
    44    43    45    1
    45    45    46   ar
    46    46    47   ar
    47    47    48   ar
    48    48    49   ar
    49    48    50    1
    50    50    51    2
    51    51    52    1
    52    52    53    1
    53    53    54    1
    54    54    55    1
    55    53    56    1
    56    56    57    1
    57    18    58    1
    58    58    59    1
    59     1    60    1
    60    60    61    1
    61    60    62    1
    62    62    63    1
    63    56    20    1
    64    39    35   ar
    65    44    40   ar
    66    49    45   ar
    67     1    64    1
    68     2    65    1
    69     3    66    1
    70     4    67    1
    71     4    68    1
    72     4    69    1
    73     5    70    1
    74     8    71    1
    75     8    72    1
    76     8    73    1
    77    10    74    1
    78    11    75    1
    79    11    76    1
    80    11    77    1
    81    14    78    1
    82    14    79    1
    83    15    80    1
    84    15    81    1
    85    16    82    1
    86    17    83    1
    87    17    84    1
    88    17    85    1
    89    18    86    1
    90    19    87    1
    91    19    88    1
    92    20    89    1
    93    24    90    1
    94    24    91    1
    95    25    92    1
    96    26    93    1
    97    27    94    1
    98    27    95    1
    99    28    96    1
   100    28    97    1
   101    29    98    1
   102    29    99    1
   103    32   100    1
   104    32   101    1
   105    33   102    1
   106    34   103    1
   107    34   104    1
   108    34   105    1
   109    36   106    1
   110    41   107    1
   111    46   108    1
   112    50   109    1
   113    51   110    1
   114    52   111    1
   115    52   112    1
   116    53   113    1
   117    55   114    1
   118    55   115    1
   119    55   116    1
   120    56   117    1
   121    57   118    1
   122    57   119    1
   123    57   120    1
   124    59   121    1
   125    59   122    1
   126    59   123    1
   127    61   124    1
   128    61   125    1
   129    61   126    1
   130    62   127    1
   131    62   128    1
   132    63   129    1
