
     RDKit          3D

 55 58  0  0  0  0  0  0  0  0999 V2000
   -3.3947    1.4212   -2.6107 C   0  0  0  0  0  0  0  0  0  0  0  0
   -4.0106    0.8604   -1.3960 C   0  0  0  0  0  0  0  0  0  0  0  0
   -5.3493    0.8737   -1.2659 N   0  0  0  0  0  0  0  0  0  0  0  0
   -5.9230    0.3522   -0.1376 C   0  0  0  0  0  0  0  0  0  0  0  0
   -7.2915    0.3553   -0.0062 C   0  0  0  0  0  0  0  0  0  0  0  0
   -7.8664   -0.1777    1.1237 C   0  0  0  0  0  0  0  0  0  0  0  0
   -7.0742   -0.7076    2.1112 C   0  0  0  0  0  0  0  0  0  0  0  0
   -5.6709   -0.7383    2.0334 C   0  0  0  0  0  0  0  0  0  0  0  0
   -4.8680   -1.2873    3.1311 C   0  0  0  0  0  0  0  0  0  0  0  0
   -4.0456   -0.4180    3.7801 F   0  0  0  0  0  0  0  0  0  0  0  0
   -4.2896   -2.5076    2.8292 F   0  0  0  0  0  0  0  0  0  0  0  0
   -5.7935   -1.6429    4.1346 F   0  0  0  0  0  0  0  0  0  0  0  0
   -5.1386   -0.1885    0.8708 C   0  0  0  0  0  0  0  0  0  0  0  0
   -3.7702   -0.1833    0.6975 C   0  0  0  0  0  0  0  0  0  0  0  0
   -3.0412   -0.6597    1.5753 O   0  0  0  0  0  0  0  0  0  0  0  0
   -3.2501    0.3414   -0.4308 N   0  0  0  0  0  0  0  0  0  0  0  0
   -1.8419    0.3237   -0.5638 C   0  0  0  0  0  0  0  0  0  0  0  0
   -1.0993   -0.8447   -0.4761 C   0  0  0  0  0  0  0  0  0  0  0  0
    0.2652   -0.8221   -0.6114 C   0  0  0  0  0  0  0  0  0  0  0  0
    0.9719    0.3404   -0.8386 C   0  0  0  0  0  0  0  0  0  0  0  0
    2.3508    0.3368   -0.9721 O   0  0  0  0  0  0  0  0  0  0  0  0
    2.9993    1.5526   -1.2012 C   0  0  0  0  0  0  0  0  0  0  0  0
    4.4850    1.4316   -1.3298 C   0  0  0  0  0  0  0  0  0  0  0  0
    5.1684    0.8749   -0.1368 C   0  0  0  0  0  0  0  0  0  0  0  0
    4.7944   -0.4219    0.2745 N   0  0  0  0  0  0  0  0  0  0  0  0
    5.1303   -1.5065   -0.5605 C   0  0  0  0  0  0  0  0  0  0  0  0
    6.5307   -1.9469   -0.2543 C   0  0  0  0  0  0  0  0  0  0  0  0
    6.9131   -1.1397    0.9446 C   0  0  0  0  0  0  0  0  0  0  0  0
    5.5590   -0.7247    1.4974 C   0  0  0  0  0  0  0  0  0  0  0  0
    0.2243    1.5083   -0.9255 C   0  0  0  0  0  0  0  0  0  0  0  0
   -1.1506    1.4942   -0.7905 C   0  0  0  0  0  0  0  0  0  0  0  0
   -4.0368    1.1919   -3.5120 H   0  0  0  0  0  0  0  0  0  0  0  0
   -3.3720    2.5485   -2.5843 H   0  0  0  0  0  0  0  0  0  0  0  0
   -2.4125    1.0030   -2.8469 H   0  0  0  0  0  0  0  0  0  0  0  0
   -7.9071    0.7814   -0.8013 H   0  0  0  0  0  0  0  0  0  0  0  0
   -8.9546   -0.1912    1.2581 H   0  0  0  0  0  0  0  0  0  0  0  0
   -7.5492   -1.1186    2.9856 H   0  0  0  0  0  0  0  0  0  0  0  0
   -1.6378   -1.7698   -0.2978 H   0  0  0  0  0  0  0  0  0  0  0  0
    0.7969   -1.7685   -0.5337 H   0  0  0  0  0  0  0  0  0  0  0  0
    2.6250    2.0976   -2.0839 H   0  0  0  0  0  0  0  0  0  0  0  0
    2.7952    2.2073   -0.3246 H   0  0  0  0  0  0  0  0  0  0  0  0
    4.7911    0.9328   -2.2889 H   0  0  0  0  0  0  0  0  0  0  0  0
    4.8677    2.4899   -1.4559 H   0  0  0  0  0  0  0  0  0  0  0  0
    6.2793    0.9578   -0.3207 H   0  0  0  0  0  0  0  0  0  0  0  0
    4.9766    1.5820    0.7169 H   0  0  0  0  0  0  0  0  0  0  0  0
    4.4508   -2.3700   -0.2898 H   0  0  0  0  0  0  0  0  0  0  0  0
    4.9634   -1.3471   -1.6420 H   0  0  0  0  0  0  0  0  0  0  0  0
    7.2311   -1.8379   -1.1048 H   0  0  0  0  0  0  0  0  0  0  0  0
    6.5914   -3.0286    0.0499 H   0  0  0  0  0  0  0  0  0  0  0  0
    7.4755   -1.7548    1.7010 H   0  0  0  0  0  0  0  0  0  0  0  0
    7.5483   -0.2843    0.6977 H   0  0  0  0  0  0  0  0  0  0  0  0
    5.7423    0.2113    2.0726 H   0  0  0  0  0  0  0  0  0  0  0  0
    5.1183   -1.5332    2.0797 H   0  0  0  0  0  0  0  0  0  0  0  0
    0.7961    2.4154   -1.1049 H   0  0  0  0  0  0  0  0  0  0  0  0
   -1.7022    2.4359   -0.8655 H   0  0  0  0  0  0  0  0  0  0  0  0
  1  2  1  0
  2  3  2  0
  3  4  1  0
  4  5  2  0
  5  6  1  0
  6  7  2  0
  7  8  1  0
  8  9  1  0
  9 10  1  0
  9 11  1  0
  9 12  1  0
  8 13  2  0
 13 14  1  0
 14 15  2  0
 14 16  1  0
 16 17  1  0
 17 18  2  0
 18 19  1  0
 19 20  2  0
 20 21  1  0
 21 22  1  0
 22 23  1  0
 23 24  1  0
 24 25  1  0
 25 26  1  0
 26 27  1  0
 27 28  1  0
 28 29  1  0
 20 30  1  0
 30 31  2  0
 16  2  1  0
 31 17  1  0
 13  4  1  0
 29 25  1  0
  1 32  1  0
  1 33  1  0
  1 34  1  0
  5 35  1  0
  6 36  1  0
  7 37  1  0
 18 38  1  0
 19 39  1  0
 22 40  1  0
 22 41  1  0
 23 42  1  0
 23 43  1  0
 24 44  1  0
 24 45  1  0
 26 46  1  0
 26 47  1  0
 27 48  1  0
 27 49  1  0
 28 50  1  0
 28 51  1  0
 29 52  1  0
 29 53  1  0
 30 54  1  0
 31 55  1  0
M  END
$$$$
