@<TRIPOS>MOLECULE
*****
 55 58 0 0 0
SMALL
GASTEIGER

@<TRIPOS>ATOM
      1 C          -3.3947    1.4212   -2.6107 C.3     1  UNL1       -0.0058
      2 C          -4.0106    0.8604   -1.3960 C.ar    1  UNL1        0.1144
      3 N          -5.3493    0.8737   -1.2659 N.ar    1  UNL1       -0.2334
      4 C          -5.9230    0.3522   -0.1376 C.ar    1  UNL1        0.0787
      5 C          -7.2915    0.3553   -0.0062 C.ar    1  UNL1       -0.0355
      6 C          -7.8664   -0.1777    1.1237 C.ar    1  UNL1       -0.0592
      7 C          -7.0742   -0.7076    2.1112 C.ar    1  UNL1       -0.0492
      8 C          -5.6709   -0.7383    2.0334 C.ar    1  UNL1        0.0692
      9 C          -4.8680   -1.2873    3.1311 C.3     1  UNL1        0.4182
     10 F          -4.0456   -0.4180    3.7801 F       1  UNL1       -0.1659
     11 F          -4.2896   -2.5076    2.8292 F       1  UNL1       -0.1659
     12 F          -5.7935   -1.6429    4.1346 F       1  UNL1       -0.1659
     13 C          -5.1386   -0.1885    0.8708 C.ar    1  UNL1        0.0768
     14 C          -3.7702   -0.1833    0.6975 C.ar    1  UNL1        0.2668
     15 O          -3.0412   -0.6597    1.5753 O.2     1  UNL1       -0.2666
     16 N          -3.2501    0.3414   -0.4308 N.ar    1  UNL1       -0.2646
     17 C          -1.8419    0.3237   -0.5638 C.ar    1  UNL1        0.0514
     18 C          -1.0993   -0.8447   -0.4761 C.ar    1  UNL1       -0.0342
     19 C           0.2652   -0.8221   -0.6114 C.ar    1  UNL1       -0.0180
     20 C           0.9719    0.3404   -0.8386 C.ar    1  UNL1        0.1206
     21 O           2.3508    0.3368   -0.9721 O.3     1  UNL1       -0.4919
     22 C           2.9993    1.5526   -1.2012 C.3     1  UNL1        0.0907
     23 C           4.4850    1.4316   -1.3298 C.3     1  UNL1       -0.0058
     24 C           5.1684    0.8749   -0.1368 C.3     1  UNL1        0.0020
     25 N           4.7944   -0.4219    0.2745 N.3     1  UNL1       -0.3022
     26 C           5.1303   -1.5065   -0.5605 C.3     1  UNL1       -0.0011
     27 C           6.5307   -1.9469   -0.2543 C.3     1  UNL1       -0.0390
     28 C           6.9131   -1.1397    0.9446 C.3     1  UNL1       -0.0390
     29 C           5.5590   -0.7247    1.4974 C.3     1  UNL1       -0.0011
     30 C           0.2243    1.5083   -0.9255 C.ar    1  UNL1       -0.0180
     31 C          -1.1506    1.4942   -0.7905 C.ar    1  UNL1       -0.0342
     32 H          -4.0368    1.1919   -3.5120 H       1  UNL1        0.0308
     33 H          -3.3720    2.5485   -2.5843 H       1  UNL1        0.0308
     34 H          -2.4125    1.0030   -2.8469 H       1  UNL1        0.0308
     35 H          -7.9071    0.7814   -0.8013 H       1  UNL1        0.0639
     36 H          -8.9546   -0.1912    1.2581 H       1  UNL1        0.0618
     37 H          -7.5492   -1.1186    2.9856 H       1  UNL1        0.0623
     38 H          -1.6378   -1.7698   -0.2978 H       1  UNL1        0.0639
     39 H           0.7969   -1.7685   -0.5337 H       1  UNL1        0.0655
     40 H           2.6250    2.0976   -2.0839 H       1  UNL1        0.0697
     41 H           2.7952    2.2073   -0.3246 H       1  UNL1        0.0697
     42 H           4.7911    0.9328   -2.2889 H       1  UNL1        0.0310
     43 H           4.8677    2.4899   -1.4559 H       1  UNL1        0.0310
     44 H           6.2793    0.9578   -0.3207 H       1  UNL1        0.0428
     45 H           4.9766    1.5820    0.7169 H       1  UNL1        0.0428
     46 H           4.4508   -2.3700   -0.2898 H       1  UNL1        0.0426
     47 H           4.9634   -1.3471   -1.6420 H       1  UNL1        0.0426
     48 H           7.2311   -1.8379   -1.1048 H       1  UNL1        0.0278
     49 H           6.5914   -3.0286    0.0499 H       1  UNL1        0.0278
     50 H           7.4755   -1.7548    1.7010 H       1  UNL1        0.0278
     51 H           7.5483   -0.2843    0.6977 H       1  UNL1        0.0278
     52 H           5.7423    0.2113    2.0726 H       1  UNL1        0.0426
     53 H           5.1183   -1.5332    2.0797 H       1  UNL1        0.0426
     54 H           0.7961    2.4154   -1.1049 H       1  UNL1        0.0655
     55 H          -1.7022    2.4359   -0.8655 H       1  UNL1        0.0639
@<TRIPOS>BOND
     1     1     2    1
     2     2     3   ar
     3     3     4   ar
     4     4     5   ar
     5     5     6   ar
     6     6     7   ar
     7     7     8   ar
     8     8     9    1
     9     9    10    1
    10     9    11    1
    11     9    12    1
    12     8    13   ar
    13    13    14   ar
    14    14    15    2
    15    14    16   ar
    16    16    17    1
    17    17    18   ar
    18    18    19   ar
    19    19    20   ar
    20    20    21    1
    21    21    22    1
    22    22    23    1
    23    23    24    1
    24    24    25    1
    25    25    26    1
    26    26    27    1
    27    27    28    1
    28    28    29    1
    29    20    30   ar
    30    30    31   ar
    31    16     2   ar
    32    31    17   ar
    33    13     4   ar
    34    29    25    1
    35     1    32    1
    36     1    33    1
    37     1    34    1
    38     5    35    1
    39     6    36    1
    40     7    37    1
    41    18    38    1
    42    19    39    1
    43    22    40    1
    44    22    41    1
    45    23    42    1
    46    23    43    1
    47    24    44    1
    48    24    45    1
    49    26    46    1
    50    26    47    1
    51    27    48    1
    52    27    49    1
    53    28    50    1
    54    28    51    1
    55    29    52    1
    56    29    53    1
    57    30    54    1
    58    31    55    1
