@<TRIPOS>MOLECULE
*****
 50 52 0 0 0
SMALL
GASTEIGER

@<TRIPOS>ATOM
      1 C           5.7388   -0.8239    1.3924 C.3     1  UNL1       -0.0127
      2 N           5.7636   -1.7238    0.2541 N.3     1  UNL1       -0.3042
      3 C           6.7308   -2.7632    0.5613 C.3     1  UNL1       -0.0127
      4 C           4.4632   -2.3613    0.1929 C.3     1  UNL1        0.0235
      5 C           3.3664   -1.3680    0.0218 C.ar    1  UNL1       -0.0333
      6 C           2.9627   -1.0033   -1.2525 C.ar    1  UNL1       -0.0566
      7 C           1.9405   -0.0775   -1.4045 C.ar    1  UNL1       -0.0493
      8 C           1.3015    0.5020   -0.3365 C.ar    1  UNL1        0.0370
      9 C           0.2406    1.4627   -0.5587 C.2     1  UNL1        0.2483
     10 O          -0.0780    1.7504   -1.7409 O.2     1  UNL1       -0.2699
     11 N          -0.4839    2.1197    0.4671 N.am    1  UNL1       -0.2808
     12 C          -1.5145    3.0529    0.1467 C.ar    1  UNL1        0.0459
     13 C          -1.1865    4.3930   -0.0053 C.ar    1  UNL1       -0.0384
     14 C          -2.2080    5.2782   -0.3167 C.ar    1  UNL1       -0.0416
     15 C          -3.5116    4.8565   -0.4734 C.ar    1  UNL1        0.0418
     16 CL         -4.7822    5.9993   -0.8672 Cl      1  UNL1       -0.0835
     17 C          -3.7810    3.5048   -0.3096 C.ar    1  UNL1       -0.0295
     18 C          -2.8021    2.5915   -0.0011 C.ar    1  UNL1        0.0596
     19 C          -3.0393    1.1673    0.1794 C.2     1  UNL1        0.2511
     20 O          -2.0978    0.3705    0.4634 O.2     1  UNL1       -0.2697
     21 N          -4.3240    0.5787    0.0520 N.am    1  UNL1       -0.2663
     22 C          -4.5418   -0.8221    0.2322 C.ar    1  UNL1        0.1252
     23 C          -5.8183   -1.3199    0.0920 C.ar    1  UNL1       -0.0201
     24 C          -6.1254   -2.6588    0.2474 C.ar    1  UNL1       -0.0387
     25 C          -5.0781   -3.5097    0.5578 C.ar    1  UNL1        0.0592
     26 CL         -5.3633   -5.2399    0.7777 Cl      1  UNL1       -0.0820
     27 C          -3.8245   -2.9731    0.6881 C.ar    1  UNL1        0.0480
     28 N          -3.5578   -1.6622    0.5301 N.ar    1  UNL1       -0.2387
     29 C           1.6965    0.1451    0.9288 C.ar    1  UNL1       -0.0493
     30 C           2.7255   -0.7868    1.0975 C.ar    1  UNL1       -0.0566
     31 H           5.0653    0.0071    1.1751 H       1  UNL1        0.0391
     32 H           6.7851   -0.5098    1.5839 H       1  UNL1        0.0391
     33 H           5.4365   -1.4222    2.2876 H       1  UNL1        0.0391
     34 H           6.5364   -3.6624   -0.0453 H       1  UNL1        0.0391
     35 H           7.7391   -2.3231    0.3879 H       1  UNL1        0.0391
     36 H           6.6222   -3.0756    1.6362 H       1  UNL1        0.0391
     37 H           4.2245   -2.9437    1.0950 H       1  UNL1        0.0475
     38 H           4.4699   -2.9924   -0.7277 H       1  UNL1        0.0475
     39 H           3.4588   -1.4531   -2.1174 H       1  UNL1        0.0621
     40 H           1.6218    0.2104   -2.4002 H       1  UNL1        0.0625
     41 H          -0.2305    1.8910    1.4543 H       1  UNL1        0.1552
     42 H          -0.1702    4.7464    0.1131 H       1  UNL1        0.0637
     43 H          -1.9686    6.3372   -0.4401 H       1  UNL1        0.0633
     44 H          -4.7871    3.1768   -0.4301 H       1  UNL1        0.0640
     45 H          -5.1216    1.2006   -0.1804 H       1  UNL1        0.1566
     46 H          -6.6616   -0.6713   -0.1523 H       1  UNL1        0.0652
     47 H          -7.1215   -3.0455    0.1377 H       1  UNL1        0.0634
     48 H          -3.0040   -3.6256    0.9291 H       1  UNL1        0.0845
     49 H           1.2488    0.5512    1.8206 H       1  UNL1        0.0625
     50 H           3.0446   -1.0752    2.0952 H       1  UNL1        0.0621
@<TRIPOS>BOND
     1     1     2    1
     2     2     3    1
     3     2     4    1
     4     4     5    1
     5     5     6   ar
     6     6     7   ar
     7     7     8   ar
     8     8     9    1
     9     9    10    2
    10     9    11   am
    11    11    12    1
    12    12    13   ar
    13    13    14   ar
    14    14    15   ar
    15    15    16    1
    16    15    17   ar
    17    17    18   ar
    18    18    19    1
    19    19    20    2
    20    19    21   am
    21    21    22    1
    22    22    23   ar
    23    23    24   ar
    24    24    25   ar
    25    25    26    1
    26    25    27   ar
    27    27    28   ar
    28     8    29   ar
    29    29    30   ar
    30    30     5   ar
    31    18    12   ar
    32    28    22   ar
    33     1    31    1
    34     1    32    1
    35     1    33    1
    36     3    34    1
    37     3    35    1
    38     3    36    1
    39     4    37    1
    40     4    38    1
    41     6    39    1
    42     7    40    1
    43    11    41    1
    44    13    42    1
    45    14    43    1
    46    17    44    1
    47    21    45    1
    48    23    46    1
    49    24    47    1
    50    27    48    1
    51    29    49    1
    52    30    50    1
