
     RDKit          3D

 76 82  0  0  0  0  0  0  0  0999 V2000
    7.6764    3.2084   -2.6305 C   0  0  0  0  0  0  0  0  0  0  0  0
    6.2229    3.0953   -2.2668 C   0  0  0  0  0  0  0  0  0  0  0  0
    5.8772    1.7617   -1.9392 N   0  0  0  0  0  0  0  0  0  0  0  0
    6.4242    1.2078   -0.7513 C   0  0  0  0  0  0  0  0  0  0  0  0
    6.3844   -0.2925   -0.8246 C   0  0  0  0  0  0  0  0  0  0  0  0
    5.0838   -0.7788   -1.2779 N   0  0  0  0  0  0  0  0  0  0  0  0
    4.0769   -0.1735   -0.4455 C   0  0  0  0  0  0  0  0  0  0  0  0
    2.7131   -0.6876   -0.6931 C   0  0  0  0  0  0  0  0  0  0  0  0
    2.5290   -1.5703   -1.5479 O   0  0  0  0  0  0  0  0  0  0  0  0
    1.5838   -0.1741    0.0525 N   0  0  0  0  0  0  0  0  0  0  0  0
    0.2751   -0.6600   -0.1604 C   0  0  0  0  0  0  0  0  0  0  0  0
   -0.4112   -0.1026   -1.2126 C   0  0  0  0  0  0  0  0  0  0  0  0
   -1.6796   -0.4296   -1.5834 C   0  0  0  0  0  0  0  0  0  0  0  0
   -2.3047   -1.3968   -0.8323 C   0  0  0  0  0  0  0  0  0  0  0  0
   -3.6447   -1.8599   -1.0877 C   0  0  0  0  0  0  0  0  0  0  0  0
   -3.9270   -2.9328   -1.9111 C   0  0  0  0  0  0  0  0  0  0  0  0
   -5.2279   -3.3368   -2.1137 C   0  0  0  0  0  0  0  0  0  0  0  0
   -6.2682   -2.6536   -1.4800 C   0  0  0  0  0  0  0  0  0  0  0  0
   -6.0114   -1.5890   -0.6615 C   0  0  0  0  0  0  0  0  0  0  0  0
   -7.0391   -0.8896   -0.0177 C   0  0  0  0  0  0  0  0  0  0  0  0
   -8.2189   -1.2360   -0.1853 O   0  0  0  0  0  0  0  0  0  0  0  0
   -6.6391    0.1642    0.7783 C   0  0  0  0  0  0  0  0  0  0  0  0
   -5.3171    0.5240    0.9442 C   0  0  0  0  0  0  0  0  0  0  0  0
   -4.9776    1.6327    1.7877 N   0  0  0  0  0  0  0  0  0  0  0  0
   -4.9266    2.9527    1.1625 C   0  0  0  0  0  0  0  0  0  0  0  0
   -4.8209    4.0438    2.1972 C   0  0  0  0  0  0  0  0  0  0  0  0
   -3.9735    3.6748    3.2150 O   0  0  0  0  0  0  0  0  0  0  0  0
   -4.6499    2.6963    3.9663 C   0  0  0  0  0  0  0  0  0  0  0  0
   -4.7087    1.4006    3.1710 C   0  0  0  0  0  0  0  0  0  0  0  0
   -4.4046   -0.1716    0.3141 O   0  0  0  0  0  0  0  0  0  0  0  0
   -4.7073   -1.1937   -0.4658 C   0  0  0  0  0  0  0  0  0  0  0  0
   -1.6229   -1.9669    0.2326 C   0  0  0  0  0  0  0  0  0  0  0  0
   -2.1275   -3.2483    1.4240 S   0  0  0  0  0  0  0  0  0  0  0  0
   -0.5638   -3.2542    2.3599 C   0  0  0  0  0  0  0  0  0  0  0  0
   -0.2147   -3.9885    3.4285 C   0  0  0  0  0  0  0  0  0  0  0  0
    1.0315   -3.8151    3.9773 C   0  0  0  0  0  0  0  0  0  0  0  0
    1.8403   -2.8892    3.3828 C   0  0  0  0  0  0  0  0  0  0  0  0
    1.4630   -2.1527    2.2945 C   0  0  0  0  0  0  0  0  0  0  0  0
    0.1715   -2.3078    1.6957 C   0  0  0  0  0  0  0  0  0  0  0  0
   -0.3425   -1.6589    0.6335 C   0  0  0  0  0  0  0  0  0  0  0  0
    4.8425   -0.3393   -2.6469 C   0  0  0  0  0  0  0  0  0  0  0  0
    5.7498    0.8304   -2.9962 C   0  0  0  0  0  0  0  0  0  0  0  0
    7.7717    3.7185   -3.6064 H   0  0  0  0  0  0  0  0  0  0  0  0
    8.2088    3.8213   -1.8451 H   0  0  0  0  0  0  0  0  0  0  0  0
    8.1731    2.2173   -2.7052 H   0  0  0  0  0  0  0  0  0  0  0  0
    6.0140    3.7716   -1.3865 H   0  0  0  0  0  0  0  0  0  0  0  0
    5.6259    3.4863   -3.1234 H   0  0  0  0  0  0  0  0  0  0  0  0
    5.8776    1.5532    0.1624 H   0  0  0  0  0  0  0  0  0  0  0  0
    7.5123    1.4823   -0.6642 H   0  0  0  0  0  0  0  0  0  0  0  0
    6.6490   -0.6976    0.1629 H   0  0  0  0  0  0  0  0  0  0  0  0
    7.1646   -0.6100   -1.5644 H   0  0  0  0  0  0  0  0  0  0  0  0
    4.1239    0.9384   -0.6196 H   0  0  0  0  0  0  0  0  0  0  0  0
    4.2843   -0.3370    0.6349 H   0  0  0  0  0  0  0  0  0  0  0  0
    1.8321    0.5795    0.7453 H   0  0  0  0  0  0  0  0  0  0  0  0
    0.0755    0.6680   -1.8196 H   0  0  0  0  0  0  0  0  0  0  0  0
   -2.2112    0.0040   -2.4011 H   0  0  0  0  0  0  0  0  0  0  0  0
   -3.0823   -3.4307   -2.3814 H   0  0  0  0  0  0  0  0  0  0  0  0
   -5.4356   -4.1686   -2.7524 H   0  0  0  0  0  0  0  0  0  0  0  0
   -7.3022   -2.9569   -1.6263 H   0  0  0  0  0  0  0  0  0  0  0  0
   -7.3874    0.7449    1.3027 H   0  0  0  0  0  0  0  0  0  0  0  0
   -4.1481    3.0224    0.3829 H   0  0  0  0  0  0  0  0  0  0  0  0
   -5.9187    3.0986    0.6601 H   0  0  0  0  0  0  0  0  0  0  0  0
   -5.8268    4.2143    2.6579 H   0  0  0  0  0  0  0  0  0  0  0  0
   -4.5349    4.9811    1.6806 H   0  0  0  0  0  0  0  0  0  0  0  0
   -4.1451    2.5312    4.9202 H   0  0  0  0  0  0  0  0  0  0  0  0
   -5.6941    3.0274    4.1852 H   0  0  0  0  0  0  0  0  0  0  0  0
   -3.7033    0.9145    3.3129 H   0  0  0  0  0  0  0  0  0  0  0  0
   -5.4270    0.7354    3.6755 H   0  0  0  0  0  0  0  0  0  0  0  0
   -0.9456   -4.6966    3.8156 H   0  0  0  0  0  0  0  0  0  0  0  0
    1.3232   -4.4025    4.8389 H   0  0  0  0  0  0  0  0  0  0  0  0
    2.8309   -2.7438    3.8099 H   0  0  0  0  0  0  0  0  0  0  0  0
    2.1808   -1.4466    1.9202 H   0  0  0  0  0  0  0  0  0  0  0  0
    5.1344   -1.1790   -3.3065 H   0  0  0  0  0  0  0  0  0  0  0  0
    3.7825   -0.1105   -2.8294 H   0  0  0  0  0  0  0  0  0  0  0  0
    5.2591    1.3392   -3.8815 H   0  0  0  0  0  0  0  0  0  0  0  0
    6.7230    0.4877   -3.3760 H   0  0  0  0  0  0  0  0  0  0  0  0
  1  2  1  0
  2  3  1  0
  3  4  1  0
  4  5  1  0
  5  6  1  0
  6  7  1  0
  7  8  1  0
  8  9  2  0
  8 10  1  0
 10 11  1  0
 11 12  2  0
 12 13  1  0
 13 14  2  0
 14 15  1  0
 15 16  2  0
 16 17  1  0
 17 18  2  0
 18 19  1  0
 19 20  1  0
 20 21  2  0
 20 22  1  0
 22 23  2  0
 23 24  1  0
 24 25  1  0
 25 26  1  0
 26 27  1  0
 27 28  1  0
 28 29  1  0
 23 30  1  0
 30 31  1  0
 14 32  1  0
 32 33  1  0
 33 34  1  0
 34 35  2  0
 35 36  1  0
 36 37  2  0
 37 38  1  0
 38 39  2  0
 39 40  1  0
  6 41  1  0
 41 42  1  0
 42  3  1  0
 40 11  1  0
 31 15  1  0
 40 32  2  0
 31 19  2  0
 39 34  1  0
 29 24  1  0
  1 43  1  0
  1 44  1  0
  1 45  1  0
  2 46  1  0
  2 47  1  0
  4 48  1  0
  4 49  1  0
  5 50  1  0
  5 51  1  0
  7 52  1  0
  7 53  1  0
 10 54  1  0
 12 55  1  0
 13 56  1  0
 16 57  1  0
 17 58  1  0
 18 59  1  0
 22 60  1  0
 25 61  1  0
 25 62  1  0
 26 63  1  0
 26 64  1  0
 28 65  1  0
 28 66  1  0
 29 67  1  0
 29 68  1  0
 35 69  1  0
 36 70  1  0
 37 71  1  0
 38 72  1  0
 41 73  1  0
 41 74  1  0
 42 75  1  0
 42 76  1  0
M  END
$$$$
