@<TRIPOS>MOLECULE
*****
 76 82 0 0 0
SMALL
GASTEIGER

@<TRIPOS>ATOM
      1 C           7.6764    3.2084   -2.6305 C.3     1  UNL1       -0.0524
      2 C           6.2229    3.0953   -2.2668 C.3     1  UNL1       -0.0039
      3 N           5.8772    1.7617   -1.9392 N.3     1  UNL1       -0.3002
      4 C           6.4242    1.2078   -0.7513 C.3     1  UNL1        0.0117
      5 C           6.3844   -0.2925   -0.8246 C.3     1  UNL1        0.0122
      6 N           5.0838   -0.7788   -1.2779 N.3     1  UNL1       -0.2916
      7 C           4.0769   -0.1735   -0.4455 C.3     1  UNL1        0.0761
      8 C           2.7131   -0.6876   -0.6931 C.2     1  UNL1        0.2313
      9 O           2.5290   -1.5703   -1.5479 O.2     1  UNL1       -0.2741
     10 N           1.5838   -0.1741    0.0525 N.am    1  UNL1       -0.2839
     11 C           0.2751   -0.6600   -0.1604 C.ar    1  UNL1        0.0423
     12 C          -0.4112   -0.1026   -1.2126 C.ar    1  UNL1       -0.0392
     13 C          -1.6796   -0.4296   -1.5834 C.ar    1  UNL1       -0.0511
     14 C          -2.3047   -1.3968   -0.8323 C.ar    1  UNL1        0.0001
     15 C          -3.6447   -1.8599   -1.0877 C.ar    1  UNL1        0.0263
     16 C          -3.9270   -2.9328   -1.9111 C.ar    1  UNL1       -0.0504
     17 C          -5.2279   -3.3368   -2.1137 C.ar    1  UNL1       -0.0603
     18 C          -6.2682   -2.6536   -1.4800 C.ar    1  UNL1       -0.0473
     19 C          -6.0114   -1.5890   -0.6615 C.ar    1  UNL1        0.0647
     20 C          -7.0391   -0.8896   -0.0177 C.ar    1  UNL1        0.1944
     21 O          -8.2189   -1.2360   -0.1853 O.2     1  UNL1       -0.2870
     22 C          -6.6391    0.1642    0.7783 C.ar    1  UNL1        0.0434
     23 C          -5.3171    0.5240    0.9442 C.ar    1  UNL1        0.1931
     24 N          -4.9776    1.6327    1.7877 N.pl3   1  UNL1       -0.2969
     25 C          -4.9266    2.9527    1.1625 C.3     1  UNL1        0.0383
     26 C          -4.8209    4.0438    2.1972 C.3     1  UNL1        0.0635
     27 O          -3.9735    3.6748    3.2150 O.3     1  UNL1       -0.3767
     28 C          -4.6499    2.6963    3.9663 C.3     1  UNL1        0.0635
     29 C          -4.7087    1.4006    3.1710 C.3     1  UNL1        0.0383
     30 O          -4.4046   -0.1716    0.3141 O.2     1  UNL1       -0.4405
     31 C          -4.7073   -1.1937   -0.4658 C.ar    1  UNL1        0.1485
     32 C          -1.6229   -1.9669    0.2326 C.ar    1  UNL1        0.0301
     33 S          -2.1275   -3.2483    1.4240 S.2     1  UNL1       -0.0876
     34 C          -0.5638   -3.2542    2.3599 C.ar    1  UNL1        0.0206
     35 C          -0.2147   -3.9885    3.4285 C.ar    1  UNL1       -0.0474
     36 C           1.0315   -3.8151    3.9773 C.ar    1  UNL1       -0.0607
     37 C           1.8403   -2.8892    3.3828 C.ar    1  UNL1       -0.0611
     38 C           1.4630   -2.1527    2.2945 C.ar    1  UNL1       -0.0529
     39 C           0.1715   -2.3078    1.6957 C.ar    1  UNL1       -0.0013
     40 C          -0.3425   -1.6589    0.6335 C.ar    1  UNL1        0.0187
     41 C           4.8425   -0.3393   -2.6469 C.3     1  UNL1        0.0122
     42 C           5.7498    0.8304   -2.9962 C.3     1  UNL1        0.0117
     43 H           7.7717    3.7185   -3.6064 H       1  UNL1        0.0242
     44 H           8.2088    3.8213   -1.8451 H       1  UNL1        0.0242
     45 H           8.1731    2.2173   -2.7052 H       1  UNL1        0.0242
     46 H           6.0140    3.7716   -1.3865 H       1  UNL1        0.0424
     47 H           5.6259    3.4863   -3.1234 H       1  UNL1        0.0424
     48 H           5.8776    1.5532    0.1624 H       1  UNL1        0.0439
     49 H           7.5123    1.4823   -0.6642 H       1  UNL1        0.0439
     50 H           6.6490   -0.6976    0.1629 H       1  UNL1        0.0439
     51 H           7.1646   -0.6100   -1.5644 H       1  UNL1        0.0439
     52 H           4.1239    0.9384   -0.6196 H       1  UNL1        0.0522
     53 H           4.2843   -0.3370    0.6349 H       1  UNL1        0.0522
     54 H           1.8321    0.5795    0.7453 H       1  UNL1        0.1549
     55 H           0.0755    0.6680   -1.8196 H       1  UNL1        0.0636
     56 H          -2.2112    0.0040   -2.4011 H       1  UNL1        0.0625
     57 H          -3.0823   -3.4307   -2.3814 H       1  UNL1        0.0625
     58 H          -5.4356   -4.1686   -2.7524 H       1  UNL1        0.0618
     59 H          -7.3022   -2.9569   -1.6263 H       1  UNL1        0.0626
     60 H          -7.3874    0.7449    1.3027 H       1  UNL1        0.0707
     61 H          -4.1481    3.0224    0.3829 H       1  UNL1        0.0487
     62 H          -5.9187    3.0986    0.6601 H       1  UNL1        0.0487
     63 H          -5.8268    4.2143    2.6579 H       1  UNL1        0.0575
     64 H          -4.5349    4.9811    1.6806 H       1  UNL1        0.0575
     65 H          -4.1451    2.5312    4.9202 H       1  UNL1        0.0575
     66 H          -5.6941    3.0274    4.1852 H       1  UNL1        0.0575
     67 H          -3.7033    0.9145    3.3129 H       1  UNL1        0.0487
     68 H          -5.4270    0.7354    3.6755 H       1  UNL1        0.0487
     69 H          -0.9456   -4.6966    3.8156 H       1  UNL1        0.0629
     70 H           1.3232   -4.4025    4.8389 H       1  UNL1        0.0618
     71 H           2.8309   -2.7438    3.8099 H       1  UNL1        0.0618
     72 H           2.1808   -1.4466    1.9202 H       1  UNL1        0.0624
     73 H           5.1344   -1.1790   -3.3065 H       1  UNL1        0.0439
     74 H           3.7825   -0.1105   -2.8294 H       1  UNL1        0.0439
     75 H           5.2591    1.3392   -3.8815 H       1  UNL1        0.0439
     76 H           6.7230    0.4877   -3.3760 H       1  UNL1        0.0439
@<TRIPOS>BOND
     1     1     2    1
     2     2     3    1
     3     3     4    1
     4     4     5    1
     5     5     6    1
     6     6     7    1
     7     7     8    1
     8     8     9    2
     9     8    10   am
    10    10    11    1
    11    11    12   ar
    12    12    13   ar
    13    13    14   ar
    14    14    15    1
    15    15    16   ar
    16    16    17   ar
    17    17    18   ar
    18    18    19   ar
    19    19    20   ar
    20    20    21    2
    21    20    22   ar
    22    22    23   ar
    23    23    24    1
    24    24    25    1
    25    25    26    1
    26    26    27    1
    27    27    28    1
    28    28    29    1
    29    23    30   ar
    30    30    31   ar
    31    14    32   ar
    32    32    33   ar
    33    33    34   ar
    34    34    35   ar
    35    35    36   ar
    36    36    37   ar
    37    37    38   ar
    38    38    39   ar
    39    39    40   ar
    40     6    41    1
    41    41    42    1
    42    42     3    1
    43    40    11   ar
    44    31    15   ar
    45    40    32   ar
    46    31    19   ar
    47    39    34   ar
    48    29    24    1
    49     1    43    1
    50     1    44    1
    51     1    45    1
    52     2    46    1
    53     2    47    1
    54     4    48    1
    55     4    49    1
    56     5    50    1
    57     5    51    1
    58     7    52    1
    59     7    53    1
    60    10    54    1
    61    12    55    1
    62    13    56    1
    63    16    57    1
    64    17    58    1
    65    18    59    1
    66    22    60    1
    67    25    61    1
    68    25    62    1
    69    26    63    1
    70    26    64    1
    71    28    65    1
    72    28    66    1
    73    29    67    1
    74    29    68    1
    75    35    69    1
    76    36    70    1
    77    37    71    1
    78    38    72    1
    79    41    73    1
    80    41    74    1
    81    42    75    1
    82    42    76    1
