@<TRIPOS>MOLECULE
*****
 63 67 0 0 0
SMALL
GASTEIGER

@<TRIPOS>ATOM
      1 N         -10.3755   -1.4117    1.8252 N.am    1  UNL1       -0.3253
      2 C          -9.4776   -1.5329    0.7458 C.2     1  UNL1        0.2436
      3 O          -9.8276   -2.2605   -0.2205 O.2     1  UNL1       -0.2703
      4 C          -8.1960   -0.8415    0.7524 C.ar    1  UNL1        0.0625
      5 C          -7.8658   -0.0572    1.8373 C.ar    1  UNL1       -0.0475
      6 C          -6.6677    0.6052    1.8716 C.ar    1  UNL1       -0.0603
      7 C          -5.7413    0.5191    0.8292 C.ar    1  UNL1       -0.0492
      8 C          -6.0632   -0.2607   -0.2555 C.ar    1  UNL1        0.0409
      9 C          -5.1741   -0.3653   -1.2943 C.ar    1  UNL1        0.1300
     10 N          -3.9121    0.2756   -1.3604 N.pl3   1  UNL1       -0.3244
     11 C          -3.0340    0.1023   -2.5101 C.3     1  UNL1        0.0357
     12 C          -1.7913    0.8879   -2.3019 C.ar    1  UNL1       -0.0286
     13 C          -1.7296    2.1888   -2.7395 C.ar    1  UNL1       -0.0570
     14 C          -0.5617    2.8914   -2.5303 C.ar    1  UNL1       -0.0597
     15 C           0.5072    2.2952   -1.8990 C.ar    1  UNL1       -0.0405
     16 C           0.4659    0.9702   -1.4449 C.ar    1  UNL1        0.0340
     17 N           1.6278    0.4646   -0.8086 N.am    1  UNL1       -0.2815
     18 C           1.8228   -0.8111   -0.2788 C.2     1  UNL1        0.2484
     19 O           0.8580   -1.6311   -0.3671 O.2     1  UNL1       -0.2699
     20 C           3.0673   -1.2076    0.3515 C.ar    1  UNL1        0.0417
     21 C           3.1773   -2.5078    0.8602 C.ar    1  UNL1       -0.0313
     22 C           4.3447   -2.9363    1.4722 C.ar    1  UNL1        0.0304
     23 N           5.3850   -2.0941    1.5793 N.ar    1  UNL1       -0.2403
     24 C           5.3189   -0.8519    1.1086 C.ar    1  UNL1        0.1219
     25 N           6.3912    0.0756    1.1981 N.pl3   1  UNL1       -0.3152
     26 C           6.3382    1.4116    0.6887 C.3     1  UNL1        0.0135
     27 C           7.7390    1.9805    0.7331 C.3     1  UNL1       -0.0371
     28 C           8.7753    1.0346    0.2080 C.3     1  UNL1       -0.0502
     29 C           8.7010   -0.3415    0.8017 C.3     1  UNL1       -0.0371
     30 C           7.6107   -0.3655    1.8471 C.3     1  UNL1        0.0135
     31 C           4.1428   -0.3925    0.4821 C.ar    1  UNL1       -0.0096
     32 C          -0.6984    0.3079   -1.6670 C.ar    1  UNL1       -0.0358
     33 N          -5.5514   -1.1507   -2.3349 N.ar    1  UNL1       -0.2203
     34 C          -6.7359   -1.7920   -2.3448 C.ar    1  UNL1        0.1187
     35 N          -7.6062   -1.6981   -1.3431 N.ar    1  UNL1       -0.2345
     36 C          -7.2917   -0.9346   -0.2813 C.ar    1  UNL1        0.0881
     37 H         -10.3142   -2.0825    2.6123 H       1  UNL1        0.1453
     38 H         -11.0780   -0.6648    1.8228 H       1  UNL1        0.1453
     39 H          -8.5783    0.0244    2.6664 H       1  UNL1        0.0626
     40 H          -6.3915    1.2248    2.7139 H       1  UNL1        0.0618
     41 H          -4.8059    1.0499    0.8805 H       1  UNL1        0.0625
     42 H          -3.5770    0.8787   -0.6062 H       1  UNL1        0.1478
     43 H          -3.5620    0.5350   -3.3779 H       1  UNL1        0.0511
     44 H          -2.8061   -0.9661   -2.6925 H       1  UNL1        0.0511
     45 H          -2.5925    2.6395   -3.2382 H       1  UNL1        0.0621
     46 H          -0.5405    3.9139   -2.8850 H       1  UNL1        0.0618
     47 H           1.3957    2.8889   -1.7610 H       1  UNL1        0.0636
     48 H           2.4754    1.1177   -0.7071 H       1  UNL1        0.1551
     49 H           2.3458   -3.1752    0.7724 H       1  UNL1        0.0640
     50 H           4.4672   -3.9344    1.8776 H       1  UNL1        0.0830
     51 H           5.7186    2.0404    1.3553 H       1  UNL1        0.0464
     52 H           5.9349    1.4585   -0.3454 H       1  UNL1        0.0464
     53 H           7.7337    2.8677    0.0378 H       1  UNL1        0.0280
     54 H           7.9748    2.3968    1.7309 H       1  UNL1        0.0280
     55 H           9.7710    1.4698    0.4588 H       1  UNL1        0.0266
     56 H           8.7356    1.0104   -0.9056 H       1  UNL1        0.0266
     57 H           8.3656   -1.0368   -0.0152 H       1  UNL1        0.0280
     58 H           9.6726   -0.7014    1.2004 H       1  UNL1        0.0280
     59 H           7.5447   -1.3850    2.2478 H       1  UNL1        0.0464
     60 H           7.8118    0.3495    2.6735 H       1  UNL1        0.0464
     61 H           4.1347    0.6193    0.1167 H       1  UNL1        0.0659
     62 H          -0.8353   -0.7073   -1.3605 H       1  UNL1        0.0639
     63 H          -6.9732   -2.3974   -3.1981 H       1  UNL1        0.1048
@<TRIPOS>BOND
     1     1     2   am
     2     2     3    2
     3     2     4    1
     4     4     5   ar
     5     5     6   ar
     6     6     7   ar
     7     7     8   ar
     8     8     9   ar
     9     9    10    1
    10    10    11    1
    11    11    12    1
    12    12    13   ar
    13    13    14   ar
    14    14    15   ar
    15    15    16   ar
    16    16    17    1
    17    17    18   am
    18    18    19    2
    19    18    20    1
    20    20    21   ar
    21    21    22   ar
    22    22    23   ar
    23    23    24   ar
    24    24    25    1
    25    25    26    1
    26    26    27    1
    27    27    28    1
    28    28    29    1
    29    29    30    1
    30    24    31   ar
    31    16    32   ar
    32     9    33   ar
    33    33    34   ar
    34    34    35   ar
    35    35    36   ar
    36    36     4   ar
    37    36     8   ar
    38    32    12   ar
    39    31    20   ar
    40    30    25    1
    41     1    37    1
    42     1    38    1
    43     5    39    1
    44     6    40    1
    45     7    41    1
    46    10    42    1
    47    11    43    1
    48    11    44    1
    49    13    45    1
    50    14    46    1
    51    15    47    1
    52    17    48    1
    53    21    49    1
    54    22    50    1
    55    26    51    1
    56    26    52    1
    57    27    53    1
    58    27    54    1
    59    28    55    1
    60    28    56    1
    61    29    57    1
    62    29    58    1
    63    30    59    1
    64    30    60    1
    65    31    61    1
    66    32    62    1
    67    34    63    1
