
     RDKit          3D

 58 60  0  0  0  0  0  0  0  0999 V2000
    6.5449   -1.4914   -0.9357 C   0  0  0  0  0  0  0  0  0  0  0  0
    6.3969   -1.7977    0.5136 C   0  0  0  0  0  0  0  0  0  0  0  0
    5.3247   -1.1416    1.1404 O   0  0  0  0  0  0  0  0  0  0  0  0
    4.0089   -1.2714    0.7921 C   0  0  0  0  0  0  0  0  0  0  0  0
    3.7274   -2.0370   -0.1644 O   0  0  0  0  0  0  0  0  0  0  0  0
    2.9355   -0.6090    1.4263 N   0  0  0  0  0  0  0  0  0  0  0  0
    1.5816   -0.8167    0.9792 C   0  0  1  0  0  0  0  0  0  0  0  0
    0.7633   -1.2399    2.1747 C   0  0  0  0  0  0  0  0  0  0  0  0
   -0.4323   -2.0673    1.9037 C   0  0  0  0  0  0  0  0  0  0  0  0
   -1.4962   -1.4486    1.0909 C   0  0  0  0  0  0  0  0  0  0  0  0
   -2.6446   -2.1951    0.9787 C   0  0  0  0  0  0  0  0  0  0  0  0
   -3.7047   -1.7479    0.2114 C   0  0  0  0  0  0  0  0  0  0  0  0
   -4.8827   -2.4979    0.0905 O   0  0  0  0  0  0  0  0  0  0  0  0
   -4.9977   -3.7557    0.7735 C   0  0  0  0  0  0  0  0  0  0  0  0
   -3.6110   -0.5392   -0.4532 C   0  0  0  0  0  0  0  0  0  0  0  0
   -4.7005   -0.1329   -1.2112 O   0  0  0  0  0  0  0  0  0  0  0  0
   -4.8385   -0.4745   -2.5765 C   0  0  0  0  0  0  0  0  0  0  0  0
   -2.4756    0.2468   -0.3728 C   0  0  0  0  0  0  0  0  0  0  0  0
   -2.3628    1.4477   -1.0466 O   0  0  0  0  0  0  0  0  0  0  0  0
   -1.8642    1.4737   -2.4035 C   0  0  0  0  0  0  0  0  0  0  0  0
   -1.4503   -0.2092    0.3908 C   0  0  0  0  0  0  0  0  0  0  0  0
   -0.3759    0.7702    0.4501 C   0  0  0  0  0  0  0  0  0  0  0  0
   -1.0789    1.9500    0.4455 C   0  0  0  0  0  0  0  0  0  0  0  0
   -0.5441    3.1615    0.0988 C   0  0  0  0  0  0  0  0  0  0  0  0
    0.7970    3.5071   -0.1233 C   0  0  0  0  0  0  0  0  0  0  0  0
    0.9933    4.8299   -0.4625 O   0  0  0  0  0  0  0  0  0  0  0  0
   -0.0251    5.7756   -0.5852 C   0  0  0  0  0  0  0  0  0  0  0  0
    1.9121    2.6778   -0.0387 C   0  0  0  0  0  0  0  0  0  0  0  0
    2.9969    3.2761   -0.2741 O   0  0  0  0  0  0  0  0  0  0  0  0
    1.9952    1.3324    0.2579 C   0  0  0  0  0  0  0  0  0  0  0  0
    0.9849    0.4848    0.5368 C   0  0  0  0  0  0  0  0  0  0  0  0
    5.8938   -2.0629   -1.6013 H   0  0  0  0  0  0  0  0  0  0  0  0
    7.6037   -1.7552   -1.2236 H   0  0  0  0  0  0  0  0  0  0  0  0
    6.4819   -0.3890   -1.1020 H   0  0  0  0  0  0  0  0  0  0  0  0
    7.3577   -1.5784    1.0217 H   0  0  0  0  0  0  0  0  0  0  0  0
    6.2545   -2.9050    0.6110 H   0  0  0  0  0  0  0  0  0  0  0  0
    3.1190    0.0298    2.2168 H   0  0  0  0  0  0  0  0  0  0  0  0
    1.5205   -1.5176    0.1331 H   0  0  0  0  0  0  0  0  0  0  0  0
    1.4246   -1.8340    2.8608 H   0  0  0  0  0  0  0  0  0  0  0  0
    0.4464   -0.3244    2.7347 H   0  0  0  0  0  0  0  0  0  0  0  0
   -0.8382   -2.5076    2.8420 H   0  0  0  0  0  0  0  0  0  0  0  0
   -0.0778   -2.9686    1.3174 H   0  0  0  0  0  0  0  0  0  0  0  0
   -2.6940   -3.1458    1.5105 H   0  0  0  0  0  0  0  0  0  0  0  0
   -5.9093   -4.2884    0.4665 H   0  0  0  0  0  0  0  0  0  0  0  0
   -5.0955   -3.5242    1.8539 H   0  0  0  0  0  0  0  0  0  0  0  0
   -4.0790   -4.3668    0.6467 H   0  0  0  0  0  0  0  0  0  0  0  0
   -5.7234   -1.0931   -2.7825 H   0  0  0  0  0  0  0  0  0  0  0  0
   -4.7868    0.4122   -3.2427 H   0  0  0  0  0  0  0  0  0  0  0  0
   -3.9482   -1.1025   -2.8652 H   0  0  0  0  0  0  0  0  0  0  0  0
   -2.1649    0.5759   -2.9532 H   0  0  0  0  0  0  0  0  0  0  0  0
   -0.7623    1.5957   -2.4028 H   0  0  0  0  0  0  0  0  0  0  0  0
   -2.3191    2.3578   -2.8754 H   0  0  0  0  0  0  0  0  0  0  0  0
   -2.0761    1.8681    0.7685 H   0  0  0  0  0  0  0  0  0  0  0  0
   -1.2526    3.9599   -0.0198 H   0  0  0  0  0  0  0  0  0  0  0  0
   -0.8158    5.5243   -1.2951 H   0  0  0  0  0  0  0  0  0  0  0  0
    0.4546    6.7350   -0.9170 H   0  0  0  0  0  0  0  0  0  0  0  0
   -0.4712    5.9282    0.4212 H   0  0  0  0  0  0  0  0  0  0  0  0
    2.9795    0.9159    0.2685 H   0  0  0  0  0  0  0  0  0  0  0  0
  1  2  1  0
  2  3  1  0
  3  4  1  0
  4  5  2  0
  4  6  1  0
  6  7  1  0
  7  8  1  0
  8  9  1  0
  9 10  1  0
 10 11  2  0
 11 12  1  0
 12 13  1  0
 13 14  1  0
 12 15  2  0
 15 16  1  0
 16 17  1  0
 15 18  1  0
 18 19  1  0
 19 20  1  0
 18 21  2  0
 21 22  1  0
 22 23  2  0
 23 24  1  0
 24 25  2  0
 25 26  1  0
 26 27  1  0
 25 28  1  0
 28 29  2  0
 28 30  1  0
 30 31  2  0
 31  7  1  0
 21 10  1  0
 31 22  1  0
  1 32  1  0
  1 33  1  0
  1 34  1  0
  2 35  1  0
  2 36  1  0
  6 37  1  0
  7 38  1  6
  8 39  1  0
  8 40  1  0
  9 41  1  0
  9 42  1  0
 11 43  1  0
 14 44  1  0
 14 45  1  0
 14 46  1  0
 17 47  1  0
 17 48  1  0
 17 49  1  0
 20 50  1  0
 20 51  1  0
 20 52  1  0
 23 53  1  0
 24 54  1  0
 27 55  1  0
 27 56  1  0
 27 57  1  0
 30 58  1  0
M  END
$$$$
