@<TRIPOS>MOLECULE
*****
 58 60 0 0 0
SMALL
GASTEIGER

@<TRIPOS>ATOM
      1 C           6.5449   -1.4914   -0.9357 C.3     1  UNL1       -0.0305
      2 C           6.3969   -1.7977    0.5136 C.3     1  UNL1        0.0912
      3 O           5.3247   -1.1416    1.1404 O.3     1  UNL1       -0.4507
      4 C           4.0089   -1.2714    0.7921 C.2     1  UNL1        0.4007
      5 O           3.7274   -2.0370   -0.1644 O.2     1  UNL1       -0.2265
      6 N           2.9355   -0.6090    1.4263 N.am    1  UNL1       -0.2743
      7 C           1.5816   -0.8167    0.9792 C.3     1  UNL1        0.0525
      8 C           0.7633   -1.2399    2.1747 C.3     1  UNL1       -0.0262
      9 C          -0.4323   -2.0673    1.9037 C.3     1  UNL1       -0.0249
     10 C          -1.4962   -1.4486    1.0909 C.ar    1  UNL1       -0.0324
     11 C          -2.6446   -2.1951    0.9787 C.ar    1  UNL1       -0.0123
     12 C          -3.7047   -1.7479    0.2114 C.ar    1  UNL1        0.1655
     13 O          -4.8827   -2.4979    0.0905 O.3     1  UNL1       -0.4913
     14 C          -4.9977   -3.7557    0.7735 C.3     1  UNL1        0.0790
     15 C          -3.6110   -0.5392   -0.4532 C.ar    1  UNL1        0.2041
     16 O          -4.7005   -0.1329   -1.2112 O.3     1  UNL1       -0.4885
     17 C          -4.8385   -0.4745   -2.5765 C.3     1  UNL1        0.0791
     18 C          -2.4756    0.2468   -0.3728 C.ar    1  UNL1        0.1731
     19 O          -2.3628    1.4477   -1.0466 O.3     1  UNL1       -0.4907
     20 C          -1.8642    1.4737   -2.4035 C.3     1  UNL1        0.0790
     21 C          -1.4503   -0.2092    0.3908 C.ar    1  UNL1        0.0312
     22 C          -0.3759    0.7702    0.4501 C.ar    1  UNL1       -0.0088
     23 C          -1.0789    1.9500    0.4455 C.ar    1  UNL1       -0.0500
     24 C          -0.5441    3.1615    0.0988 C.ar    1  UNL1       -0.0155
     25 C           0.7970    3.5071   -0.1233 C.ar    1  UNL1        0.1665
     26 O           0.9933    4.8299   -0.4625 O.3     1  UNL1       -0.4913
     27 C          -0.0251    5.7756   -0.5852 C.3     1  UNL1        0.0790
     28 C           1.9121    2.6778   -0.0387 C.ar    1  UNL1        0.2206
     29 O           2.9969    3.2761   -0.2741 O.2     1  UNL1       -0.2840
     30 C           1.9952    1.3324    0.2579 C.ar    1  UNL1       -0.0057
     31 C           0.9849    0.4848    0.5368 C.ar    1  UNL1       -0.0156
     32 H           5.8938   -2.0629   -1.6013 H       1  UNL1        0.0262
     33 H           7.6037   -1.7552   -1.2236 H       1  UNL1        0.0262
     34 H           6.4819   -0.3890   -1.1020 H       1  UNL1        0.0262
     35 H           7.3577   -1.5784    1.0217 H       1  UNL1        0.0695
     36 H           6.2545   -2.9050    0.6110 H       1  UNL1        0.0695
     37 H           3.1190    0.0298    2.2168 H       1  UNL1        0.1526
     38 H           1.5205   -1.5176    0.1331 H       1  UNL1        0.0549
     39 H           1.4246   -1.8340    2.8608 H       1  UNL1        0.0289
     40 H           0.4464   -0.3244    2.7347 H       1  UNL1        0.0289
     41 H          -0.8382   -2.5076    2.8420 H       1  UNL1        0.0314
     42 H          -0.0778   -2.9686    1.3174 H       1  UNL1        0.0314
     43 H          -2.6940   -3.1458    1.5105 H       1  UNL1        0.0658
     44 H          -5.9093   -4.2884    0.4665 H       1  UNL1        0.0660
     45 H          -5.0955   -3.5242    1.8539 H       1  UNL1        0.0660
     46 H          -4.0790   -4.3668    0.6467 H       1  UNL1        0.0660
     47 H          -5.7234   -1.0931   -2.7825 H       1  UNL1        0.0660
     48 H          -4.7868    0.4122   -3.2427 H       1  UNL1        0.0660
     49 H          -3.9482   -1.1025   -2.8652 H       1  UNL1        0.0660
     50 H          -2.1649    0.5759   -2.9532 H       1  UNL1        0.0660
     51 H          -0.7623    1.5957   -2.4028 H       1  UNL1        0.0660
     52 H          -2.3191    2.3578   -2.8754 H       1  UNL1        0.0660
     53 H          -2.0761    1.8681    0.7685 H       1  UNL1        0.0625
     54 H          -1.2526    3.9599   -0.0198 H       1  UNL1        0.0655
     55 H          -0.8158    5.5243   -1.2951 H       1  UNL1        0.0660
     56 H           0.4546    6.7350   -0.9170 H       1  UNL1        0.0660
     57 H          -0.4712    5.9282    0.4212 H       1  UNL1        0.0660
     58 H           2.9795    0.9159    0.2685 H       1  UNL1        0.0660
@<TRIPOS>BOND
     1     1     2    1
     2     2     3    1
     3     3     4    1
     4     4     5    2
     5     4     6   am
     6     6     7    1
     7     7     8    1
     8     8     9    1
     9     9    10    1
    10    10    11   ar
    11    11    12   ar
    12    12    13    1
    13    13    14    1
    14    12    15   ar
    15    15    16    1
    16    16    17    1
    17    15    18   ar
    18    18    19    1
    19    19    20    1
    20    18    21   ar
    21    21    22    1
    22    22    23   ar
    23    23    24   ar
    24    24    25   ar
    25    25    26    1
    26    26    27    1
    27    25    28   ar
    28    28    29    2
    29    28    30   ar
    30    30    31   ar
    31    31     7    1
    32    21    10   ar
    33    31    22   ar
    34     1    32    1
    35     1    33    1
    36     1    34    1
    37     2    35    1
    38     2    36    1
    39     6    37    1
    40     7    38    1
    41     8    39    1
    42     8    40    1
    43     9    41    1
    44     9    42    1
    45    11    43    1
    46    14    44    1
    47    14    45    1
    48    14    46    1
    49    17    47    1
    50    17    48    1
    51    17    49    1
    52    20    50    1
    53    20    51    1
    54    20    52    1
    55    23    53    1
    56    24    54    1
    57    27    55    1
    58    27    56    1
    59    27    57    1
    60    30    58    1
