
     RDKit          3D

 47 50  0  0  0  0  0  0  0  0999 V2000
    2.5909    0.2702   -1.1129 C   0  0  0  0  0  0  0  0  0  0  0  0
    2.2896   -0.1135    0.3030 C   0  0  0  0  0  0  0  0  0  0  0  0
    1.2231   -1.0908    0.3955 N   0  0  0  0  0  0  0  0  0  0  0  0
    0.0226   -0.9156    0.1459 N   0  0  0  0  0  0  0  0  0  0  0  0
   -0.5902    0.2858   -0.2897 C   0  0  0  0  0  0  0  0  0  0  0  0
   -0.1348    1.4971    0.1445 N   0  0  0  0  0  0  0  0  0  0  0  0
   -0.6829    2.6566   -0.2418 C   0  0  0  0  0  0  0  0  0  0  0  0
   -0.1839    3.8579    0.2264 C   0  0  0  0  0  0  0  0  0  0  0  0
   -0.7558    5.0397   -0.1790 C   0  0  0  0  0  0  0  0  0  0  0  0
   -1.8304    5.0323   -1.0553 C   0  0  0  0  0  0  0  0  0  0  0  0
   -2.3055    3.8198   -1.5045 C   0  0  0  0  0  0  0  0  0  0  0  0
   -1.7604    2.6174   -1.1218 C   0  0  0  0  0  0  0  0  0  0  0  0
   -2.2131    1.4284   -1.5524 N   0  0  0  0  0  0  0  0  0  0  0  0
   -1.6517    0.2667   -1.1554 C   0  0  0  0  0  0  0  0  0  0  0  0
   -2.2251   -0.9750   -1.6858 C   0  0  0  0  0  0  0  0  0  0  0  0
   -3.0775   -1.7247   -0.7635 C   0  0  0  0  0  0  0  0  0  0  0  0
   -4.4229   -1.3439   -0.6714 C   0  0  0  0  0  0  0  0  0  0  0  0
   -5.3075   -1.9913    0.1620 C   0  0  0  0  0  0  0  0  0  0  0  0
   -4.8870   -3.0452    0.9380 C   0  0  0  0  0  0  0  0  0  0  0  0
   -3.5726   -3.4367    0.8648 C   0  0  0  0  0  0  0  0  0  0  0  0
   -2.6948   -2.7807    0.0260 C   0  0  0  0  0  0  0  0  0  0  0  0
    3.4878   -0.7386    0.9046 C   0  0  0  0  0  0  0  0  0  0  0  0
    3.4214   -1.4734    2.0762 C   0  0  0  0  0  0  0  0  0  0  0  0
    4.5533   -2.0199    2.5810 C   0  0  0  0  0  0  0  0  0  0  0  0
    5.7795   -1.8733    1.9704 C   0  0  0  0  0  0  0  0  0  0  0  0
    5.8507   -1.1472    0.8109 C   0  0  0  0  0  0  0  0  0  0  0  0
    4.7058   -0.5868    0.2890 C   0  0  0  0  0  0  0  0  0  0  0  0
    3.2418    1.1725   -1.0989 H   0  0  0  0  0  0  0  0  0  0  0  0
    3.1460   -0.5215   -1.6552 H   0  0  0  0  0  0  0  0  0  0  0  0
    1.6681    0.4436   -1.7142 H   0  0  0  0  0  0  0  0  0  0  0  0
    2.0741    0.7974    0.9200 H   0  0  0  0  0  0  0  0  0  0  0  0
    0.6500    3.8790    0.9069 H   0  0  0  0  0  0  0  0  0  0  0  0
   -0.3949    6.0189    0.1651 H   0  0  0  0  0  0  0  0  0  0  0  0
   -2.2639    5.9825   -1.3604 H   0  0  0  0  0  0  0  0  0  0  0  0
   -3.1496    3.8178   -2.1925 H   0  0  0  0  0  0  0  0  0  0  0  0
   -2.8228   -0.8060   -2.6188 H   0  0  0  0  0  0  0  0  0  0  0  0
   -1.3483   -1.5909   -2.0462 H   0  0  0  0  0  0  0  0  0  0  0  0
   -4.7873   -0.5147   -1.2717 H   0  0  0  0  0  0  0  0  0  0  0  0
   -6.3588   -1.6834    0.2255 H   0  0  0  0  0  0  0  0  0  0  0  0
   -5.5773   -3.5759    1.6103 H   0  0  0  0  0  0  0  0  0  0  0  0
   -3.2210   -4.2807    1.4818 H   0  0  0  0  0  0  0  0  0  0  0  0
   -1.6597   -3.1041   -0.0246 H   0  0  0  0  0  0  0  0  0  0  0  0
    2.4652   -1.5841    2.5473 H   0  0  0  0  0  0  0  0  0  0  0  0
    4.4489   -2.5934    3.5110 H   0  0  0  0  0  0  0  0  0  0  0  0
    6.6503   -2.3384    2.4285 H   0  0  0  0  0  0  0  0  0  0  0  0
    6.8063   -1.0209    0.3166 H   0  0  0  0  0  0  0  0  0  0  0  0
    4.8043   -0.0130   -0.6353 H   0  0  0  0  0  0  0  0  0  0  0  0
  1  2  1  0
  2  3  1  0
  3  4  2  3
  4  5  1  0
  5  6  2  0
  6  7  1  0
  7  8  2  0
  8  9  1  0
  9 10  2  0
 10 11  1  0
 11 12  2  0
 12 13  1  0
 13 14  2  0
 14 15  1  0
 15 16  1  0
 16 17  2  0
 17 18  1  0
 18 19  2  0
 19 20  1  0
 20 21  2  0
  2 22  1  0
 22 23  2  0
 23 24  1  0
 24 25  2  0
 25 26  1  0
 26 27  2  0
 14  5  1  0
 21 16  1  0
 27 22  1  0
 12  7  1  0
  1 28  1  0
  1 29  1  0
  1 30  1  0
  2 31  1  0
  8 32  1  0
  9 33  1  0
 10 34  1  0
 11 35  1  0
 15 36  1  0
 15 37  1  0
 17 38  1  0
 18 39  1  0
 19 40  1  0
 20 41  1  0
 21 42  1  0
 23 43  1  0
 24 44  1  0
 25 45  1  0
 26 46  1  0
 27 47  1  0
M  END
$$$$
