@<TRIPOS>MOLECULE
*****
 47 50 0 0 0
SMALL
GASTEIGER

@<TRIPOS>ATOM
      1 C           2.5909    0.2702   -1.1129 C.3     1  UNL1       -0.0368
      2 C           2.2896   -0.1135    0.3030 C.3     1  UNL1        0.0940
      3 N           1.2231   -1.0908    0.3955 N.2     1  UNL1       -0.1778
      4 N           0.0226   -0.9156    0.1459 N.2     1  UNL1       -0.1321
      5 C          -0.5902    0.2858   -0.2897 C.ar    1  UNL1        0.1966
      6 N          -0.1348    1.4971    0.1445 N.ar    1  UNL1       -0.2233
      7 C          -0.6829    2.6566   -0.2418 C.ar    1  UNL1        0.0916
      8 C          -0.1839    3.8579    0.2264 C.ar    1  UNL1       -0.0342
      9 C          -0.7558    5.0397   -0.1790 C.ar    1  UNL1       -0.0596
     10 C          -1.8304    5.0323   -1.0553 C.ar    1  UNL1       -0.0596
     11 C          -2.3055    3.8198   -1.5045 C.ar    1  UNL1       -0.0342
     12 C          -1.7604    2.6174   -1.1218 C.ar    1  UNL1        0.0896
     13 N          -2.2131    1.4284   -1.5524 N.ar    1  UNL1       -0.2460
     14 C          -1.6517    0.2667   -1.1554 C.ar    1  UNL1        0.0920
     15 C          -2.2251   -0.9750   -1.6858 C.3     1  UNL1        0.0185
     16 C          -3.0775   -1.7247   -0.7635 C.ar    1  UNL1       -0.0415
     17 C          -4.4229   -1.3439   -0.6714 C.ar    1  UNL1       -0.0582
     18 C          -5.3075   -1.9913    0.1620 C.ar    1  UNL1       -0.0615
     19 C          -4.8870   -3.0452    0.9380 C.ar    1  UNL1       -0.0617
     20 C          -3.5726   -3.4367    0.8648 C.ar    1  UNL1       -0.0615
     21 C          -2.6948   -2.7807    0.0260 C.ar    1  UNL1       -0.0582
     22 C           3.4878   -0.7386    0.9046 C.ar    1  UNL1       -0.0217
     23 C           3.4214   -1.4734    2.0762 C.ar    1  UNL1       -0.0565
     24 C           4.5533   -2.0199    2.5810 C.ar    1  UNL1       -0.0614
     25 C           5.7795   -1.8733    1.9704 C.ar    1  UNL1       -0.0617
     26 C           5.8507   -1.1472    0.8109 C.ar    1  UNL1       -0.0614
     27 C           4.7058   -0.5868    0.2890 C.ar    1  UNL1       -0.0565
     28 H           3.2418    1.1725   -1.0989 H       1  UNL1        0.0254
     29 H           3.1460   -0.5215   -1.6552 H       1  UNL1        0.0254
     30 H           1.6681    0.4436   -1.7142 H       1  UNL1        0.0254
     31 H           2.0741    0.7974    0.9200 H       1  UNL1        0.0610
     32 H           0.6500    3.8790    0.9069 H       1  UNL1        0.0639
     33 H          -0.3949    6.0189    0.1651 H       1  UNL1        0.0618
     34 H          -2.2639    5.9825   -1.3604 H       1  UNL1        0.0618
     35 H          -3.1496    3.8178   -2.1925 H       1  UNL1        0.0639
     36 H          -2.8228   -0.8060   -2.6188 H       1  UNL1        0.0378
     37 H          -1.3483   -1.5909   -2.0462 H       1  UNL1        0.0378
     38 H          -4.7873   -0.5147   -1.2717 H       1  UNL1        0.0620
     39 H          -6.3588   -1.6834    0.2255 H       1  UNL1        0.0618
     40 H          -5.5773   -3.5759    1.6103 H       1  UNL1        0.0618
     41 H          -3.2210   -4.2807    1.4818 H       1  UNL1        0.0618
     42 H          -1.6597   -3.1041   -0.0246 H       1  UNL1        0.0620
     43 H           2.4652   -1.5841    2.5473 H       1  UNL1        0.0621
     44 H           4.4489   -2.5934    3.5110 H       1  UNL1        0.0618
     45 H           6.6503   -2.3384    2.4285 H       1  UNL1        0.0618
     46 H           6.8063   -1.0209    0.3166 H       1  UNL1        0.0618
     47 H           4.8043   -0.0130   -0.6353 H       1  UNL1        0.0621
@<TRIPOS>BOND
     1     1     2    1
     2     2     3    1
     3     3     4    2
     4     4     5    1
     5     5     6   ar
     6     6     7   ar
     7     7     8   ar
     8     8     9   ar
     9     9    10   ar
    10    10    11   ar
    11    11    12   ar
    12    12    13   ar
    13    13    14   ar
    14    14    15    1
    15    15    16    1
    16    16    17   ar
    17    17    18   ar
    18    18    19   ar
    19    19    20   ar
    20    20    21   ar
    21     2    22    1
    22    22    23   ar
    23    23    24   ar
    24    24    25   ar
    25    25    26   ar
    26    26    27   ar
    27    14     5   ar
    28    21    16   ar
    29    27    22   ar
    30    12     7   ar
    31     1    28    1
    32     1    29    1
    33     1    30    1
    34     2    31    1
    35     8    32    1
    36     9    33    1
    37    10    34    1
    38    11    35    1
    39    15    36    1
    40    15    37    1
    41    17    38    1
    42    18    39    1
    43    19    40    1
    44    20    41    1
    45    21    42    1
    46    23    43    1
    47    24    44    1
    48    25    45    1
    49    26    46    1
    50    27    47    1
