@<TRIPOS>MOLECULE
*****
 67 71 0 0 0
SMALL
GASTEIGER

@<TRIPOS>ATOM
      1 C          -8.9794   -3.7860   -0.2115 C.3     1  UNL1        0.0805
      2 O          -7.8628   -2.9949    0.2533 O.3     1  UNL1       -0.4774
      3 C          -8.0565   -1.6001    0.2403 C.ar    1  UNL1        0.2552
      4 N          -9.1993   -0.9830   -0.1855 N.ar    1  UNL1       -0.1317
      5 N          -9.0879    0.3054   -0.0940 N.ar    1  UNL1       -0.2692
      6 C         -10.0908    1.3093   -0.4458 C.3     1  UNL1        0.0304
      7 C          -7.8685    0.5575    0.3942 C.ar    1  UNL1        0.0503
      8 C          -7.1781   -0.6332    0.6216 C.ar    1  UNL1        0.1152
      9 N          -5.8683   -0.7766    1.1546 N.pl3   1  UNL1       -0.2782
     10 C          -5.0610    0.3890    1.2736 C.ar    1  UNL1        0.2202
     11 N          -5.5144    1.5608    1.7411 N.ar    1  UNL1       -0.2212
     12 C          -4.6663    2.5821    1.6980 C.ar    1  UNL1        0.0516
     13 C          -3.3615    2.5239    1.2097 C.ar    1  UNL1        0.0851
     14 CL         -2.2908    3.9065    1.1776 Cl      1  UNL1       -0.0797
     15 C          -2.9331    1.3129    0.7426 C.ar    1  UNL1        0.0963
     16 C          -1.6070    1.0437    0.1860 C.ar    1  UNL1        0.0270
     17 C          -1.1002    1.5151   -1.0238 C.ar    1  UNL1        0.0120
     18 N           0.1392    0.9633   -1.2171 N.ar    1  UNL1       -0.3586
     19 C           0.4224    0.1663   -0.1790 C.ar    1  UNL1        0.0686
     20 C           1.5498   -0.6016    0.0767 C.ar    1  UNL1        0.0576
     21 N           2.6237   -0.6347   -0.8482 N.am    1  UNL1       -0.2825
     22 C           3.7613    0.1907   -0.6983 C.2     1  UNL1        0.2342
     23 O           3.7678    0.9449    0.3080 O.2     1  UNL1       -0.2738
     24 C           4.8148    0.0949   -1.7104 C.3     1  UNL1        0.0848
     25 C           4.4969    1.1211   -2.7935 C.3     1  UNL1       -0.0409
     26 N           6.1326    0.1814   -1.3073 N.3     1  UNL1       -0.2893
     27 C           6.6731    1.1720   -0.5140 C.3     1  UNL1        0.0124
     28 C           7.0625    0.6472    0.8778 C.3     1  UNL1        0.0114
     29 N           7.8837   -0.4929    0.7354 N.3     1  UNL1       -0.3029
     30 C           9.2803   -0.3712    0.9814 C.3     1  UNL1       -0.0127
     31 C           7.5136   -1.5040   -0.1941 C.3     1  UNL1        0.0114
     32 C           6.9868   -0.9370   -1.4969 C.3     1  UNL1        0.0124
     33 C           1.5530   -1.3160    1.2535 C.ar    1  UNL1       -0.0384
     34 C           0.5301   -1.3168    2.1752 C.ar    1  UNL1       -0.0593
     35 C          -0.5730   -0.5310    1.8592 C.ar    1  UNL1       -0.0518
     36 C          -0.6334    0.2036    0.6976 C.ar    1  UNL1        0.0107
     37 N          -3.8009    0.2927    0.7943 N.ar    1  UNL1       -0.2127
     38 H          -9.7129   -3.7217    0.6094 H       1  UNL1        0.0660
     39 H          -9.3714   -3.2645   -1.1226 H       1  UNL1        0.0660
     40 H          -8.7261   -4.8248   -0.4123 H       1  UNL1        0.0660
     41 H         -10.8498    1.2923    0.3798 H       1  UNL1        0.0473
     42 H          -9.6498    2.3095   -0.4279 H       1  UNL1        0.0473
     43 H         -10.5304    1.0683   -1.4368 H       1  UNL1        0.0473
     44 H          -7.4834    1.5537    0.5865 H       1  UNL1        0.0846
     45 H          -5.5040   -1.6961    1.4487 H       1  UNL1        0.1552
     46 H          -5.0150    3.5668    2.0778 H       1  UNL1        0.0846
     47 H          -1.6037    2.1970   -1.6913 H       1  UNL1        0.0814
     48 H           0.6921    1.1764   -2.0680 H       1  UNL1        0.1654
     49 H           2.5443   -1.3103   -1.6793 H       1  UNL1        0.1549
     50 H           4.6871   -0.9051   -2.2395 H       1  UNL1        0.0556
     51 H           5.2983    0.9958   -3.5624 H       1  UNL1        0.0249
     52 H           4.5494    2.1285   -2.3040 H       1  UNL1        0.0249
     53 H           3.4906    0.9287   -3.1659 H       1  UNL1        0.0249
     54 H           7.6345    1.5119   -0.9552 H       1  UNL1        0.0439
     55 H           6.0836    2.1059   -0.4107 H       1  UNL1        0.0439
     56 H           7.6792    1.4481    1.3884 H       1  UNL1        0.0439
     57 H           6.1620    0.3981    1.4705 H       1  UNL1        0.0439
     58 H           9.6978    0.6232    0.7955 H       1  UNL1        0.0391
     59 H           9.8666   -1.1351    0.3904 H       1  UNL1        0.0391
     60 H           9.4884   -0.6437    2.0459 H       1  UNL1        0.0391
     61 H           8.4615   -2.0408   -0.4826 H       1  UNL1        0.0439
     62 H           6.8637   -2.3038    0.2079 H       1  UNL1        0.0439
     63 H           6.3683   -1.7666   -1.9565 H       1  UNL1        0.0439
     64 H           7.8023   -0.6816   -2.1981 H       1  UNL1        0.0439
     65 H           2.4383   -1.9162    1.4672 H       1  UNL1        0.0637
     66 H           0.5595   -1.8844    3.1124 H       1  UNL1        0.0618
     67 H          -1.3797   -0.5373    2.6005 H       1  UNL1        0.0624
@<TRIPOS>BOND
     1     1     2    1
     2     2     3    1
     3     3     4   ar
     4     4     5   ar
     5     5     6    1
     6     5     7   ar
     7     7     8   ar
     8     8     9    1
     9     9    10    1
    10    10    11   ar
    11    11    12   ar
    12    12    13   ar
    13    13    14    1
    14    13    15   ar
    15    15    16    1
    16    16    17   ar
    17    17    18   ar
    18    18    19   ar
    19    19    20   ar
    20    20    21    1
    21    21    22   am
    22    22    23    2
    23    22    24    1
    24    24    25    1
    25    24    26    1
    26    26    27    1
    27    27    28    1
    28    28    29    1
    29    29    30    1
    30    29    31    1
    31    31    32    1
    32    20    33   ar
    33    33    34   ar
    34    34    35   ar
    35    35    36   ar
    36    15    37   ar
    37     8     3   ar
    38    37    10   ar
    39    36    16   ar
    40    36    19   ar
    41    32    26    1
    42     1    38    1
    43     1    39    1
    44     1    40    1
    45     6    41    1
    46     6    42    1
    47     6    43    1
    48     7    44    1
    49     9    45    1
    50    12    46    1
    51    17    47    1
    52    18    48    1
    53    21    49    1
    54    24    50    1
    55    25    51    1
    56    25    52    1
    57    25    53    1
    58    27    54    1
    59    27    55    1
    60    28    56    1
    61    28    57    1
    62    30    58    1
    63    30    59    1
    64    30    60    1
    65    31    61    1
    66    31    62    1
    67    32    63    1
    68    32    64    1
    69    33    65    1
    70    34    66    1
    71    35    67    1
