
     RDKit          3D

 67 71  0  0  0  0  0  0  0  0999 V2000
   -8.9794   -3.7860   -0.2115 C   0  0  0  0  0  0  0  0  0  0  0  0
   -7.8628   -2.9949    0.2533 O   0  0  0  0  0  0  0  0  0  0  0  0
   -8.0565   -1.6001    0.2403 C   0  0  0  0  0  0  0  0  0  0  0  0
   -9.1993   -0.9830   -0.1855 N   0  0  0  0  0  0  0  0  0  0  0  0
   -9.0879    0.3054   -0.0940 N   0  0  0  0  0  0  0  0  0  0  0  0
  -10.0908    1.3093   -0.4458 C   0  0  0  0  0  0  0  0  0  0  0  0
   -7.8685    0.5575    0.3942 C   0  0  0  0  0  0  0  0  0  0  0  0
   -7.1781   -0.6332    0.6216 C   0  0  0  0  0  0  0  0  0  0  0  0
   -5.8683   -0.7766    1.1546 N   0  0  0  0  0  0  0  0  0  0  0  0
   -5.0610    0.3890    1.2736 C   0  0  0  0  0  0  0  0  0  0  0  0
   -5.5144    1.5608    1.7411 N   0  0  0  0  0  0  0  0  0  0  0  0
   -4.6663    2.5821    1.6980 C   0  0  0  0  0  0  0  0  0  0  0  0
   -3.3615    2.5239    1.2097 C   0  0  0  0  0  0  0  0  0  0  0  0
   -2.2908    3.9065    1.1776 Cl  0  0  0  0  0  0  0  0  0  0  0  0
   -2.9331    1.3129    0.7426 C   0  0  0  0  0  0  0  0  0  0  0  0
   -1.6070    1.0437    0.1860 C   0  0  0  0  0  0  0  0  0  0  0  0
   -1.1002    1.5151   -1.0238 C   0  0  0  0  0  0  0  0  0  0  0  0
    0.1392    0.9633   -1.2171 N   0  0  0  0  0  0  0  0  0  0  0  0
    0.4224    0.1663   -0.1790 C   0  0  0  0  0  0  0  0  0  0  0  0
    1.5498   -0.6016    0.0767 C   0  0  0  0  0  0  0  0  0  0  0  0
    2.6237   -0.6347   -0.8482 N   0  0  0  0  0  0  0  0  0  0  0  0
    3.7613    0.1907   -0.6983 C   0  0  0  0  0  0  0  0  0  0  0  0
    3.7678    0.9449    0.3080 O   0  0  0  0  0  0  0  0  0  0  0  0
    4.8148    0.0949   -1.7104 C   0  0  1  0  0  0  0  0  0  0  0  0
    4.4969    1.1211   -2.7935 C   0  0  0  0  0  0  0  0  0  0  0  0
    6.1326    0.1814   -1.3073 N   0  0  0  0  0  0  0  0  0  0  0  0
    6.6731    1.1720   -0.5140 C   0  0  0  0  0  0  0  0  0  0  0  0
    7.0625    0.6472    0.8778 C   0  0  0  0  0  0  0  0  0  0  0  0
    7.8837   -0.4929    0.7354 N   0  0  0  0  0  0  0  0  0  0  0  0
    9.2803   -0.3712    0.9814 C   0  0  0  0  0  0  0  0  0  0  0  0
    7.5136   -1.5040   -0.1941 C   0  0  0  0  0  0  0  0  0  0  0  0
    6.9868   -0.9370   -1.4969 C   0  0  0  0  0  0  0  0  0  0  0  0
    1.5530   -1.3160    1.2535 C   0  0  0  0  0  0  0  0  0  0  0  0
    0.5301   -1.3168    2.1752 C   0  0  0  0  0  0  0  0  0  0  0  0
   -0.5730   -0.5310    1.8592 C   0  0  0  0  0  0  0  0  0  0  0  0
   -0.6334    0.2036    0.6976 C   0  0  0  0  0  0  0  0  0  0  0  0
   -3.8009    0.2927    0.7943 N   0  0  0  0  0  0  0  0  0  0  0  0
   -9.7129   -3.7217    0.6094 H   0  0  0  0  0  0  0  0  0  0  0  0
   -9.3714   -3.2645   -1.1226 H   0  0  0  0  0  0  0  0  0  0  0  0
   -8.7261   -4.8248   -0.4123 H   0  0  0  0  0  0  0  0  0  0  0  0
  -10.8498    1.2923    0.3798 H   0  0  0  0  0  0  0  0  0  0  0  0
   -9.6498    2.3095   -0.4279 H   0  0  0  0  0  0  0  0  0  0  0  0
  -10.5304    1.0683   -1.4368 H   0  0  0  0  0  0  0  0  0  0  0  0
   -7.4834    1.5537    0.5865 H   0  0  0  0  0  0  0  0  0  0  0  0
   -5.5040   -1.6961    1.4487 H   0  0  0  0  0  0  0  0  0  0  0  0
   -5.0150    3.5668    2.0778 H   0  0  0  0  0  0  0  0  0  0  0  0
   -1.6037    2.1970   -1.6913 H   0  0  0  0  0  0  0  0  0  0  0  0
    0.6921    1.1764   -2.0680 H   0  0  0  0  0  0  0  0  0  0  0  0
    2.5443   -1.3103   -1.6793 H   0  0  0  0  0  0  0  0  0  0  0  0
    4.6871   -0.9051   -2.2395 H   0  0  0  0  0  0  0  0  0  0  0  0
    5.2983    0.9958   -3.5624 H   0  0  0  0  0  0  0  0  0  0  0  0
    4.5494    2.1285   -2.3040 H   0  0  0  0  0  0  0  0  0  0  0  0
    3.4906    0.9287   -3.1659 H   0  0  0  0  0  0  0  0  0  0  0  0
    7.6345    1.5119   -0.9552 H   0  0  0  0  0  0  0  0  0  0  0  0
    6.0836    2.1059   -0.4107 H   0  0  0  0  0  0  0  0  0  0  0  0
    7.6792    1.4481    1.3884 H   0  0  0  0  0  0  0  0  0  0  0  0
    6.1620    0.3981    1.4705 H   0  0  0  0  0  0  0  0  0  0  0  0
    9.6978    0.6232    0.7955 H   0  0  0  0  0  0  0  0  0  0  0  0
    9.8666   -1.1351    0.3904 H   0  0  0  0  0  0  0  0  0  0  0  0
    9.4884   -0.6437    2.0459 H   0  0  0  0  0  0  0  0  0  0  0  0
    8.4615   -2.0408   -0.4826 H   0  0  0  0  0  0  0  0  0  0  0  0
    6.8637   -2.3038    0.2079 H   0  0  0  0  0  0  0  0  0  0  0  0
    6.3683   -1.7666   -1.9565 H   0  0  0  0  0  0  0  0  0  0  0  0
    7.8023   -0.6816   -2.1981 H   0  0  0  0  0  0  0  0  0  0  0  0
    2.4383   -1.9162    1.4672 H   0  0  0  0  0  0  0  0  0  0  0  0
    0.5595   -1.8844    3.1124 H   0  0  0  0  0  0  0  0  0  0  0  0
   -1.3797   -0.5373    2.6005 H   0  0  0  0  0  0  0  0  0  0  0  0
  1  2  1  0
  2  3  1  0
  3  4  2  0
  4  5  1  0
  5  6  1  0
  5  7  1  0
  7  8  2  0
  8  9  1  0
  9 10  1  0
 10 11  2  0
 11 12  1  0
 12 13  2  0
 13 14  1  0
 13 15  1  0
 15 16  1  0
 16 17  2  0
 17 18  1  0
 18 19  1  0
 19 20  2  0
 20 21  1  0
 21 22  1  0
 22 23  2  0
 22 24  1  0
 24 25  1  0
 24 26  1  0
 26 27  1  0
 27 28  1  0
 28 29  1  0
 29 30  1  0
 29 31  1  0
 31 32  1  0
 20 33  1  0
 33 34  2  0
 34 35  1  0
 35 36  2  0
 15 37  2  0
  8  3  1  0
 37 10  1  0
 36 16  1  0
 36 19  1  0
 32 26  1  0
  1 38  1  0
  1 39  1  0
  1 40  1  0
  6 41  1  0
  6 42  1  0
  6 43  1  0
  7 44  1  0
  9 45  1  0
 12 46  1  0
 17 47  1  0
 18 48  1  0
 21 49  1  0
 24 50  1  6
 25 51  1  0
 25 52  1  0
 25 53  1  0
 27 54  1  0
 27 55  1  0
 28 56  1  0
 28 57  1  0
 30 58  1  0
 30 59  1  0
 30 60  1  0
 31 61  1  0
 31 62  1  0
 32 63  1  0
 32 64  1  0
 33 65  1  0
 34 66  1  0
 35 67  1  0
M  END
$$$$
