
     RDKit          3D

 73 77  0  0  0  0  0  0  0  0999 V2000
    6.5535   -1.9580   -0.4161 C   0  0  0  0  0  0  0  0  0  0  0  0
    5.1315   -1.5219   -0.5193 C   0  0  0  0  0  0  0  0  0  0  0  0
    4.7264   -0.3083    0.2030 C   0  0  2  0  0  0  0  0  0  0  0  0
    3.2944   -0.0117    0.0019 C   0  0  0  0  0  0  0  0  0  0  0  0
    2.9095    1.1607   -0.2090 O   0  0  0  0  0  0  0  0  0  0  0  0
    2.2988   -1.0231    0.0375 N   0  0  0  0  0  0  0  0  0  0  0  0
    0.9219   -0.7405   -0.1527 C   0  0  0  0  0  0  0  0  0  0  0  0
    0.4035   -0.7728   -1.4164 C   0  0  0  0  0  0  0  0  0  0  0  0
   -0.9420   -0.5013   -1.6591 C   0  0  0  0  0  0  0  0  0  0  0  0
   -1.7689   -0.1910   -0.5797 C   0  0  0  0  0  0  0  0  0  0  0  0
   -1.2824   -0.1506    0.6916 C   0  0  0  0  0  0  0  0  0  0  0  0
   -1.8840    0.1278    1.9275 C   0  0  0  0  0  0  0  0  0  0  0  0
   -3.2796    0.4897    2.0817 C   0  0  0  0  0  0  0  0  0  0  0  0
   -4.0632    0.6503    0.9742 N   0  0  0  0  0  0  0  0  0  0  0  0
   -5.3467    0.9826    0.9980 C   0  0  0  0  0  0  0  0  0  0  0  0
   -6.1230    1.1260   -0.1945 N   0  0  0  0  0  0  0  0  0  0  0  0
   -7.0696    0.1486   -0.5773 C   0  0  0  0  0  0  0  0  0  0  0  0
   -7.4252   -1.0076    0.1175 C   0  0  0  0  0  0  0  0  0  0  0  0
   -8.3833   -1.6693   -0.5680 N   0  0  0  0  0  0  0  0  0  0  0  0
   -9.0263   -2.9104   -0.1897 C   0  0  0  0  0  0  0  0  0  0  0  0
   -8.6236   -0.9608   -1.6520 N   0  0  0  0  0  0  0  0  0  0  0  0
   -7.8704    0.1260   -1.7053 C   0  0  0  0  0  0  0  0  0  0  0  0
   -7.8419    1.1081   -2.6939 O   0  0  0  0  0  0  0  0  0  0  0  0
   -8.6619    1.0761   -3.8284 C   0  0  0  0  0  0  0  0  0  0  0  0
   -5.9650    1.1864    2.1826 N   0  0  0  0  0  0  0  0  0  0  0  0
   -5.2802    1.0504    3.3111 C   0  0  0  0  0  0  0  0  0  0  0  0
   -3.9333    0.7005    3.2668 C   0  0  0  0  0  0  0  0  0  0  0  0
   -3.2395    0.5310    4.5577 C   0  0  0  0  0  0  0  0  0  0  0  0
   -0.8758    0.0087    2.8288 C   0  0  0  0  0  0  0  0  0  0  0  0
    0.3002   -0.3273    2.1995 N   0  0  0  0  0  0  0  0  0  0  0  0
    0.0668   -0.4285    0.8883 C   0  0  0  0  0  0  0  0  0  0  0  0
    5.4922    0.8712    0.0839 N   0  0  0  0  0  0  0  0  0  0  0  0
    6.7072    0.9954    0.7705 C   0  0  0  0  0  0  0  0  0  0  0  0
    7.9653    1.0512   -0.0085 C   0  0  0  0  0  0  0  0  0  0  0  0
    7.8592    1.2929   -1.3851 N   0  0  0  0  0  0  0  0  0  0  0  0
    8.8843    0.8189   -2.2405 C   0  0  0  0  0  0  0  0  0  0  0  0
    6.6456    1.7045   -1.9508 C   0  0  0  0  0  0  0  0  0  0  0  0
    5.3977    1.5593   -1.1617 C   0  0  0  0  0  0  0  0  0  0  0  0
    7.0564   -1.7722    0.5289 H   0  0  0  0  0  0  0  0  0  0  0  0
    6.6606   -3.0486   -0.7163 H   0  0  0  0  0  0  0  0  0  0  0  0
    7.1342   -1.4197   -1.2187 H   0  0  0  0  0  0  0  0  0  0  0  0
    4.8478   -1.5403   -1.5970 H   0  0  0  0  0  0  0  0  0  0  0  0
    4.5263   -2.3788   -0.0861 H   0  0  0  0  0  0  0  0  0  0  0  0
    4.7925   -0.5873    1.3184 H   0  0  0  0  0  0  0  0  0  0  0  0
    2.5856   -1.9984    0.2095 H   0  0  0  0  0  0  0  0  0  0  0  0
    0.9910   -1.0050   -2.2942 H   0  0  0  0  0  0  0  0  0  0  0  0
   -1.3857   -0.5162   -2.6265 H   0  0  0  0  0  0  0  0  0  0  0  0
   -2.8104    0.0164   -0.7782 H   0  0  0  0  0  0  0  0  0  0  0  0
   -5.9789    1.9642   -0.7760 H   0  0  0  0  0  0  0  0  0  0  0  0
   -7.0062   -1.3256    1.0525 H   0  0  0  0  0  0  0  0  0  0  0  0
  -10.1386   -2.8182   -0.1555 H   0  0  0  0  0  0  0  0  0  0  0  0
   -8.7070   -3.7436   -0.8476 H   0  0  0  0  0  0  0  0  0  0  0  0
   -8.6869   -3.2086    0.8401 H   0  0  0  0  0  0  0  0  0  0  0  0
   -8.8460   -0.0020   -4.0715 H   0  0  0  0  0  0  0  0  0  0  0  0
   -9.6437    1.5481   -3.6855 H   0  0  0  0  0  0  0  0  0  0  0  0
   -8.0811    1.5040   -4.6592 H   0  0  0  0  0  0  0  0  0  0  0  0
   -5.7976    1.2175    4.2390 H   0  0  0  0  0  0  0  0  0  0  0  0
   -2.5707    1.3494    4.7957 H   0  0  0  0  0  0  0  0  0  0  0  0
   -4.0371    0.5809    5.3790 H   0  0  0  0  0  0  0  0  0  0  0  0
   -2.8471   -0.5024    4.6507 H   0  0  0  0  0  0  0  0  0  0  0  0
   -0.9085    0.1522    3.8920 H   0  0  0  0  0  0  0  0  0  0  0  0
    1.2228   -0.4812    2.6494 H   0  0  0  0  0  0  0  0  0  0  0  0
    6.6544    1.9932    1.3341 H   0  0  0  0  0  0  0  0  0  0  0  0
    6.7254    0.2637    1.6267 H   0  0  0  0  0  0  0  0  0  0  0  0
    8.5254    0.0768    0.1326 H   0  0  0  0  0  0  0  0  0  0  0  0
    8.6821    1.8059    0.4264 H   0  0  0  0  0  0  0  0  0  0  0  0
    8.5358    0.8466   -3.2936 H   0  0  0  0  0  0  0  0  0  0  0  0
    9.1075   -0.2370   -1.9874 H   0  0  0  0  0  0  0  0  0  0  0  0
    9.8265    1.3886   -2.0912 H   0  0  0  0  0  0  0  0  0  0  0  0
    6.7906    2.7680   -2.3203 H   0  0  0  0  0  0  0  0  0  0  0  0
    6.5071    1.1081   -2.9096 H   0  0  0  0  0  0  0  0  0  0  0  0
    5.0241    2.6009   -0.9318 H   0  0  0  0  0  0  0  0  0  0  0  0
    4.5776    1.1172   -1.7903 H   0  0  0  0  0  0  0  0  0  0  0  0
  1  2  1  0
  2  3  1  0
  3  4  1  0
  4  5  2  0
  4  6  1  0
  6  7  1  0
  7  8  2  0
  8  9  1  0
  9 10  2  0
 10 11  1  0
 11 12  1  0
 12 13  1  0
 13 14  2  0
 14 15  1  0
 15 16  1  0
 16 17  1  0
 17 18  2  0
 18 19  1  0
 19 20  1  0
 19 21  1  0
 21 22  2  0
 22 23  1  0
 23 24  1  0
 15 25  2  0
 25 26  1  0
 26 27  2  0
 27 28  1  0
 12 29  2  0
 29 30  1  0
 30 31  1  0
  3 32  1  0
 32 33  1  0
 33 34  1  0
 34 35  1  0
 35 36  1  0
 35 37  1  0
 37 38  1  0
 31  7  1  0
 38 32  1  0
 31 11  2  0
 27 13  1  0
 22 17  1  0
  1 39  1  0
  1 40  1  0
  1 41  1  0
  2 42  1  0
  2 43  1  0
  3 44  1  1
  6 45  1  0
  8 46  1  0
  9 47  1  0
 10 48  1  0
 16 49  1  0
 18 50  1  0
 20 51  1  0
 20 52  1  0
 20 53  1  0
 24 54  1  0
 24 55  1  0
 24 56  1  0
 26 57  1  0
 28 58  1  0
 28 59  1  0
 28 60  1  0
 29 61  1  0
 30 62  1  0
 33 63  1  0
 33 64  1  0
 34 65  1  0
 34 66  1  0
 36 67  1  0
 36 68  1  0
 36 69  1  0
 37 70  1  0
 37 71  1  0
 38 72  1  0
 38 73  1  0
M  END
$$$$
