@<TRIPOS>MOLECULE
*****
 73 77 0 0 0
SMALL
GASTEIGER

@<TRIPOS>ATOM
      1 C           6.5535   -1.9580   -0.4161 C.3     1  UNL1       -0.0634
      2 C           5.1315   -1.5219   -0.5193 C.3     1  UNL1       -0.0317
      3 C           4.7264   -0.3083    0.2030 C.3     1  UNL1        0.0874
      4 C           3.2944   -0.0117    0.0019 C.2     1  UNL1        0.2345
      5 O           2.9095    1.1607   -0.2090 O.2     1  UNL1       -0.2737
      6 N           2.2988   -1.0231    0.0375 N.am    1  UNL1       -0.2825
      7 C           0.9219   -0.7405   -0.1527 C.ar    1  UNL1        0.0576
      8 C           0.4035   -0.7728   -1.4164 C.ar    1  UNL1       -0.0384
      9 C          -0.9420   -0.5013   -1.6591 C.ar    1  UNL1       -0.0593
     10 C          -1.7689   -0.1910   -0.5797 C.ar    1  UNL1       -0.0518
     11 C          -1.2824   -0.1506    0.6916 C.ar    1  UNL1        0.0107
     12 C          -1.8840    0.1278    1.9275 C.ar    1  UNL1        0.0258
     13 C          -3.2796    0.4897    2.0817 C.ar    1  UNL1        0.0809
     14 N          -4.0632    0.6503    0.9742 N.ar    1  UNL1       -0.2139
     15 C          -5.3467    0.9826    0.9980 C.ar    1  UNL1        0.2202
     16 N          -6.1230    1.1260   -0.1945 N.pl3   1  UNL1       -0.2782
     17 C          -7.0696    0.1486   -0.5773 C.ar    1  UNL1        0.1152
     18 C          -7.4252   -1.0076    0.1175 C.ar    1  UNL1        0.0503
     19 N          -8.3833   -1.6693   -0.5680 N.ar    1  UNL1       -0.2692
     20 C          -9.0263   -2.9104   -0.1897 C.3     1  UNL1        0.0304
     21 N          -8.6236   -0.9608   -1.6520 N.ar    1  UNL1       -0.1317
     22 C          -7.8704    0.1260   -1.7053 C.ar    1  UNL1        0.2552
     23 O          -7.8419    1.1081   -2.6939 O.3     1  UNL1       -0.4774
     24 C          -8.6619    1.0761   -3.8284 C.3     1  UNL1        0.0805
     25 N          -5.9650    1.1864    2.1826 N.ar    1  UNL1       -0.2224
     26 C          -5.2802    1.0504    3.3111 C.ar    1  UNL1        0.0361
     27 C          -3.9333    0.7005    3.2668 C.ar    1  UNL1       -0.0062
     28 C          -3.2395    0.5310    4.5577 C.3     1  UNL1       -0.0362
     29 C          -0.8758    0.0087    2.8288 C.ar    1  UNL1        0.0120
     30 N           0.3002   -0.3273    2.1995 N.ar    1  UNL1       -0.3586
     31 C           0.0668   -0.4285    0.8883 C.ar    1  UNL1        0.0686
     32 N           5.4922    0.8712    0.0839 N.3     1  UNL1       -0.2891
     33 C           6.7072    0.9954    0.7705 C.3     1  UNL1        0.0124
     34 C           7.9653    1.0512   -0.0085 C.3     1  UNL1        0.0114
     35 N           7.8592    1.2929   -1.3851 N.3     1  UNL1       -0.3029
     36 C           8.8843    0.8189   -2.2405 C.3     1  UNL1       -0.0127
     37 C           6.6456    1.7045   -1.9508 C.3     1  UNL1        0.0114
     38 C           5.3977    1.5593   -1.1617 C.3     1  UNL1        0.0124
     39 H           7.0564   -1.7722    0.5289 H       1  UNL1        0.0230
     40 H           6.6606   -3.0486   -0.7163 H       1  UNL1        0.0230
     41 H           7.1342   -1.4197   -1.2187 H       1  UNL1        0.0230
     42 H           4.8478   -1.5403   -1.5970 H       1  UNL1        0.0282
     43 H           4.5263   -2.3788   -0.0861 H       1  UNL1        0.0282
     44 H           4.7925   -0.5873    1.3184 H       1  UNL1        0.0558
     45 H           2.5856   -1.9984    0.2095 H       1  UNL1        0.1549
     46 H           0.9910   -1.0050   -2.2942 H       1  UNL1        0.0637
     47 H          -1.3857   -0.5162   -2.6265 H       1  UNL1        0.0618
     48 H          -2.8104    0.0164   -0.7782 H       1  UNL1        0.0624
     49 H          -5.9789    1.9642   -0.7760 H       1  UNL1        0.1552
     50 H          -7.0062   -1.3256    1.0525 H       1  UNL1        0.0846
     51 H         -10.1386   -2.8182   -0.1555 H       1  UNL1        0.0473
     52 H          -8.7070   -3.7436   -0.8476 H       1  UNL1        0.0473
     53 H          -8.6869   -3.2086    0.8401 H       1  UNL1        0.0473
     54 H          -8.8460   -0.0020   -4.0715 H       1  UNL1        0.0660
     55 H          -9.6437    1.5481   -3.6855 H       1  UNL1        0.0660
     56 H          -8.0811    1.5040   -4.6592 H       1  UNL1        0.0660
     57 H          -5.7976    1.2175    4.2390 H       1  UNL1        0.0834
     58 H          -2.5707    1.3494    4.7957 H       1  UNL1        0.0279
     59 H          -4.0371    0.5809    5.3790 H       1  UNL1        0.0279
     60 H          -2.8471   -0.5024    4.6507 H       1  UNL1        0.0279
     61 H          -0.9085    0.1522    3.8920 H       1  UNL1        0.0814
     62 H           1.2228   -0.4812    2.6494 H       1  UNL1        0.1654
     63 H           6.6544    1.9932    1.3341 H       1  UNL1        0.0439
     64 H           6.7254    0.2637    1.6267 H       1  UNL1        0.0439
     65 H           8.5254    0.0768    0.1326 H       1  UNL1        0.0439
     66 H           8.6821    1.8059    0.4264 H       1  UNL1        0.0439
     67 H           8.5358    0.8466   -3.2936 H       1  UNL1        0.0391
     68 H           9.1075   -0.2370   -1.9874 H       1  UNL1        0.0391
     69 H           9.8265    1.3886   -2.0912 H       1  UNL1        0.0391
     70 H           6.7906    2.7680   -2.3203 H       1  UNL1        0.0439
     71 H           6.5071    1.1081   -2.9096 H       1  UNL1        0.0439
     72 H           5.0241    2.6009   -0.9318 H       1  UNL1        0.0439
     73 H           4.5776    1.1172   -1.7903 H       1  UNL1        0.0439
@<TRIPOS>BOND
     1     1     2    1
     2     2     3    1
     3     3     4    1
     4     4     5    2
     5     4     6   am
     6     6     7    1
     7     7     8   ar
     8     8     9   ar
     9     9    10   ar
    10    10    11   ar
    11    11    12   ar
    12    12    13    1
    13    13    14   ar
    14    14    15   ar
    15    15    16    1
    16    16    17    1
    17    17    18   ar
    18    18    19   ar
    19    19    20    1
    20    19    21   ar
    21    21    22   ar
    22    22    23    1
    23    23    24    1
    24    15    25   ar
    25    25    26   ar
    26    26    27   ar
    27    27    28    1
    28    12    29   ar
    29    29    30   ar
    30    30    31   ar
    31     3    32    1
    32    32    33    1
    33    33    34    1
    34    34    35    1
    35    35    36    1
    36    35    37    1
    37    37    38    1
    38    31     7   ar
    39    38    32    1
    40    31    11   ar
    41    27    13   ar
    42    22    17   ar
    43     1    39    1
    44     1    40    1
    45     1    41    1
    46     2    42    1
    47     2    43    1
    48     3    44    1
    49     6    45    1
    50     8    46    1
    51     9    47    1
    52    10    48    1
    53    16    49    1
    54    18    50    1
    55    20    51    1
    56    20    52    1
    57    20    53    1
    58    24    54    1
    59    24    55    1
    60    24    56    1
    61    26    57    1
    62    28    58    1
    63    28    59    1
    64    28    60    1
    65    29    61    1
    66    30    62    1
    67    33    63    1
    68    33    64    1
    69    34    65    1
    70    34    66    1
    71    36    67    1
    72    36    68    1
    73    36    69    1
    74    37    70    1
    75    37    71    1
    76    38    72    1
    77    38    73    1
