@<TRIPOS>MOLECULE
*****
 74 79 0 0 0
SMALL
GASTEIGER

@<TRIPOS>ATOM
      1 C          -0.2341   -1.2985   -3.5484 C.ar    1  UNL1       -0.0617
      2 C          -0.5488   -2.0934   -2.4612 C.ar    1  UNL1       -0.0612
      3 C          -0.8321   -1.5719   -1.2225 C.ar    1  UNL1       -0.0539
      4 C          -0.8032   -0.1912   -1.0471 C.ar    1  UNL1       -0.0135
      5 C          -1.0634    0.3396    0.2760 C.ar    1  UNL1        0.0406
      6 C          -0.0858    0.5172    1.2784 C.ar    1  UNL1        0.1460
      7 C           1.3093    0.1629    1.0360 C.ar    1  UNL1        0.0182
      8 C           2.0548    0.8483    0.1027 C.ar    1  UNL1       -0.0476
      9 C           3.3778    0.5229   -0.1521 C.ar    1  UNL1       -0.0193
     10 C           3.9121   -0.5298    0.5827 C.ar    1  UNL1        0.1206
     11 O           5.2418   -0.8829    0.3491 O.3     1  UNL1       -0.4907
     12 C           6.0284   -0.1912   -0.6080 C.3     1  UNL1        0.1022
     13 C           7.4045   -0.7702   -0.6595 C.3     1  UNL1        0.0331
     14 N           8.1131   -0.7040    0.5814 N.3     1  UNL1       -0.2991
     15 C           9.4200   -1.2880    0.4110 C.3     1  UNL1       -0.0010
     16 C          10.2969   -0.1969   -0.2043 C.3     1  UNL1       -0.0390
     17 C           9.6201    1.0756    0.2370 C.3     1  UNL1       -0.0390
     18 C           8.4083    0.6247    1.0238 C.3     1  UNL1       -0.0010
     19 C           3.1801   -1.2100    1.5063 C.ar    1  UNL1       -0.0193
     20 C           1.8854   -0.8641    1.7306 C.ar    1  UNL1       -0.0476
     21 O          -0.6492    1.0087    2.3358 O.2     1  UNL1       -0.4360
     22 C          -1.9483    1.1835    2.1350 C.ar    1  UNL1        0.2331
     23 N          -2.9237    1.6552    2.9204 N.ar    1  UNL1       -0.2005
     24 C          -4.1774    1.7239    2.4539 C.ar    1  UNL1        0.1219
     25 N          -4.4763    1.3318    1.2212 N.ar    1  UNL1       -0.2201
     26 C          -3.5621    0.8484    0.3712 C.ar    1  UNL1        0.1335
     27 N          -3.8636    0.4213   -0.9207 N.pl3   1  UNL1       -0.3272
     28 C          -5.1473    0.4335   -1.5574 C.3     1  UNL1        0.0232
     29 C          -6.2232   -0.3996   -0.9502 C.3     1  UNL1        0.0145
     30 N          -6.6635    0.0703    0.3112 N.3     1  UNL1       -0.2984
     31 C          -7.4620    1.2611    0.1891 C.3     1  UNL1        0.0115
     32 C          -8.6093    1.3197    1.1339 C.3     1  UNL1        0.0087
     33 N          -9.3982    0.0981    0.9006 N.3     1  UNL1       -0.3136
     34 C          -8.6193   -0.9935    1.3804 C.3     1  UNL1        0.0087
     35 C          -7.1522   -0.9057    1.2153 C.3     1  UNL1        0.0115
     36 C          -2.2350    0.7622    0.8257 C.ar    1  UNL1        0.0878
     37 C          -0.4912    0.6225   -2.1205 C.ar    1  UNL1       -0.0539
     38 C          -0.2122    0.0758   -3.3480 C.ar    1  UNL1       -0.0612
     39 H          -0.0139   -1.7264   -4.5163 H       1  UNL1        0.0618
     40 H          -0.5577   -3.1719   -2.6481 H       1  UNL1        0.0618
     41 H          -1.0764   -2.2393   -0.3898 H       1  UNL1        0.0624
     42 H           1.6316    1.6839   -0.4785 H       1  UNL1        0.0626
     43 H           3.9754    1.0556   -0.8850 H       1  UNL1        0.0654
     44 H           5.5518   -0.3760   -1.6038 H       1  UNL1        0.0709
     45 H           6.0258    0.9033   -0.4314 H       1  UNL1        0.0709
     46 H           7.9854   -0.2453   -1.4659 H       1  UNL1        0.0460
     47 H           7.3093   -1.8485   -0.9339 H       1  UNL1        0.0460
     48 H           9.3613   -2.1653   -0.2749 H       1  UNL1        0.0427
     49 H           9.8244   -1.5774    1.3940 H       1  UNL1        0.0427
     50 H          11.2839   -0.2848    0.2560 H       1  UNL1        0.0278
     51 H          10.3010   -0.2691   -1.3043 H       1  UNL1        0.0278
     52 H           9.3694    1.7262   -0.6099 H       1  UNL1        0.0278
     53 H          10.2633    1.6354    0.9311 H       1  UNL1        0.0278
     54 H           7.5632    1.3334    0.9551 H       1  UNL1        0.0427
     55 H           8.6766    0.5503    2.1147 H       1  UNL1        0.0427
     56 H           3.6648   -2.0275    2.0500 H       1  UNL1        0.0654
     57 H           1.2675   -1.3838    2.4597 H       1  UNL1        0.0626
     58 H          -5.0008    2.1080    3.0790 H       1  UNL1        0.1049
     59 H          -3.0983    0.0250   -1.5503 H       1  UNL1        0.1475
     60 H          -5.0808    0.1531   -2.6457 H       1  UNL1        0.0474
     61 H          -5.5420    1.5089   -1.6291 H       1  UNL1        0.0474
     62 H          -7.1297   -0.3700   -1.6368 H       1  UNL1        0.0442
     63 H          -5.9330   -1.4819   -0.9407 H       1  UNL1        0.0442
     64 H          -6.8577    2.1654    0.2168 H       1  UNL1        0.0439
     65 H          -7.9029    1.2174   -0.8535 H       1  UNL1        0.0439
     66 H          -8.2553    1.2974    2.1934 H       1  UNL1        0.0437
     67 H          -9.2147    2.2115    0.8959 H       1  UNL1        0.0437
     68 H          -9.4547    0.0152   -0.1612 H       1  UNL1        0.1220
     69 H          -8.8923   -1.1422    2.4670 H       1  UNL1        0.0437
     70 H          -9.0203   -1.9263    0.8843 H       1  UNL1        0.0437
     71 H          -6.6868   -0.7054    2.2260 H       1  UNL1        0.0439
     72 H          -6.7571   -1.9025    0.9162 H       1  UNL1        0.0439
     73 H          -0.4834    1.6860   -1.9248 H       1  UNL1        0.0624
     74 H           0.0321    0.7517   -4.1821 H       1  UNL1        0.0618
@<TRIPOS>BOND
     1     1     2   ar
     2     2     3   ar
     3     3     4   ar
     4     4     5    1
     5     5     6   ar
     6     6     7    1
     7     7     8   ar
     8     8     9   ar
     9     9    10   ar
    10    10    11    1
    11    11    12    1
    12    12    13    1
    13    13    14    1
    14    14    15    1
    15    15    16    1
    16    16    17    1
    17    17    18    1
    18    10    19   ar
    19    19    20   ar
    20     6    21   ar
    21    21    22   ar
    22    22    23   ar
    23    23    24   ar
    24    24    25   ar
    25    25    26   ar
    26    26    27    1
    27    27    28    1
    28    28    29    1
    29    29    30    1
    30    30    31    1
    31    31    32    1
    32    32    33    1
    33    33    34    1
    34    34    35    1
    35    26    36   ar
    36     4    37   ar
    37    37    38   ar
    38    38     1   ar
    39    36     5   ar
    40    20     7   ar
    41    36    22   ar
    42    18    14    1
    43    35    30    1
    44     1    39    1
    45     2    40    1
    46     3    41    1
    47     8    42    1
    48     9    43    1
    49    12    44    1
    50    12    45    1
    51    13    46    1
    52    13    47    1
    53    15    48    1
    54    15    49    1
    55    16    50    1
    56    16    51    1
    57    17    52    1
    58    17    53    1
    59    18    54    1
    60    18    55    1
    61    19    56    1
    62    20    57    1
    63    24    58    1
    64    27    59    1
    65    28    60    1
    66    28    61    1
    67    29    62    1
    68    29    63    1
    69    31    64    1
    70    31    65    1
    71    32    66    1
    72    32    67    1
    73    33    68    1
    74    34    69    1
    75    34    70    1
    76    35    71    1
    77    35    72    1
    78    37    73    1
    79    38    74    1
