@<TRIPOS>MOLECULE
*****
 58 59 0 0 0
SMALL
GASTEIGER

@<TRIPOS>ATOM
      1 C           1.2044   -1.6650   -1.2352 C.3     1  UNL1       -0.0313
      2 C           0.9445   -2.6634   -0.1268 C.3     1  UNL1       -0.0229
      3 C           0.6369   -1.8020    1.0849 C.3     1  UNL1        0.0620
      4 O           1.8132   -1.2521    1.6171 O.3     1  UNL1       -0.3912
      5 C          -0.2095   -0.6964    0.4840 C.3     1  UNL1        0.0066
      6 C          -1.6533   -1.0393    0.5115 C.2     1  UNL1       -0.0797
      7 C          -2.5005   -0.2562    1.1626 C.2     1  UNL1       -0.0592
      8 C          -3.9551   -0.5451    1.2268 C.3     1  UNL1        0.0768
      9 O          -4.6346    0.6603    1.2607 O.3     1  UNL1       -0.3875
     10 C          -4.4550   -1.3727    0.1038 C.3     1  UNL1       -0.0034
     11 C          -4.2480   -0.7384   -1.2540 C.3     1  UNL1       -0.0589
     12 C          -5.9415   -1.5653    0.2828 C.3     1  UNL1        0.0143
     13 C          -6.5997   -0.2613    0.2720 C.1     1  UNL1       -0.1021
     14 C          -7.1705    0.8260    0.2541 C.1     1  UNL1       -0.1056
     15 C          -7.8336    2.1250    0.2284 C.3     1  UNL1       -0.0026
     16 C           0.3513   -0.4729   -0.8801 C.3     1  UNL1       -0.0255
     17 C           1.2959    0.7212   -0.8555 C.3     1  UNL1       -0.0280
     18 C           2.6634    0.1577   -0.6904 C.2     1  UNL1       -0.0729
     19 C           2.6324   -1.2129   -1.2560 C.3     1  UNL1       -0.0285
     20 C           3.7137    0.7566   -0.1446 C.2     1  UNL1       -0.0847
     21 C           5.0443    0.1026   -0.0269 C.3     1  UNL1       -0.0340
     22 C           6.0970    0.8926   -0.7740 C.3     1  UNL1       -0.0395
     23 C           6.1810    2.2726   -0.1963 C.3     1  UNL1        0.0451
     24 C           7.2277    3.0679   -0.9319 C.2     1  UNL1        0.3047
     25 O           7.4740    4.3824   -0.5597 O.3     1  UNL1       -0.4806
     26 O           7.8731    2.5284   -1.8837 O.2     1  UNL1       -0.2510
     27 H           0.9011   -2.0200   -2.2219 H       1  UNL1        0.0308
     28 H           1.8175   -3.3129    0.0718 H       1  UNL1        0.0293
     29 H           0.0332   -3.2066   -0.3958 H       1  UNL1        0.0293
     30 H           0.0763   -2.3753    1.8525 H       1  UNL1        0.0599
     31 H           2.5489   -1.9086    1.6516 H       1  UNL1        0.2098
     32 H           0.0050    0.2032    1.1251 H       1  UNL1        0.0371
     33 H          -1.9889   -1.9128    0.0058 H       1  UNL1        0.0573
     34 H          -2.1041    0.6256    1.6632 H       1  UNL1        0.0595
     35 H          -4.1609   -1.0669    2.1716 H       1  UNL1        0.0640
     36 H          -4.2349    1.2930    1.8972 H       1  UNL1        0.2102
     37 H          -4.0166   -2.4102    0.1216 H       1  UNL1        0.0335
     38 H          -5.1828   -0.2195   -1.6192 H       1  UNL1        0.0234
     39 H          -3.4745    0.0300   -1.2846 H       1  UNL1        0.0234
     40 H          -4.0918   -1.5708   -1.9714 H       1  UNL1        0.0234
     41 H          -6.3707   -2.2104   -0.5110 H       1  UNL1        0.0401
     42 H          -6.1239   -1.9974    1.2991 H       1  UNL1        0.0401
     43 H          -8.6630    2.1151   -0.5078 H       1  UNL1        0.0362
     44 H          -8.1737    2.4358    1.2289 H       1  UNL1        0.0362
     45 H          -7.1452    2.9314   -0.1416 H       1  UNL1        0.0362
     46 H          -0.4359   -0.2625   -1.6337 H       1  UNL1        0.0313
     47 H           1.2360    1.3369   -1.7664 H       1  UNL1        0.0313
     48 H           1.1281    1.3327    0.0678 H       1  UNL1        0.0313
     49 H           3.0629   -1.2275   -2.2803 H       1  UNL1        0.0313
     50 H           3.2614   -1.9060   -0.6576 H       1  UNL1        0.0313
     51 H           3.5460    1.7586    0.2148 H       1  UNL1        0.0572
     52 H           5.0299   -0.9038   -0.4855 H       1  UNL1        0.0308
     53 H           5.3558    0.0203    1.0348 H       1  UNL1        0.0308
     54 H           5.7119    1.0197   -1.8237 H       1  UNL1        0.0273
     55 H           7.0585    0.3805   -0.7925 H       1  UNL1        0.0273
     56 H           5.2181    2.8082   -0.2769 H       1  UNL1        0.0378
     57 H           6.4843    2.2399    0.8681 H       1  UNL1        0.0378
     58 H           7.7405    5.0300   -1.2967 H       1  UNL1        0.2951
@<TRIPOS>BOND
     1     1     2    1
     2     2     3    1
     3     3     4    1
     4     3     5    1
     5     5     6    1
     6     6     7    2
     7     7     8    1
     8     8     9    1
     9     8    10    1
    10    10    11    1
    11    10    12    1
    12    12    13    1
    13    13    14    3
    14    14    15    1
    15     5    16    1
    16    16    17    1
    17    17    18    1
    18    18    19    1
    19    18    20    2
    20    20    21    1
    21    21    22    1
    22    22    23    1
    23    23    24    1
    24    24    25    1
    25    24    26    2
    26    16     1    1
    27    19     1    1
    28     1    27    1
    29     2    28    1
    30     2    29    1
    31     3    30    1
    32     4    31    1
    33     5    32    1
    34     6    33    1
    35     7    34    1
    36     8    35    1
    37     9    36    1
    38    10    37    1
    39    11    38    1
    40    11    39    1
    41    11    40    1
    42    12    41    1
    43    12    42    1
    44    15    43    1
    45    15    44    1
    46    15    45    1
    47    16    46    1
    48    17    47    1
    49    17    48    1
    50    19    49    1
    51    19    50    1
    52    20    51    1
    53    21    52    1
    54    21    53    1
    55    22    54    1
    56    22    55    1
    57    23    56    1
    58    23    57    1
    59    25    58    1
