@<TRIPOS>MOLECULE
*****
 39 40 0 0 0
SMALL
GASTEIGER

@<TRIPOS>ATOM
      1 C           1.0276    1.4810    3.7967 C.3     1  UNL1        0.0790
      2 O           1.9172    1.3009    2.7101 O.3     1  UNL1       -0.4913
      3 C           1.5317    0.5428    1.6168 C.ar    1  UNL1        0.1654
      4 C           0.2975   -0.0742    1.5025 C.ar    1  UNL1       -0.0126
      5 C          -0.0789   -0.8261    0.4126 C.ar    1  UNL1       -0.0358
      6 C          -1.4130   -1.4904    0.2799 C.3     1  UNL1        0.0025
      7 C          -2.3862   -0.7299   -0.4903 C.ar    1  UNL1        0.0146
      8 C          -2.6343   -1.0816   -1.8247 C.ar    1  UNL1        0.0379
      9 N          -3.5133   -0.3810   -2.5434 N.ar    1  UNL1       -0.2227
     10 C          -4.1878    0.6656   -2.0464 C.ar    1  UNL1        0.2142
     11 N          -5.0896    1.3189   -2.9209 N.pl3   1  UNL1       -0.3274
     12 N          -3.9748    1.0292   -0.7725 N.ar    1  UNL1       -0.1999
     13 C          -3.0827    0.3397    0.0021 C.ar    1  UNL1        0.1247
     14 N          -2.8812    0.7307    1.3525 N.pl3   1  UNL1       -0.3428
     15 C           0.8649   -0.9489   -0.6119 C.ar    1  UNL1       -0.0126
     16 C           2.1041   -0.3532   -0.5413 C.ar    1  UNL1        0.1654
     17 O           3.0624   -0.4544   -1.5378 O.3     1  UNL1       -0.4913
     18 C           2.8401   -1.1873   -2.7266 C.3     1  UNL1        0.0790
     19 C           2.4261    0.3916    0.5806 C.ar    1  UNL1        0.2035
     20 O           3.6683    0.9988    0.6699 O.3     1  UNL1       -0.4885
     21 C           4.7737    0.3277    1.2468 C.3     1  UNL1        0.0791
     22 H           0.0028    1.7506    3.4581 H       1  UNL1        0.0660
     23 H           1.4064    2.4016    4.3273 H       1  UNL1        0.0660
     24 H           0.9688    0.6017    4.4644 H       1  UNL1        0.0660
     25 H          -0.3828    0.0535    2.3280 H       1  UNL1        0.0658
     26 H          -1.7731   -1.7287    1.3008 H       1  UNL1        0.0363
     27 H          -1.1966   -2.4779   -0.2265 H       1  UNL1        0.0363
     28 H          -2.1094   -1.9193   -2.2590 H       1  UNL1        0.0834
     29 H          -4.9326    2.3541   -3.1090 H       1  UNL1        0.1452
     30 H          -5.8961    0.8880   -3.4035 H       1  UNL1        0.1452
     31 H          -2.7588    0.0280    2.1189 H       1  UNL1        0.1437
     32 H          -2.8486    1.7393    1.6372 H       1  UNL1        0.1437
     33 H           0.6046   -1.5328   -1.4840 H       1  UNL1        0.0658
     34 H           3.8109   -1.5523   -3.1723 H       1  UNL1        0.0660
     35 H           2.2258   -2.0886   -2.5891 H       1  UNL1        0.0660
     36 H           2.4015   -0.4776   -3.4826 H       1  UNL1        0.0660
     37 H           4.8659    0.6078    2.3170 H       1  UNL1        0.0660
     38 H           5.7069    0.5252    0.6770 H       1  UNL1        0.0660
     39 H           4.6323   -0.7723    1.2184 H       1  UNL1        0.0660
@<TRIPOS>BOND
     1     1     2    1
     2     2     3    1
     3     3     4   ar
     4     4     5   ar
     5     5     6    1
     6     6     7    1
     7     7     8   ar
     8     8     9   ar
     9     9    10   ar
    10    10    11    1
    11    10    12   ar
    12    12    13   ar
    13    13    14    1
    14     5    15   ar
    15    15    16   ar
    16    16    17    1
    17    17    18    1
    18    16    19   ar
    19    19    20    1
    20    20    21    1
    21    19     3   ar
    22    13     7   ar
    23     1    22    1
    24     1    23    1
    25     1    24    1
    26     4    25    1
    27     6    26    1
    28     6    27    1
    29     8    28    1
    30    11    29    1
    31    11    30    1
    32    14    31    1
    33    14    32    1
    34    15    33    1
    35    18    34    1
    36    18    35    1
    37    18    36    1
    38    21    37    1
    39    21    38    1
    40    21    39    1
