
     RDKit          3D

 39 40  0  0  0  0  0  0  0  0999 V2000
    1.0276    1.4810    3.7967 C   0  0  0  0  0  0  0  0  0  0  0  0
    1.9172    1.3009    2.7101 O   0  0  0  0  0  0  0  0  0  0  0  0
    1.5317    0.5428    1.6168 C   0  0  0  0  0  0  0  0  0  0  0  0
    0.2975   -0.0742    1.5025 C   0  0  0  0  0  0  0  0  0  0  0  0
   -0.0789   -0.8261    0.4126 C   0  0  0  0  0  0  0  0  0  0  0  0
   -1.4130   -1.4904    0.2799 C   0  0  0  0  0  0  0  0  0  0  0  0
   -2.3862   -0.7299   -0.4903 C   0  0  0  0  0  0  0  0  0  0  0  0
   -2.6343   -1.0816   -1.8247 C   0  0  0  0  0  0  0  0  0  0  0  0
   -3.5133   -0.3810   -2.5434 N   0  0  0  0  0  0  0  0  0  0  0  0
   -4.1878    0.6656   -2.0464 C   0  0  0  0  0  0  0  0  0  0  0  0
   -5.0896    1.3189   -2.9209 N   0  0  0  0  0  0  0  0  0  0  0  0
   -3.9748    1.0292   -0.7725 N   0  0  0  0  0  0  0  0  0  0  0  0
   -3.0827    0.3397    0.0021 C   0  0  0  0  0  0  0  0  0  0  0  0
   -2.8812    0.7307    1.3525 N   0  0  0  0  0  0  0  0  0  0  0  0
    0.8649   -0.9489   -0.6119 C   0  0  0  0  0  0  0  0  0  0  0  0
    2.1041   -0.3532   -0.5413 C   0  0  0  0  0  0  0  0  0  0  0  0
    3.0624   -0.4544   -1.5378 O   0  0  0  0  0  0  0  0  0  0  0  0
    2.8401   -1.1873   -2.7266 C   0  0  0  0  0  0  0  0  0  0  0  0
    2.4261    0.3916    0.5806 C   0  0  0  0  0  0  0  0  0  0  0  0
    3.6683    0.9988    0.6699 O   0  0  0  0  0  0  0  0  0  0  0  0
    4.7737    0.3277    1.2468 C   0  0  0  0  0  0  0  0  0  0  0  0
    0.0028    1.7506    3.4581 H   0  0  0  0  0  0  0  0  0  0  0  0
    1.4064    2.4016    4.3273 H   0  0  0  0  0  0  0  0  0  0  0  0
    0.9688    0.6017    4.4644 H   0  0  0  0  0  0  0  0  0  0  0  0
   -0.3828    0.0535    2.3280 H   0  0  0  0  0  0  0  0  0  0  0  0
   -1.7731   -1.7287    1.3008 H   0  0  0  0  0  0  0  0  0  0  0  0
   -1.1966   -2.4779   -0.2265 H   0  0  0  0  0  0  0  0  0  0  0  0
   -2.1094   -1.9193   -2.2590 H   0  0  0  0  0  0  0  0  0  0  0  0
   -4.9326    2.3541   -3.1090 H   0  0  0  0  0  0  0  0  0  0  0  0
   -5.8961    0.8880   -3.4035 H   0  0  0  0  0  0  0  0  0  0  0  0
   -2.7588    0.0280    2.1189 H   0  0  0  0  0  0  0  0  0  0  0  0
   -2.8486    1.7393    1.6372 H   0  0  0  0  0  0  0  0  0  0  0  0
    0.6046   -1.5328   -1.4840 H   0  0  0  0  0  0  0  0  0  0  0  0
    3.8109   -1.5523   -3.1723 H   0  0  0  0  0  0  0  0  0  0  0  0
    2.2258   -2.0886   -2.5891 H   0  0  0  0  0  0  0  0  0  0  0  0
    2.4015   -0.4776   -3.4826 H   0  0  0  0  0  0  0  0  0  0  0  0
    4.8659    0.6078    2.3170 H   0  0  0  0  0  0  0  0  0  0  0  0
    5.7069    0.5252    0.6770 H   0  0  0  0  0  0  0  0  0  0  0  0
    4.6323   -0.7723    1.2184 H   0  0  0  0  0  0  0  0  0  0  0  0
  1  2  1  0
  2  3  1  0
  3  4  2  0
  4  5  1  0
  5  6  1  0
  6  7  1  0
  7  8  2  0
  8  9  1  0
  9 10  2  0
 10 11  1  0
 10 12  1  0
 12 13  2  0
 13 14  1  0
  5 15  2  0
 15 16  1  0
 16 17  1  0
 17 18  1  0
 16 19  2  0
 19 20  1  0
 20 21  1  0
 19  3  1  0
 13  7  1  0
  1 22  1  0
  1 23  1  0
  1 24  1  0
  4 25  1  0
  6 26  1  0
  6 27  1  0
  8 28  1  0
 11 29  1  0
 11 30  1  0
 14 31  1  0
 14 32  1  0
 15 33  1  0
 18 34  1  0
 18 35  1  0
 18 36  1  0
 21 37  1  0
 21 38  1  0
 21 39  1  0
M  END
$$$$
