
     RDKit          3D

 62 67  0  0  0  0  0  0  0  0999 V2000
   -4.1249    0.1748    1.4549 O   0  0  0  0  0  0  0  0  0  0  0  0
   -2.9913    0.6493    1.2108 C   0  0  0  0  0  0  0  0  0  0  0  0
   -2.6423    1.9430    1.3301 N   0  0  0  0  0  0  0  0  0  0  0  0
   -3.5135    3.0440    1.7661 C   0  0  0  0  0  0  0  0  0  0  0  0
   -4.1864    3.6453    0.6215 C   0  0  0  0  0  0  0  0  0  0  0  0
   -3.6114    4.6906   -0.0510 C   0  0  0  0  0  0  0  0  0  0  0  0
   -4.2270    5.2923   -1.1529 C   0  0  0  0  0  0  0  0  0  0  0  0
   -5.4412    4.7909   -1.5388 C   0  0  0  0  0  0  0  0  0  0  0  0
   -6.0089    3.7278   -0.8418 C   0  0  0  0  0  0  0  0  0  0  0  0
   -5.3720    3.1873    0.2112 N   0  0  0  0  0  0  0  0  0  0  0  0
   -1.3828    2.0179    0.9823 N   0  0  0  0  0  0  0  0  0  0  0  0
   -0.9239    0.7789    0.6409 C   0  0  0  0  0  0  0  0  0  0  0  0
    0.4328    0.5369    0.2115 C   0  0  0  0  0  0  0  0  0  0  0  0
    0.6700   -0.0146   -1.0161 C   0  0  0  0  0  0  0  0  0  0  0  0
    1.9954   -0.2255   -1.3779 C   0  0  0  0  0  0  0  0  0  0  0  0
    2.9940    0.1003   -0.5535 N   0  0  0  0  0  0  0  0  0  0  0  0
    2.8033    0.6448    0.6623 C   0  0  0  0  0  0  0  0  0  0  0  0
    3.8868    0.9819    1.5197 N   0  0  0  0  0  0  0  0  0  0  0  0
    5.2621    0.7765    1.1744 C   0  0  0  0  0  0  0  0  0  0  0  0
    5.5537   -0.6858    0.9103 C   0  0  0  0  0  0  0  0  0  0  0  0
    6.9947   -0.8261    0.5359 C   0  0  0  0  0  0  0  0  0  0  0  0
    7.4030   -0.0142   -0.4904 O   0  0  0  0  0  0  0  0  0  0  0  0
    6.3831    0.7624   -1.0258 C   0  0  0  0  0  0  0  0  0  0  0  0
    5.6917    1.6151   -0.0107 C   0  0  0  0  0  0  0  0  0  0  0  0
    1.4853    0.8558    1.0251 C   0  0  0  0  0  0  0  0  0  0  0  0
   -1.9458   -0.0816    0.7876 N   0  0  0  0  0  0  0  0  0  0  0  0
   -1.8680   -1.4797    0.5284 C   0  0  0  0  0  0  0  0  0  0  0  0
   -0.7276   -2.1903    0.8352 C   0  0  0  0  0  0  0  0  0  0  0  0
   -0.6876   -3.5422    0.5705 C   0  0  0  0  0  0  0  0  0  0  0  0
   -1.7893   -4.1864   -0.0020 C   0  0  0  0  0  0  0  0  0  0  0  0
   -1.7550   -5.5452   -0.2704 C   0  0  0  0  0  0  0  0  0  0  0  0
   -2.8414   -6.1807   -0.8351 C   0  0  0  0  0  0  0  0  0  0  0  0
   -3.9826   -5.4690   -1.1421 C   0  0  0  0  0  0  0  0  0  0  0  0
   -4.0361   -4.1155   -0.8824 C   0  0  0  0  0  0  0  0  0  0  0  0
   -2.9386   -3.4905   -0.3155 C   0  0  0  0  0  0  0  0  0  0  0  0
   -2.9463   -2.1344   -0.0371 C   0  0  0  0  0  0  0  0  0  0  0  0
   -4.2530    2.6249    2.4738 H   0  0  0  0  0  0  0  0  0  0  0  0
   -2.9047    3.7747    2.3570 H   0  0  0  0  0  0  0  0  0  0  0  0
   -2.6457    5.1222    0.2211 H   0  0  0  0  0  0  0  0  0  0  0  0
   -3.7490    6.1250   -1.6735 H   0  0  0  0  0  0  0  0  0  0  0  0
   -5.9483    5.2255   -2.3818 H   0  0  0  0  0  0  0  0  0  0  0  0
   -6.9731    3.3614   -1.1820 H   0  0  0  0  0  0  0  0  0  0  0  0
   -0.1250   -0.2890   -1.7066 H   0  0  0  0  0  0  0  0  0  0  0  0
    2.2418   -0.6586   -2.3368 H   0  0  0  0  0  0  0  0  0  0  0  0
    3.6490    1.3992    2.4431 H   0  0  0  0  0  0  0  0  0  0  0  0
    5.8915    1.0714    2.0347 H   0  0  0  0  0  0  0  0  0  0  0  0
    5.3829   -1.2296    1.8560 H   0  0  0  0  0  0  0  0  0  0  0  0
    4.9059   -1.1327    0.1516 H   0  0  0  0  0  0  0  0  0  0  0  0
    7.1414   -1.8901    0.1879 H   0  0  0  0  0  0  0  0  0  0  0  0
    7.6594   -0.6705    1.4232 H   0  0  0  0  0  0  0  0  0  0  0  0
    5.7077    0.1253   -1.6030 H   0  0  0  0  0  0  0  0  0  0  0  0
    6.8673    1.4625   -1.7627 H   0  0  0  0  0  0  0  0  0  0  0  0
    6.3825    2.4198    0.2956 H   0  0  0  0  0  0  0  0  0  0  0  0
    4.7954    2.0569   -0.4604 H   0  0  0  0  0  0  0  0  0  0  0  0
    1.3433    1.3020    2.0227 H   0  0  0  0  0  0  0  0  0  0  0  0
    0.1438   -1.7020    1.2837 H   0  0  0  0  0  0  0  0  0  0  0  0
    0.1761   -4.1406    0.7905 H   0  0  0  0  0  0  0  0  0  0  0  0
   -0.8405   -6.0852   -0.0182 H   0  0  0  0  0  0  0  0  0  0  0  0
   -2.8301   -7.2352   -1.0495 H   0  0  0  0  0  0  0  0  0  0  0  0
   -4.8495   -5.9551   -1.5883 H   0  0  0  0  0  0  0  0  0  0  0  0
   -4.9297   -3.5207   -1.1150 H   0  0  0  0  0  0  0  0  0  0  0  0
   -3.8517   -1.5958   -0.2860 H   0  0  0  0  0  0  0  0  0  0  0  0
  1  2  2  0
  2  3  1  0
  3  4  1  0
  4  5  1  0
  5  6  2  0
  6  7  1  0
  7  8  2  0
  8  9  1  0
  9 10  2  0
  3 11  1  0
 11 12  2  0
 12 13  1  0
 13 14  2  0
 14 15  1  0
 15 16  2  0
 16 17  1  0
 17 18  1  0
 18 19  1  0
 19 20  1  0
 20 21  1  0
 21 22  1  0
 22 23  1  0
 23 24  1  0
 17 25  2  0
 12 26  1  0
 26 27  1  0
 27 28  2  0
 28 29  1  0
 29 30  2  0
 30 31  1  0
 31 32  2  0
 32 33  1  0
 33 34  2  0
 34 35  1  0
 35 36  2  0
 26  2  1  0
 36 27  1  0
 10  5  1  0
 25 13  1  0
 35 30  1  0
 24 19  1  0
  4 37  1  0
  4 38  1  0
  6 39  1  0
  7 40  1  0
  8 41  1  0
  9 42  1  0
 14 43  1  0
 15 44  1  0
 18 45  1  0
 19 46  1  0
 20 47  1  0
 20 48  1  0
 21 49  1  0
 21 50  1  0
 23 51  1  0
 23 52  1  0
 24 53  1  0
 24 54  1  0
 25 55  1  0
 28 56  1  0
 29 57  1  0
 31 58  1  0
 32 59  1  0
 33 60  1  0
 34 61  1  0
 36 62  1  0
M  END
$$$$
