@<TRIPOS>MOLECULE
*****
 62 67 0 0 0
SMALL
GASTEIGER

@<TRIPOS>ATOM
      1 O          -4.1249    0.1748    1.4549 O.2     1  UNL1       -0.2444
      2 C          -2.9913    0.6493    1.2108 C.ar    1  UNL1        0.3519
      3 N          -2.6423    1.9430    1.3301 N.ar    1  UNL1       -0.2064
      4 C          -3.5135    3.0440    1.7661 C.3     1  UNL1        0.0888
      5 C          -4.1864    3.6453    0.6215 C.ar    1  UNL1        0.0627
      6 C          -3.6114    4.6906   -0.0510 C.ar    1  UNL1       -0.0386
      7 C          -4.2270    5.2923   -1.1529 C.ar    1  UNL1       -0.0586
      8 C          -5.4412    4.7909   -1.5388 C.ar    1  UNL1       -0.0436
      9 C          -6.0089    3.7278   -0.8418 C.ar    1  UNL1        0.0279
     10 N          -5.3720    3.1873    0.2112 N.ar    1  UNL1       -0.2580
     11 N          -1.3828    2.0179    0.9823 N.ar    1  UNL1       -0.1478
     12 C          -0.9239    0.7789    0.6409 C.ar    1  UNL1        0.1696
     13 C           0.4328    0.5369    0.2115 C.ar    1  UNL1        0.0243
     14 C           0.6700   -0.0146   -1.0161 C.ar    1  UNL1       -0.0327
     15 C           1.9954   -0.2255   -1.3779 C.ar    1  UNL1        0.0304
     16 N           2.9940    0.1003   -0.5535 N.ar    1  UNL1       -0.2405
     17 C           2.8033    0.6448    0.6623 C.ar    1  UNL1        0.1195
     18 N           3.8868    0.9819    1.5197 N.pl3   1  UNL1       -0.3261
     19 C           5.2621    0.7765    1.1744 C.3     1  UNL1        0.0261
     20 C           5.5537   -0.6858    0.9103 C.3     1  UNL1       -0.0109
     21 C           6.9947   -0.8261    0.5359 C.3     1  UNL1        0.0493
     22 O           7.4030   -0.0142   -0.4904 O.3     1  UNL1       -0.3796
     23 C           6.3831    0.7624   -1.0258 C.3     1  UNL1        0.0493
     24 C           5.6917    1.6151   -0.0107 C.3     1  UNL1       -0.0109
     25 C           1.4853    0.8558    1.0251 C.ar    1  UNL1       -0.0112
     26 N          -1.9458   -0.0816    0.7876 N.ar    1  UNL1       -0.2435
     27 C          -1.8680   -1.4797    0.5284 C.ar    1  UNL1        0.0535
     28 C          -0.7276   -2.1903    0.8352 C.ar    1  UNL1       -0.0370
     29 C          -0.6876   -3.5422    0.5705 C.ar    1  UNL1       -0.0521
     30 C          -1.7893   -4.1864   -0.0020 C.ar    1  UNL1       -0.0178
     31 C          -1.7550   -5.5452   -0.2704 C.ar    1  UNL1       -0.0540
     32 C          -2.8414   -6.1807   -0.8351 C.ar    1  UNL1       -0.0612
     33 C          -3.9826   -5.4690   -1.1421 C.ar    1  UNL1       -0.0612
     34 C          -4.0361   -4.1155   -0.8824 C.ar    1  UNL1       -0.0540
     35 C          -2.9386   -3.4905   -0.3155 C.ar    1  UNL1       -0.0159
     36 C          -2.9463   -2.1344   -0.0371 C.ar    1  UNL1       -0.0299
     37 H          -4.2530    2.6249    2.4738 H       1  UNL1        0.0576
     38 H          -2.9047    3.7747    2.3570 H       1  UNL1        0.0576
     39 H          -2.6457    5.1222    0.2211 H       1  UNL1        0.0636
     40 H          -3.7490    6.1250   -1.6735 H       1  UNL1        0.0619
     41 H          -5.9483    5.2255   -2.3818 H       1  UNL1        0.0633
     42 H          -6.9731    3.3614   -1.1820 H       1  UNL1        0.0829
     43 H          -0.1250   -0.2890   -1.7066 H       1  UNL1        0.0640
     44 H           2.2418   -0.6586   -2.3368 H       1  UNL1        0.0830
     45 H           3.6490    1.3992    2.4431 H       1  UNL1        0.1477
     46 H           5.8915    1.0714    2.0347 H       1  UNL1        0.0499
     47 H           5.3829   -1.2296    1.8560 H       1  UNL1        0.0305
     48 H           4.9059   -1.1327    0.1516 H       1  UNL1        0.0305
     49 H           7.1414   -1.8901    0.1879 H       1  UNL1        0.0560
     50 H           7.6594   -0.6705    1.4232 H       1  UNL1        0.0560
     51 H           5.7077    0.1253   -1.6030 H       1  UNL1        0.0560
     52 H           6.8673    1.4625   -1.7627 H       1  UNL1        0.0560
     53 H           6.3825    2.4198    0.2956 H       1  UNL1        0.0305
     54 H           4.7954    2.0569   -0.4604 H       1  UNL1        0.0305
     55 H           1.3433    1.3020    2.0227 H       1  UNL1        0.0659
     56 H           0.1438   -1.7020    1.2837 H       1  UNL1        0.0638
     57 H           0.1761   -4.1406    0.7905 H       1  UNL1        0.0624
     58 H          -0.8405   -6.0852   -0.0182 H       1  UNL1        0.0624
     59 H          -2.8301   -7.2352   -1.0495 H       1  UNL1        0.0618
     60 H          -4.8495   -5.9551   -1.5883 H       1  UNL1        0.0618
     61 H          -4.9297   -3.5207   -1.1150 H       1  UNL1        0.0624
     62 H          -3.8517   -1.5958   -0.2860 H       1  UNL1        0.0644
@<TRIPOS>BOND
     1     1     2    2
     2     2     3   ar
     3     3     4    1
     4     4     5    1
     5     5     6   ar
     6     6     7   ar
     7     7     8   ar
     8     8     9   ar
     9     9    10   ar
    10     3    11   ar
    11    11    12   ar
    12    12    13    1
    13    13    14   ar
    14    14    15   ar
    15    15    16   ar
    16    16    17   ar
    17    17    18    1
    18    18    19    1
    19    19    20    1
    20    20    21    1
    21    21    22    1
    22    22    23    1
    23    23    24    1
    24    17    25   ar
    25    12    26   ar
    26    26    27    1
    27    27    28   ar
    28    28    29   ar
    29    29    30   ar
    30    30    31   ar
    31    31    32   ar
    32    32    33   ar
    33    33    34   ar
    34    34    35   ar
    35    35    36   ar
    36    26     2   ar
    37    36    27   ar
    38    10     5   ar
    39    25    13   ar
    40    35    30   ar
    41    24    19    1
    42     4    37    1
    43     4    38    1
    44     6    39    1
    45     7    40    1
    46     8    41    1
    47     9    42    1
    48    14    43    1
    49    15    44    1
    50    18    45    1
    51    19    46    1
    52    20    47    1
    53    20    48    1
    54    21    49    1
    55    21    50    1
    56    23    51    1
    57    23    52    1
    58    24    53    1
    59    24    54    1
    60    25    55    1
    61    28    56    1
    62    29    57    1
    63    31    58    1
    64    32    59    1
    65    33    60    1
    66    34    61    1
    67    36    62    1
