@<TRIPOS>MOLECULE
*****
 45 49 0 0 0
SMALL
GASTEIGER

@<TRIPOS>ATOM
      1 N          -5.3757    2.5467    0.6198 N.pl3   1  UNL1       -0.3134
      2 C          -4.4277    1.5447    0.2273 C.2     1  UNL1        0.2763
      3 N          -4.1703    0.4992    0.8944 N.2     1  UNL1       -0.2225
      4 C          -3.2366   -0.5486    0.5716 C.3     1  UNL1        0.1271
      5 C          -3.7401   -1.9058    1.0010 C.3     1  UNL1        0.1199
      6 F          -2.8058   -2.8983    0.6755 F       1  UNL1       -0.2462
      7 C          -1.9147   -0.3095    1.2241 C.ar    1  UNL1        0.0030
      8 C          -0.7761   -0.2132    0.4831 C.ar    1  UNL1       -0.0335
      9 C           0.5027   -0.0126    1.0345 C.ar    1  UNL1        0.0328
     10 N           1.6251    0.0861    0.1856 N.pl3   1  UNL1       -0.2977
     11 C           2.9829   -0.0363    0.5183 C.ar    1  UNL1        0.1490
     12 N           3.3852   -0.3222    1.7634 N.ar    1  UNL1       -0.2380
     13 C           4.6517   -0.4532    2.1498 C.ar    1  UNL1        0.0304
     14 C           5.6883   -0.2960    1.2518 C.ar    1  UNL1       -0.0342
     15 C           5.3089    0.0028   -0.0563 C.ar    1  UNL1        0.0066
     16 C           6.3210    0.1652   -0.9739 C.ar    1  UNL1       -0.0326
     17 C           5.9966    0.4624   -2.2831 C.ar    1  UNL1        0.0596
     18 CL          7.2633    0.6710   -3.4543 Cl      1  UNL1       -0.0820
     19 C           4.6621    0.5803   -2.5976 C.ar    1  UNL1        0.0467
     20 N           3.6810    0.4158   -1.6758 N.ar    1  UNL1       -0.2501
     21 C           3.9922    0.1299   -0.4166 C.ar    1  UNL1        0.1109
     22 C           0.5325    0.0835    2.4054 C.ar    1  UNL1       -0.0391
     23 C          -0.5916   -0.0057    3.2186 C.ar    1  UNL1       -0.0413
     24 C          -1.8270   -0.2061    2.5850 C.ar    1  UNL1        0.0466
     25 CL         -3.2518   -0.2837    3.5960 Cl      1  UNL1       -0.0832
     26 C          -3.0467   -0.6458   -0.9394 C.3     1  UNL1        0.0314
     27 C          -4.3290   -0.6312   -1.7192 C.3     1  UNL1       -0.0065
     28 C          -3.3824    0.5248   -1.7194 C.3     1  UNL1        0.1090
     29 O          -3.7062    1.6885   -0.9794 O.2     1  UNL1       -0.4622
     30 H          -6.2564    2.7171    0.1242 H       1  UNL1        0.1466
     31 H          -5.1326    3.1194    1.4576 H       1  UNL1        0.1466
     32 H          -3.9823   -2.0264    2.0475 H       1  UNL1        0.0643
     33 H          -4.7070   -2.1342    0.4488 H       1  UNL1        0.0643
     34 H          -0.8157   -0.2875   -0.5840 H       1  UNL1        0.0640
     35 H           1.4248    0.2805   -0.8423 H       1  UNL1        0.1536
     36 H           4.9395   -0.6875    3.1762 H       1  UNL1        0.0830
     37 H           6.7010   -0.4012    1.5616 H       1  UNL1        0.0639
     38 H           7.3590    0.0595   -0.6645 H       1  UNL1        0.0639
     39 H           4.3850    0.8085   -3.5983 H       1  UNL1        0.0844
     40 H           1.5066    0.2492    2.8942 H       1  UNL1        0.0636
     41 H          -0.5299    0.0745    4.2954 H       1  UNL1        0.0633
     42 H          -2.3303   -1.3907   -1.3104 H       1  UNL1        0.0365
     43 H          -5.2990   -0.5200   -1.1992 H       1  UNL1        0.0306
     44 H          -4.4215   -1.2287   -2.6572 H       1  UNL1        0.0306
     45 H          -2.8529    0.7346   -2.6653 H       1  UNL1        0.0737
@<TRIPOS>BOND
     1     1     2    1
     2     2     3    2
     3     3     4    1
     4     4     5    1
     5     5     6    1
     6     4     7    1
     7     7     8   ar
     8     8     9   ar
     9     9    10    1
    10    10    11    1
    11    11    12   ar
    12    12    13   ar
    13    13    14   ar
    14    14    15   ar
    15    15    16   ar
    16    16    17   ar
    17    17    18    1
    18    17    19   ar
    19    19    20   ar
    20    20    21   ar
    21     9    22   ar
    22    22    23   ar
    23    23    24   ar
    24    24    25    1
    25     4    26    1
    26    26    27    1
    27    27    28    1
    28    28    29    1
    29    29     2    1
    30    24     7   ar
    31    28    26    1
    32    21    11   ar
    33    21    15   ar
    34     1    30    1
    35     1    31    1
    36     5    32    1
    37     5    33    1
    38     8    34    1
    39    10    35    1
    40    13    36    1
    41    14    37    1
    42    16    38    1
    43    19    39    1
    44    22    40    1
    45    23    41    1
    46    26    42    1
    47    27    43    1
    48    27    44    1
    49    28    45    1
