@<TRIPOS>MOLECULE
*****
 37 38 0 0 0
SMALL
GASTEIGER

@<TRIPOS>ATOM
      1 C          -0.4282    0.6412   -1.5969 C.3     1  UNL1        0.1333
      2 F           0.3489    1.2901   -2.5159 F       1  UNL1       -0.2426
      3 C          -1.6110   -0.0943   -2.2406 C.3     1  UNL1        0.0265
      4 C          -1.9072   -1.0808   -1.1040 C.3     1  UNL1        0.1426
      5 O          -0.7746   -1.1656   -0.3241 O.3     1  UNL1       -0.3480
      6 C           0.2684   -0.5827   -1.0006 C.3     1  UNL1        0.1159
      7 C           1.3885   -0.1313   -0.1219 C.3     1  UNL1        0.0881
      8 O           1.9381   -1.1757    0.5841 O.3     1  UNL1       -0.2837
      9 P           3.2173   -0.6796    1.5920 P.3     1  UNL1        0.4834
     10 O           3.2170   -1.5618    3.0546 O.3     1  UNL1       -0.3022
     11 O           2.9437    0.7691    1.9556 O.2     1  UNL1       -0.2269
     12 O           4.7182   -0.8306    0.8096 O.3     1  UNL1       -0.1862
     13 P           5.2973    0.6337    0.2374 P.3     1  UNL1        0.4808
     14 O           4.7695    1.9588    1.1514 O.3     1  UNL1       -0.3023
     15 O           7.0050    0.6792    0.2854 O.3     1  UNL1       -0.3023
     16 O           4.8384    0.8630   -1.1867 O.2     1  UNL1       -0.2271
     17 N          -3.0417   -0.5501   -0.3831 N.ar    1  UNL1       -0.2724
     18 C          -3.0434   -0.0892    0.8807 C.ar    1  UNL1        0.0169
     19 C          -4.1831    0.3996    1.4834 C.ar    1  UNL1        0.0163
     20 C          -5.3552    0.3996    0.7234 C.ar    1  UNL1        0.2182
     21 O          -6.5010    0.8952    1.3410 O.3     1  UNL1       -0.4923
     22 N          -5.3488   -0.0629   -0.5419 N.ar    1  UNL1       -0.1577
     23 C          -4.2005   -0.5344   -1.0914 C.ar    1  UNL1        0.3535
     24 O          -4.2735   -0.9536   -2.2894 O.2     1  UNL1       -0.2443
     25 H          -0.7910    1.2486   -0.7688 H       1  UNL1        0.0679
     26 H          -1.2657   -0.6427   -3.1467 H       1  UNL1        0.0338
     27 H          -2.4600    0.5843   -2.4170 H       1  UNL1        0.0338
     28 H          -2.1622   -2.0693   -1.5574 H       1  UNL1        0.0840
     29 H           0.6230   -1.1760   -1.8638 H       1  UNL1        0.0649
     30 H           2.1755    0.3069   -0.7841 H       1  UNL1        0.0592
     31 H           1.0204    0.6917    0.5298 H       1  UNL1        0.0592
     32 H           3.8868   -2.3075    3.0278 H       1  UNL1        0.2220
     33 H           5.4284    2.1609    1.8570 H       1  UNL1        0.2220
     34 H           7.3111   -0.2337    0.5199 H       1  UNL1        0.2220
     35 H          -2.0692   -0.1544    1.3335 H       1  UNL1        0.0813
     36 H          -4.0900    0.7482    2.5009 H       1  UNL1        0.0685
     37 H          -6.8890    1.8061    1.0668 H       1  UNL1        0.2937
@<TRIPOS>BOND
     1     1     2    1
     2     1     3    1
     3     3     4    1
     4     4     5    1
     5     5     6    1
     6     6     7    1
     7     7     8    1
     8     8     9    1
     9     9    10    1
    10     9    11    2
    11     9    12    1
    12    12    13    1
    13    13    14    1
    14    13    15    1
    15    13    16    2
    16     4    17    1
    17    17    18   ar
    18    18    19   ar
    19    19    20   ar
    20    20    21    1
    21    20    22   ar
    22    22    23   ar
    23    23    24    2
    24     6     1    1
    25    23    17   ar
    26     1    25    1
    27     3    26    1
    28     3    27    1
    29     4    28    1
    30     6    29    1
    31     7    30    1
    32     7    31    1
    33    10    32    1
    34    14    33    1
    35    15    34    1
    36    18    35    1
    37    19    36    1
    38    21    37    1
