@<TRIPOS>MOLECULE
*****
 100 102 0 0 0
SMALL
GASTEIGER

@<TRIPOS>ATOM
      1 C          -7.0061   -1.9978    2.7505 C.3     1  UNL1       -0.0523
      2 C          -7.7597   -0.7611    2.4204 C.3     1  UNL1       -0.0036
      3 N          -7.4477   -0.0892    1.2238 N.3     1  UNL1       -0.2983
      4 C          -6.2113    0.5677    1.0938 C.3     1  UNL1       -0.0008
      5 C          -4.9772   -0.2708    1.0305 C.3     1  UNL1       -0.0402
      6 C          -3.7437    0.6518    0.8824 C.3     1  UNL1       -0.0519
      7 C          -2.4991   -0.1534    0.8188 C.3     1  UNL1       -0.0516
      8 C          -2.3603   -1.1112   -0.2951 C.3     1  UNL1       -0.0371
      9 C          -2.2695   -0.5979   -1.6821 C.3     1  UNL1        0.0152
     10 N          -1.0944    0.1978   -1.9718 N.am    1  UNL1       -0.2923
     11 C           0.1137   -0.5037   -2.3843 C.3     1  UNL1        0.0309
     12 C           0.9474    0.3018   -3.3273 C.3     1  UNL1        0.0309
     13 N           1.1999    1.6220   -2.8346 N.am    1  UNL1       -0.2923
     14 C           2.5150    2.2786   -2.8840 C.3     1  UNL1        0.0152
     15 C           3.3233    2.0235   -1.6547 C.3     1  UNL1       -0.0371
     16 C           3.6781    0.5893   -1.4259 C.3     1  UNL1       -0.0516
     17 C           4.4846    0.3894   -0.1682 C.3     1  UNL1       -0.0519
     18 C           5.7688    1.1557   -0.1423 C.3     1  UNL1       -0.0402
     19 C           6.4784    0.8219    1.1712 C.3     1  UNL1       -0.0008
     20 N           7.7198    1.4829    1.3286 N.3     1  UNL1       -0.2983
     21 C           8.2500    1.1593    2.6600 C.3     1  UNL1       -0.0036
     22 C           7.3493    1.7986    3.7128 C.3     1  UNL1       -0.0523
     23 C           8.7588    1.2584    0.3943 C.3     1  UNL1        0.0275
     24 C           9.4756   -0.0294    0.4579 C.ar    1  UNL1        0.0082
     25 C          10.7067   -0.0547    1.1433 C.ar    1  UNL1       -0.0539
     26 C          11.3813   -1.2349    1.2285 C.ar    1  UNL1       -0.0612
     27 C          10.8951   -2.3930    0.6665 C.ar    1  UNL1       -0.0583
     28 C           9.6910   -2.3575   -0.0022 C.ar    1  UNL1       -0.0196
     29 C           8.9748   -1.1693   -0.1091 C.ar    1  UNL1        0.1245
     30 O           7.7914   -1.2443   -0.7990 O.3     1  UNL1       -0.4948
     31 C           7.2862   -2.4185   -1.3801 C.3     1  UNL1        0.0788
     32 C           0.0921    2.3538   -2.2866 C.2     1  UNL1        0.3017
     33 O           0.1736    3.5989   -2.2060 O.2     1  UNL1       -0.2650
     34 C          -1.0775    1.6001   -1.8509 C.2     1  UNL1        0.3017
     35 O          -2.0354    2.2642   -1.3783 O.2     1  UNL1       -0.2650
     36 C          -7.8263   -0.7663    0.0155 C.3     1  UNL1        0.0275
     37 C          -9.2714   -1.0334   -0.0664 C.ar    1  UNL1        0.0082
     38 C          -9.7052   -2.3107    0.1677 C.ar    1  UNL1       -0.0539
     39 C         -11.0417   -2.6175    0.1048 C.ar    1  UNL1       -0.0612
     40 C         -11.9940   -1.6646   -0.1932 C.ar    1  UNL1       -0.0583
     41 C         -11.5223   -0.3834   -0.4248 C.ar    1  UNL1       -0.0196
     42 C         -10.1855   -0.0554   -0.3665 C.ar    1  UNL1        0.1245
     43 O          -9.7971    1.2577   -0.6131 O.3     1  UNL1       -0.4948
     44 C         -10.6971    2.2828   -0.9211 C.3     1  UNL1        0.0788
     45 H          -6.4852   -2.4736    1.9137 H       1  UNL1        0.0242
     46 H          -6.2613   -1.7694    3.5409 H       1  UNL1        0.0242
     47 H          -7.6693   -2.7814    3.2402 H       1  UNL1        0.0242
     48 H          -7.7401   -0.0079    3.2622 H       1  UNL1        0.0424
     49 H          -8.8508   -1.0514    2.3781 H       1  UNL1        0.0424
     50 H          -6.0752    1.3858    1.8665 H       1  UNL1        0.0427
     51 H          -6.2408    1.1502    0.1287 H       1  UNL1        0.0427
     52 H          -4.7857   -0.8272    1.9489 H       1  UNL1        0.0278
     53 H          -5.0094   -0.9770    0.1812 H       1  UNL1        0.0278
     54 H          -3.7193    1.1915    1.8813 H       1  UNL1        0.0266
     55 H          -3.9208    1.4111    0.1425 H       1  UNL1        0.0266
     56 H          -2.4720   -0.7630    1.7758 H       1  UNL1        0.0266
     57 H          -1.6137    0.5147    0.9209 H       1  UNL1        0.0266
     58 H          -3.1297   -1.9404   -0.2130 H       1  UNL1        0.0280
     59 H          -1.3932   -1.6832   -0.0985 H       1  UNL1        0.0280
     60 H          -3.1832   -0.0519   -2.0110 H       1  UNL1        0.0465
     61 H          -2.2357   -1.4930   -2.3731 H       1  UNL1        0.0465
     62 H           0.6304   -0.8074   -1.4600 H       1  UNL1        0.0480
     63 H          -0.1605   -1.4661   -2.8878 H       1  UNL1        0.0480
     64 H           0.3892    0.3390   -4.3067 H       1  UNL1        0.0480
     65 H           1.8891   -0.2359   -3.5879 H       1  UNL1        0.0480
     66 H           2.3516    3.3617   -3.0748 H       1  UNL1        0.0465
     67 H           3.0235    1.8396   -3.7687 H       1  UNL1        0.0465
     68 H           2.7608    2.3831   -0.7670 H       1  UNL1        0.0280
     69 H           4.2734    2.6183   -1.7746 H       1  UNL1        0.0280
     70 H           4.3450    0.2197   -2.2618 H       1  UNL1        0.0266
     71 H           2.8419   -0.1010   -1.4005 H       1  UNL1        0.0266
     72 H           3.9058    0.6013    0.7434 H       1  UNL1        0.0266
     73 H           4.7675   -0.7026   -0.1533 H       1  UNL1        0.0266
     74 H           6.3528    0.9565   -1.0362 H       1  UNL1        0.0278
     75 H           5.5702    2.2717   -0.1637 H       1  UNL1        0.0278
     76 H           6.4638   -0.2687    1.2831 H       1  UNL1        0.0427
     77 H           5.8054    1.1783    2.0260 H       1  UNL1        0.0427
     78 H           9.2418    1.5846    2.8201 H       1  UNL1        0.0424
     79 H           8.2041    0.0696    2.7977 H       1  UNL1        0.0424
     80 H           6.5669    1.0572    3.9840 H       1  UNL1        0.0242
     81 H           6.9407    2.7591    3.3867 H       1  UNL1        0.0242
     82 H           7.9465    2.0050    4.6451 H       1  UNL1        0.0242
     83 H           8.4151    1.3977   -0.6742 H       1  UNL1        0.0477
     84 H           9.4994    2.1112    0.5231 H       1  UNL1        0.0477
     85 H          11.1013    0.8673    1.5842 H       1  UNL1        0.0622
     86 H          12.3388   -1.2955    1.7525 H       1  UNL1        0.0618
     87 H          11.4186   -3.3223    0.7275 H       1  UNL1        0.0619
     88 H           9.2944   -3.2642   -0.4518 H       1  UNL1        0.0654
     89 H           6.9863   -3.1438   -0.6073 H       1  UNL1        0.0660
     90 H           6.3833   -2.1166   -1.9757 H       1  UNL1        0.0660
     91 H           8.0644   -2.8450   -2.0643 H       1  UNL1        0.0660
     92 H          -7.2489   -1.6851   -0.1266 H       1  UNL1        0.0477
     93 H          -7.5986   -0.0662   -0.8432 H       1  UNL1        0.0477
     94 H          -8.9769   -3.1032    0.4085 H       1  UNL1        0.0622
     95 H         -11.3406   -3.6473    0.2998 H       1  UNL1        0.0618
     96 H         -13.0625   -1.9162   -0.2417 H       1  UNL1        0.0619
     97 H         -12.2598    0.3918   -0.6654 H       1  UNL1        0.0654
     98 H         -11.1063    2.1766   -1.9622 H       1  UNL1        0.0660
     99 H         -10.1590    3.2525   -0.8419 H       1  UNL1        0.0660
    100 H         -11.6058    2.2728   -0.2736 H       1  UNL1        0.0660
@<TRIPOS>BOND
     1     1     2    1
     2     2     3    1
     3     3     4    1
     4     4     5    1
     5     5     6    1
     6     6     7    1
     7     7     8    1
     8     8     9    1
     9     9    10    1
    10    10    11    1
    11    11    12    1
    12    12    13    1
    13    13    14    1
    14    14    15    1
    15    15    16    1
    16    16    17    1
    17    17    18    1
    18    18    19    1
    19    19    20    1
    20    20    21    1
    21    21    22    1
    22    20    23    1
    23    23    24    1
    24    24    25   ar
    25    25    26   ar
    26    26    27   ar
    27    27    28   ar
    28    28    29   ar
    29    29    30    1
    30    30    31    1
    31    13    32   am
    32    32    33    2
    33    32    34    1
    34    34    35    2
    35     3    36    1
    36    36    37    1
    37    37    38   ar
    38    38    39   ar
    39    39    40   ar
    40    40    41   ar
    41    41    42   ar
    42    42    43    1
    43    43    44    1
    44    34    10   am
    45    42    37   ar
    46    29    24   ar
    47     1    45    1
    48     1    46    1
    49     1    47    1
    50     2    48    1
    51     2    49    1
    52     4    50    1
    53     4    51    1
    54     5    52    1
    55     5    53    1
    56     6    54    1
    57     6    55    1
    58     7    56    1
    59     7    57    1
    60     8    58    1
    61     8    59    1
    62     9    60    1
    63     9    61    1
    64    11    62    1
    65    11    63    1
    66    12    64    1
    67    12    65    1
    68    14    66    1
    69    14    67    1
    70    15    68    1
    71    15    69    1
    72    16    70    1
    73    16    71    1
    74    17    72    1
    75    17    73    1
    76    18    74    1
    77    18    75    1
    78    19    76    1
    79    19    77    1
    80    21    78    1
    81    21    79    1
    82    22    80    1
    83    22    81    1
    84    22    82    1
    85    23    83    1
    86    23    84    1
    87    25    85    1
    88    26    86    1
    89    27    87    1
    90    28    88    1
    91    31    89    1
    92    31    90    1
    93    31    91    1
    94    36    92    1
    95    36    93    1
    96    38    94    1
    97    39    95    1
    98    40    96    1
    99    41    97    1
   100    44    98    1
   101    44    99    1
   102    44   100    1
