
     RDKit          3D

100102  0  0  0  0  0  0  0  0999 V2000
   -7.0061   -1.9978    2.7505 C   0  0  0  0  0  0  0  0  0  0  0  0
   -7.7597   -0.7611    2.4204 C   0  0  0  0  0  0  0  0  0  0  0  0
   -7.4477   -0.0892    1.2238 N   0  0  0  0  0  0  0  0  0  0  0  0
   -6.2113    0.5677    1.0938 C   0  0  0  0  0  0  0  0  0  0  0  0
   -4.9772   -0.2708    1.0305 C   0  0  0  0  0  0  0  0  0  0  0  0
   -3.7437    0.6518    0.8824 C   0  0  0  0  0  0  0  0  0  0  0  0
   -2.4991   -0.1534    0.8188 C   0  0  0  0  0  0  0  0  0  0  0  0
   -2.3603   -1.1112   -0.2951 C   0  0  0  0  0  0  0  0  0  0  0  0
   -2.2695   -0.5979   -1.6821 C   0  0  0  0  0  0  0  0  0  0  0  0
   -1.0944    0.1978   -1.9718 N   0  0  0  0  0  0  0  0  0  0  0  0
    0.1137   -0.5037   -2.3843 C   0  0  0  0  0  0  0  0  0  0  0  0
    0.9474    0.3018   -3.3273 C   0  0  0  0  0  0  0  0  0  0  0  0
    1.1999    1.6220   -2.8346 N   0  0  0  0  0  0  0  0  0  0  0  0
    2.5150    2.2786   -2.8840 C   0  0  0  0  0  0  0  0  0  0  0  0
    3.3233    2.0235   -1.6547 C   0  0  0  0  0  0  0  0  0  0  0  0
    3.6781    0.5893   -1.4259 C   0  0  0  0  0  0  0  0  0  0  0  0
    4.4846    0.3894   -0.1682 C   0  0  0  0  0  0  0  0  0  0  0  0
    5.7688    1.1557   -0.1423 C   0  0  0  0  0  0  0  0  0  0  0  0
    6.4784    0.8219    1.1712 C   0  0  0  0  0  0  0  0  0  0  0  0
    7.7198    1.4829    1.3286 N   0  0  0  0  0  0  0  0  0  0  0  0
    8.2500    1.1593    2.6600 C   0  0  0  0  0  0  0  0  0  0  0  0
    7.3493    1.7986    3.7128 C   0  0  0  0  0  0  0  0  0  0  0  0
    8.7588    1.2584    0.3943 C   0  0  0  0  0  0  0  0  0  0  0  0
    9.4756   -0.0294    0.4579 C   0  0  0  0  0  0  0  0  0  0  0  0
   10.7067   -0.0547    1.1433 C   0  0  0  0  0  0  0  0  0  0  0  0
   11.3813   -1.2349    1.2285 C   0  0  0  0  0  0  0  0  0  0  0  0
   10.8951   -2.3930    0.6665 C   0  0  0  0  0  0  0  0  0  0  0  0
    9.6910   -2.3575   -0.0022 C   0  0  0  0  0  0  0  0  0  0  0  0
    8.9748   -1.1693   -0.1091 C   0  0  0  0  0  0  0  0  0  0  0  0
    7.7914   -1.2443   -0.7990 O   0  0  0  0  0  0  0  0  0  0  0  0
    7.2862   -2.4185   -1.3801 C   0  0  0  0  0  0  0  0  0  0  0  0
    0.0921    2.3538   -2.2866 C   0  0  0  0  0  0  0  0  0  0  0  0
    0.1736    3.5989   -2.2060 O   0  0  0  0  0  0  0  0  0  0  0  0
   -1.0775    1.6001   -1.8509 C   0  0  0  0  0  0  0  0  0  0  0  0
   -2.0354    2.2642   -1.3783 O   0  0  0  0  0  0  0  0  0  0  0  0
   -7.8263   -0.7663    0.0155 C   0  0  0  0  0  0  0  0  0  0  0  0
   -9.2714   -1.0334   -0.0664 C   0  0  0  0  0  0  0  0  0  0  0  0
   -9.7052   -2.3107    0.1677 C   0  0  0  0  0  0  0  0  0  0  0  0
  -11.0417   -2.6175    0.1048 C   0  0  0  0  0  0  0  0  0  0  0  0
  -11.9940   -1.6646   -0.1932 C   0  0  0  0  0  0  0  0  0  0  0  0
  -11.5223   -0.3834   -0.4248 C   0  0  0  0  0  0  0  0  0  0  0  0
  -10.1855   -0.0554   -0.3665 C   0  0  0  0  0  0  0  0  0  0  0  0
   -9.7971    1.2577   -0.6131 O   0  0  0  0  0  0  0  0  0  0  0  0
  -10.6971    2.2828   -0.9211 C   0  0  0  0  0  0  0  0  0  0  0  0
   -6.4852   -2.4736    1.9137 H   0  0  0  0  0  0  0  0  0  0  0  0
   -6.2613   -1.7694    3.5409 H   0  0  0  0  0  0  0  0  0  0  0  0
   -7.6693   -2.7814    3.2402 H   0  0  0  0  0  0  0  0  0  0  0  0
   -7.7401   -0.0079    3.2622 H   0  0  0  0  0  0  0  0  0  0  0  0
   -8.8508   -1.0514    2.3781 H   0  0  0  0  0  0  0  0  0  0  0  0
   -6.0752    1.3858    1.8665 H   0  0  0  0  0  0  0  0  0  0  0  0
   -6.2408    1.1502    0.1287 H   0  0  0  0  0  0  0  0  0  0  0  0
   -4.7857   -0.8272    1.9489 H   0  0  0  0  0  0  0  0  0  0  0  0
   -5.0094   -0.9770    0.1812 H   0  0  0  0  0  0  0  0  0  0  0  0
   -3.7193    1.1915    1.8813 H   0  0  0  0  0  0  0  0  0  0  0  0
   -3.9208    1.4111    0.1425 H   0  0  0  0  0  0  0  0  0  0  0  0
   -2.4720   -0.7630    1.7758 H   0  0  0  0  0  0  0  0  0  0  0  0
   -1.6137    0.5147    0.9209 H   0  0  0  0  0  0  0  0  0  0  0  0
   -3.1297   -1.9404   -0.2130 H   0  0  0  0  0  0  0  0  0  0  0  0
   -1.3932   -1.6832   -0.0985 H   0  0  0  0  0  0  0  0  0  0  0  0
   -3.1832   -0.0519   -2.0110 H   0  0  0  0  0  0  0  0  0  0  0  0
   -2.2357   -1.4930   -2.3731 H   0  0  0  0  0  0  0  0  0  0  0  0
    0.6304   -0.8074   -1.4600 H   0  0  0  0  0  0  0  0  0  0  0  0
   -0.1605   -1.4661   -2.8878 H   0  0  0  0  0  0  0  0  0  0  0  0
    0.3892    0.3390   -4.3067 H   0  0  0  0  0  0  0  0  0  0  0  0
    1.8891   -0.2359   -3.5879 H   0  0  0  0  0  0  0  0  0  0  0  0
    2.3516    3.3617   -3.0748 H   0  0  0  0  0  0  0  0  0  0  0  0
    3.0235    1.8396   -3.7687 H   0  0  0  0  0  0  0  0  0  0  0  0
    2.7608    2.3831   -0.7670 H   0  0  0  0  0  0  0  0  0  0  0  0
    4.2734    2.6183   -1.7746 H   0  0  0  0  0  0  0  0  0  0  0  0
    4.3450    0.2197   -2.2618 H   0  0  0  0  0  0  0  0  0  0  0  0
    2.8419   -0.1010   -1.4005 H   0  0  0  0  0  0  0  0  0  0  0  0
    3.9058    0.6013    0.7434 H   0  0  0  0  0  0  0  0  0  0  0  0
    4.7675   -0.7026   -0.1533 H   0  0  0  0  0  0  0  0  0  0  0  0
    6.3528    0.9565   -1.0362 H   0  0  0  0  0  0  0  0  0  0  0  0
    5.5702    2.2717   -0.1637 H   0  0  0  0  0  0  0  0  0  0  0  0
    6.4638   -0.2687    1.2831 H   0  0  0  0  0  0  0  0  0  0  0  0
    5.8054    1.1783    2.0260 H   0  0  0  0  0  0  0  0  0  0  0  0
    9.2418    1.5846    2.8201 H   0  0  0  0  0  0  0  0  0  0  0  0
    8.2041    0.0696    2.7977 H   0  0  0  0  0  0  0  0  0  0  0  0
    6.5669    1.0572    3.9840 H   0  0  0  0  0  0  0  0  0  0  0  0
    6.9407    2.7591    3.3867 H   0  0  0  0  0  0  0  0  0  0  0  0
    7.9465    2.0050    4.6451 H   0  0  0  0  0  0  0  0  0  0  0  0
    8.4151    1.3977   -0.6742 H   0  0  0  0  0  0  0  0  0  0  0  0
    9.4994    2.1112    0.5231 H   0  0  0  0  0  0  0  0  0  0  0  0
   11.1013    0.8673    1.5842 H   0  0  0  0  0  0  0  0  0  0  0  0
   12.3388   -1.2955    1.7525 H   0  0  0  0  0  0  0  0  0  0  0  0
   11.4186   -3.3223    0.7275 H   0  0  0  0  0  0  0  0  0  0  0  0
    9.2944   -3.2642   -0.4518 H   0  0  0  0  0  0  0  0  0  0  0  0
    6.9863   -3.1438   -0.6073 H   0  0  0  0  0  0  0  0  0  0  0  0
    6.3833   -2.1166   -1.9757 H   0  0  0  0  0  0  0  0  0  0  0  0
    8.0644   -2.8450   -2.0643 H   0  0  0  0  0  0  0  0  0  0  0  0
   -7.2489   -1.6851   -0.1266 H   0  0  0  0  0  0  0  0  0  0  0  0
   -7.5986   -0.0662   -0.8432 H   0  0  0  0  0  0  0  0  0  0  0  0
   -8.9769   -3.1032    0.4085 H   0  0  0  0  0  0  0  0  0  0  0  0
  -11.3406   -3.6473    0.2998 H   0  0  0  0  0  0  0  0  0  0  0  0
  -13.0625   -1.9162   -0.2417 H   0  0  0  0  0  0  0  0  0  0  0  0
  -12.2598    0.3918   -0.6654 H   0  0  0  0  0  0  0  0  0  0  0  0
  -11.1063    2.1766   -1.9622 H   0  0  0  0  0  0  0  0  0  0  0  0
  -10.1590    3.2525   -0.8419 H   0  0  0  0  0  0  0  0  0  0  0  0
  -11.6058    2.2728   -0.2736 H   0  0  0  0  0  0  0  0  0  0  0  0
  1  2  1  0
  2  3  1  0
  3  4  1  0
  4  5  1  0
  5  6  1  0
  6  7  1  0
  7  8  1  0
  8  9  1  0
  9 10  1  0
 10 11  1  0
 11 12  1  0
 12 13  1  0
 13 14  1  0
 14 15  1  0
 15 16  1  0
 16 17  1  0
 17 18  1  0
 18 19  1  0
 19 20  1  0
 20 21  1  0
 21 22  1  0
 20 23  1  0
 23 24  1  0
 24 25  2  0
 25 26  1  0
 26 27  2  0
 27 28  1  0
 28 29  2  0
 29 30  1  0
 30 31  1  0
 13 32  1  0
 32 33  2  0
 32 34  1  0
 34 35  2  0
  3 36  1  0
 36 37  1  0
 37 38  2  0
 38 39  1  0
 39 40  2  0
 40 41  1  0
 41 42  2  0
 42 43  1  0
 43 44  1  0
 34 10  1  0
 42 37  1  0
 29 24  1  0
  1 45  1  0
  1 46  1  0
  1 47  1  0
  2 48  1  0
  2 49  1  0
  4 50  1  0
  4 51  1  0
  5 52  1  0
  5 53  1  0
  6 54  1  0
  6 55  1  0
  7 56  1  0
  7 57  1  0
  8 58  1  0
  8 59  1  0
  9 60  1  0
  9 61  1  0
 11 62  1  0
 11 63  1  0
 12 64  1  0
 12 65  1  0
 14 66  1  0
 14 67  1  0
 15 68  1  0
 15 69  1  0
 16 70  1  0
 16 71  1  0
 17 72  1  0
 17 73  1  0
 18 74  1  0
 18 75  1  0
 19 76  1  0
 19 77  1  0
 21 78  1  0
 21 79  1  0
 22 80  1  0
 22 81  1  0
 22 82  1  0
 23 83  1  0
 23 84  1  0
 25 85  1  0
 26 86  1  0
 27 87  1  0
 28 88  1  0
 31 89  1  0
 31 90  1  0
 31 91  1  0
 36 92  1  0
 36 93  1  0
 38 94  1  0
 39 95  1  0
 40 96  1  0
 41 97  1  0
 44 98  1  0
 44 99  1  0
 44100  1  0
M  END
$$$$
