@<TRIPOS>MOLECULE
*****
 71 76 0 0 0
SMALL
GASTEIGER

@<TRIPOS>ATOM
      1 C          -7.6653   -2.1263    1.2035 C.3     1  UNL1       -0.0235
      2 C          -7.3675   -0.6065    1.3182 C.3     1  UNL1        0.1238
      3 O          -6.2165   -0.2707    0.8738 O.3     1  UNL1       -0.4831
      4 C          -4.9840    0.2613    0.7332 C.ar    1  UNL1        0.1426
      5 C          -4.2147   -0.0085   -0.3791 C.ar    1  UNL1        0.0121
      6 C          -3.0130    0.5232   -0.4969 C.ar    1  UNL1        0.0901
      7 N          -2.0231    0.4080   -1.5325 N.ar    1  UNL1       -0.2924
      8 C          -2.3263    0.5405   -2.8324 C.ar    1  UNL1        0.1019
      9 N          -1.1966    0.3834   -3.5754 N.ar    1  UNL1       -0.2353
     10 C          -0.1918    0.1515   -2.7067 C.ar    1  UNL1        0.0900
     11 C           1.1611   -0.0769   -2.9053 C.ar    1  UNL1       -0.0250
     12 C           2.0147   -0.2914   -1.8511 C.ar    1  UNL1        0.0026
     13 C           3.4361   -0.5291   -2.0434 C.ar    1  UNL1        0.0761
     14 C           4.0401   -0.5565   -3.2741 C.ar    1  UNL1       -0.0174
     15 C           5.4015   -0.7829   -3.4194 C.ar    1  UNL1        0.0332
     16 N           6.1336   -0.9782   -2.3235 N.ar    1  UNL1       -0.2229
     17 C           5.5779   -0.9584   -1.1069 C.ar    1  UNL1        0.2159
     18 N           6.4261   -1.1718    0.0176 N.pl3   1  UNL1       -0.3105
     19 C           7.8423   -1.3857   -0.1098 C.3     1  UNL1        0.0256
     20 C           8.4153   -1.6556    1.2702 C.3     1  UNL1       -0.0216
     21 C           9.4864   -0.6707    1.6647 C.3     1  UNL1        0.0003
     22 N           9.0802    0.7108    1.5382 N.3     1  UNL1       -0.3052
     23 C           8.2733    1.1714    2.6346 C.3     1  UNL1       -0.0128
     24 C           8.4888    1.0015    0.2489 C.3     1  UNL1        0.0003
     25 C           8.5705   -0.1850   -0.6856 C.3     1  UNL1       -0.0216
     26 N           4.2613   -0.7384   -0.9839 N.ar    1  UNL1       -0.2145
     27 C           1.4584   -0.2689   -0.5769 C.ar    1  UNL1       -0.0505
     28 C           0.1158   -0.0434   -0.3627 C.ar    1  UNL1       -0.0351
     29 C          -0.7242    0.1698   -1.4321 C.ar    1  UNL1        0.0738
     30 S          -2.7990    1.4985    0.9789 S.2     1  UNL1       -0.0624
     31 C          -4.4281    1.0934    1.6741 C.ar    1  UNL1        0.1172
     32 C          -4.8671    1.6434    2.9427 C.2     1  UNL1        0.2518
     33 N          -6.1175    1.4588    3.5316 N.am    1  UNL1       -0.3248
     34 O          -4.0526    2.3816    3.6227 O.2     1  UNL1       -0.2697
     35 C          -8.5748    0.1028    0.7259 C.ar    1  UNL1        0.0107
     36 C          -9.5700    0.6369    1.5108 C.ar    1  UNL1       -0.0537
     37 C         -10.6597    1.2911    0.9768 C.ar    1  UNL1       -0.0613
     38 C         -10.7834    1.4302   -0.3857 C.ar    1  UNL1       -0.0604
     39 C          -9.8029    0.9053   -1.1900 C.ar    1  UNL1       -0.0430
     40 C          -8.7009    0.2425   -0.6296 C.ar    1  UNL1        0.0476
     41 CL         -7.4810   -0.4244   -1.6883 Cl      1  UNL1       -0.0831
     42 H          -7.1596   -2.5179    0.3148 H       1  UNL1        0.0269
     43 H          -7.2682   -2.6511    2.0970 H       1  UNL1        0.0269
     44 H          -8.7647   -2.2707    1.2070 H       1  UNL1        0.0269
     45 H          -7.5207   -0.4406    2.4416 H       1  UNL1        0.0782
     46 H          -4.5921   -0.6885   -1.1986 H       1  UNL1        0.0681
     47 H          -3.2812    0.7400   -3.3077 H       1  UNL1        0.1033
     48 H           1.4987   -0.0748   -3.9418 H       1  UNL1        0.0646
     49 H           3.4389   -0.3973   -4.1634 H       1  UNL1        0.0654
     50 H           5.8552   -0.8013   -4.3850 H       1  UNL1        0.0831
     51 H           5.9641   -1.1673    0.9756 H       1  UNL1        0.1492
     52 H           8.0023   -2.2256   -0.8110 H       1  UNL1        0.0499
     53 H           7.6186   -1.7674    2.0105 H       1  UNL1        0.0295
     54 H           8.9249   -2.6528    1.1999 H       1  UNL1        0.0295
     55 H           9.6960   -0.8460    2.7402 H       1  UNL1        0.0427
     56 H          10.4199   -0.8293    1.1238 H       1  UNL1        0.0427
     57 H           7.2056    0.9651    2.5147 H       1  UNL1        0.0391
     58 H           8.7120    0.7889    3.5743 H       1  UNL1        0.0391
     59 H           8.3737    2.2954    2.6536 H       1  UNL1        0.0391
     60 H           9.0705    1.8231   -0.2135 H       1  UNL1        0.0427
     61 H           7.4464    1.3569    0.3524 H       1  UNL1        0.0427
     62 H           8.1164    0.0744   -1.6340 H       1  UNL1        0.0295
     63 H           9.6333   -0.4880   -0.7937 H       1  UNL1        0.0295
     64 H           2.1367   -0.4397    0.2641 H       1  UNL1        0.0625
     65 H          -0.3216   -0.0249    0.6271 H       1  UNL1        0.0639
     66 H          -6.9064    2.0954    3.3151 H       1  UNL1        0.1453
     67 H          -6.2850    0.6818    4.1989 H       1  UNL1        0.1453
     68 H          -9.4842    0.5347    2.5990 H       1  UNL1        0.0622
     69 H         -11.4133    1.6918    1.6567 H       1  UNL1        0.0618
     70 H         -11.6567    1.9546   -0.8052 H       1  UNL1        0.0618
     71 H          -9.8828    1.0045   -2.2599 H       1  UNL1        0.0632
@<TRIPOS>BOND
     1     1     2    1
     2     2     3    1
     3     3     4    1
     4     4     5   ar
     5     5     6   ar
     6     6     7    1
     7     7     8   ar
     8     8     9   ar
     9     9    10   ar
    10    10    11   ar
    11    11    12   ar
    12    12    13    1
    13    13    14   ar
    14    14    15   ar
    15    15    16   ar
    16    16    17   ar
    17    17    18    1
    18    18    19    1
    19    19    20    1
    20    20    21    1
    21    21    22    1
    22    22    23    1
    23    22    24    1
    24    24    25    1
    25    17    26   ar
    26    12    27   ar
    27    27    28   ar
    28    28    29   ar
    29     6    30   ar
    30    30    31   ar
    31    31    32    1
    32    32    33   am
    33    32    34    2
    34     2    35    1
    35    35    36   ar
    36    36    37   ar
    37    37    38   ar
    38    38    39   ar
    39    39    40   ar
    40    40    41    1
    41    31     4   ar
    42    40    35   ar
    43    29     7   ar
    44    29    10   ar
    45    26    13   ar
    46    25    19    1
    47     1    42    1
    48     1    43    1
    49     1    44    1
    50     2    45    1
    51     5    46    1
    52     8    47    1
    53    11    48    1
    54    14    49    1
    55    15    50    1
    56    18    51    1
    57    19    52    1
    58    20    53    1
    59    20    54    1
    60    21    55    1
    61    21    56    1
    62    23    57    1
    63    23    58    1
    64    23    59    1
    65    24    60    1
    66    24    61    1
    67    25    62    1
    68    25    63    1
    69    27    64    1
    70    28    65    1
    71    33    66    1
    72    33    67    1
    73    36    68    1
    74    37    69    1
    75    38    70    1
    76    39    71    1
