@<TRIPOS>MOLECULE
*****
 58 62 0 0 0
SMALL
GASTEIGER

@<TRIPOS>ATOM
      1 C          -5.5878   -3.1042    2.4215 C.3     1  UNL1       -0.0397
      2 C          -4.8953   -1.8561    1.9483 C.ar    1  UNL1       -0.0496
      3 C          -5.6220   -0.6951    1.7980 C.ar    1  UNL1       -0.0567
      4 C          -5.0172    0.4646    1.3656 C.ar    1  UNL1       -0.0336
      5 C          -3.6623    0.4538    1.0808 C.ar    1  UNL1        0.0982
      6 N          -3.0308    1.6607    0.6240 N.ar    1  UNL1       -0.1496
      7 N          -1.8376    2.1060    0.8912 N.ar    1  UNL1       -0.1556
      8 C          -1.6459    3.2713    0.2585 C.ar    1  UNL1        0.0697
      9 C          -2.7989    3.5370   -0.4297 C.ar    1  UNL1        0.0697
     10 N          -3.6374    2.5245   -0.1855 N.ar    1  UNL1       -0.1556
     11 C          -2.9135   -0.7062    1.2264 C.ar    1  UNL1        0.0642
     12 C          -1.4692   -0.6865    0.9279 C.2     1  UNL1        0.2491
     13 O          -0.7159   -0.4262    1.8893 O.2     1  UNL1       -0.2699
     14 N          -0.9882   -0.9476   -0.3721 N.am    1  UNL1       -0.2897
     15 C          -1.8917   -1.2398   -1.4334 C.3     1  UNL1        0.0388
     16 C          -1.3047   -2.3192   -2.2819 C.3     1  UNL1        0.0635
     17 O          -0.0907   -1.8837   -2.7869 O.3     1  UNL1       -0.3764
     18 C           0.8637   -1.6918   -1.7960 C.3     1  UNL1        0.0666
     19 C           0.4404   -0.9144   -0.6433 C.3     1  UNL1        0.0537
     20 C           0.8717    0.5130   -0.4980 C.3     1  UNL1       -0.0065
     21 C           2.2961    0.7901   -0.7698 C.ar    1  UNL1       -0.0406
     22 C           3.1863    0.6829    0.2933 C.ar    1  UNL1       -0.0311
     23 C           4.5313    0.8663    0.1007 C.ar    1  UNL1        0.0864
     24 N           5.4645    0.7535    1.1981 N.ar    1  UNL1       -0.1503
     25 N           5.4410   -0.1525    2.1464 N.ar    1  UNL1       -0.1556
     26 C           6.4711    0.0784    2.9702 C.ar    1  UNL1        0.0697
     27 C           7.1317    1.1694    2.4869 C.ar    1  UNL1        0.0697
     28 N           6.4781    1.5795    1.3669 N.ar    1  UNL1       -0.1556
     29 C           5.0444    1.1611   -1.1434 C.ar    1  UNL1       -0.0343
     30 C           4.1619    1.2666   -2.1904 C.ar    1  UNL1       -0.0565
     31 C           2.8110    1.0860   -2.0078 C.ar    1  UNL1       -0.0471
     32 C           1.8951    1.2784   -3.1978 C.3     1  UNL1       -0.0394
     33 C          -3.5556   -1.8376    1.6592 C.ar    1  UNL1       -0.0446
     34 H          -6.6068   -3.0956    1.9850 H       1  UNL1        0.0278
     35 H          -5.0750   -4.0170    2.0496 H       1  UNL1        0.0278
     36 H          -5.6702   -3.1165    3.5245 H       1  UNL1        0.0278
     37 H          -6.6834   -0.7042    2.0266 H       1  UNL1        0.0621
     38 H          -5.6019    1.3541    1.2578 H       1  UNL1        0.0640
     39 H          -0.7538    3.8643    0.2982 H       1  UNL1        0.0864
     40 H          -2.9913    4.4068   -1.0533 H       1  UNL1        0.0864
     41 H          -1.9398   -0.3179   -2.0805 H       1  UNL1        0.0487
     42 H          -2.9191   -1.4617   -1.0771 H       1  UNL1        0.0487
     43 H          -1.9671   -2.5120   -3.1296 H       1  UNL1        0.0575
     44 H          -1.1591   -3.2813   -1.7527 H       1  UNL1        0.0575
     45 H           1.7915   -1.3757   -2.2881 H       1  UNL1        0.0578
     46 H           1.1073   -2.7575   -1.4582 H       1  UNL1        0.0578
     47 H           0.8755   -1.4280    0.2950 H       1  UNL1        0.0526
     48 H           0.2035    1.2234   -1.0724 H       1  UNL1        0.0332
     49 H           0.6869    0.8516    0.5722 H       1  UNL1        0.0332
     50 H           2.8082    0.4481    1.3049 H       1  UNL1        0.0642
     51 H           6.7188   -0.4986    3.8446 H       1  UNL1        0.0864
     52 H           8.0132    1.6274    2.9132 H       1  UNL1        0.0864
     53 H           6.1281    1.3041   -1.2710 H       1  UNL1        0.0639
     54 H           4.5566    1.5027   -3.1928 H       1  UNL1        0.0621
     55 H           2.2957    0.6709   -4.0337 H       1  UNL1        0.0278
     56 H           1.8412    2.3709   -3.4379 H       1  UNL1        0.0278
     57 H           0.9032    0.9001   -2.9156 H       1  UNL1        0.0278
     58 H          -2.9861   -2.7409    1.7744 H       1  UNL1        0.0628
@<TRIPOS>BOND
     1     1     2    1
     2     2     3   ar
     3     3     4   ar
     4     4     5   ar
     5     5     6    1
     6     6     7   ar
     7     7     8   ar
     8     8     9   ar
     9     9    10   ar
    10     5    11   ar
    11    11    12    1
    12    12    13    2
    13    12    14   am
    14    14    15    1
    15    15    16    1
    16    16    17    1
    17    17    18    1
    18    18    19    1
    19    19    20    1
    20    20    21    1
    21    21    22   ar
    22    22    23   ar
    23    23    24    1
    24    24    25   ar
    25    25    26   ar
    26    26    27   ar
    27    27    28   ar
    28    23    29   ar
    29    29    30   ar
    30    30    31   ar
    31    31    32    1
    32    11    33   ar
    33    33     2   ar
    34    10     6   ar
    35    19    14    1
    36    31    21   ar
    37    28    24   ar
    38     1    34    1
    39     1    35    1
    40     1    36    1
    41     3    37    1
    42     4    38    1
    43     8    39    1
    44     9    40    1
    45    15    41    1
    46    15    42    1
    47    16    43    1
    48    16    44    1
    49    18    45    1
    50    18    46    1
    51    19    47    1
    52    20    48    1
    53    20    49    1
    54    22    50    1
    55    26    51    1
    56    27    52    1
    57    29    53    1
    58    30    54    1
    59    32    55    1
    60    32    56    1
    61    32    57    1
    62    33    58    1
