
     RDKit          3D

 58 62  0  0  0  0  0  0  0  0999 V2000
   -5.5878   -3.1042    2.4215 C   0  0  0  0  0  0  0  0  0  0  0  0
   -4.8953   -1.8561    1.9483 C   0  0  0  0  0  0  0  0  0  0  0  0
   -5.6220   -0.6951    1.7980 C   0  0  0  0  0  0  0  0  0  0  0  0
   -5.0172    0.4646    1.3656 C   0  0  0  0  0  0  0  0  0  0  0  0
   -3.6623    0.4538    1.0808 C   0  0  0  0  0  0  0  0  0  0  0  0
   -3.0308    1.6607    0.6240 N   0  0  0  0  0  0  0  0  0  0  0  0
   -1.8376    2.1060    0.8912 N   0  0  0  0  0  0  0  0  0  0  0  0
   -1.6459    3.2713    0.2585 C   0  0  0  0  0  0  0  0  0  0  0  0
   -2.7989    3.5370   -0.4297 C   0  0  0  0  0  0  0  0  0  0  0  0
   -3.6374    2.5245   -0.1855 N   0  0  0  0  0  0  0  0  0  0  0  0
   -2.9135   -0.7062    1.2264 C   0  0  0  0  0  0  0  0  0  0  0  0
   -1.4692   -0.6865    0.9279 C   0  0  0  0  0  0  0  0  0  0  0  0
   -0.7159   -0.4262    1.8893 O   0  0  0  0  0  0  0  0  0  0  0  0
   -0.9882   -0.9476   -0.3721 N   0  0  0  0  0  0  0  0  0  0  0  0
   -1.8917   -1.2398   -1.4334 C   0  0  0  0  0  0  0  0  0  0  0  0
   -1.3047   -2.3192   -2.2819 C   0  0  0  0  0  0  0  0  0  0  0  0
   -0.0907   -1.8837   -2.7869 O   0  0  0  0  0  0  0  0  0  0  0  0
    0.8637   -1.6918   -1.7960 C   0  0  0  0  0  0  0  0  0  0  0  0
    0.4404   -0.9144   -0.6433 C   0  0  1  0  0  0  0  0  0  0  0  0
    0.8717    0.5130   -0.4980 C   0  0  0  0  0  0  0  0  0  0  0  0
    2.2961    0.7901   -0.7698 C   0  0  0  0  0  0  0  0  0  0  0  0
    3.1863    0.6829    0.2933 C   0  0  0  0  0  0  0  0  0  0  0  0
    4.5313    0.8663    0.1007 C   0  0  0  0  0  0  0  0  0  0  0  0
    5.4645    0.7535    1.1981 N   0  0  0  0  0  0  0  0  0  0  0  0
    5.4410   -0.1525    2.1464 N   0  0  0  0  0  0  0  0  0  0  0  0
    6.4711    0.0784    2.9702 C   0  0  0  0  0  0  0  0  0  0  0  0
    7.1317    1.1694    2.4869 C   0  0  0  0  0  0  0  0  0  0  0  0
    6.4781    1.5795    1.3669 N   0  0  0  0  0  0  0  0  0  0  0  0
    5.0444    1.1611   -1.1434 C   0  0  0  0  0  0  0  0  0  0  0  0
    4.1619    1.2666   -2.1904 C   0  0  0  0  0  0  0  0  0  0  0  0
    2.8110    1.0860   -2.0078 C   0  0  0  0  0  0  0  0  0  0  0  0
    1.8951    1.2784   -3.1978 C   0  0  0  0  0  0  0  0  0  0  0  0
   -3.5556   -1.8376    1.6592 C   0  0  0  0  0  0  0  0  0  0  0  0
   -6.6068   -3.0956    1.9850 H   0  0  0  0  0  0  0  0  0  0  0  0
   -5.0750   -4.0170    2.0496 H   0  0  0  0  0  0  0  0  0  0  0  0
   -5.6702   -3.1165    3.5245 H   0  0  0  0  0  0  0  0  0  0  0  0
   -6.6834   -0.7042    2.0266 H   0  0  0  0  0  0  0  0  0  0  0  0
   -5.6019    1.3541    1.2578 H   0  0  0  0  0  0  0  0  0  0  0  0
   -0.7538    3.8643    0.2982 H   0  0  0  0  0  0  0  0  0  0  0  0
   -2.9913    4.4068   -1.0533 H   0  0  0  0  0  0  0  0  0  0  0  0
   -1.9398   -0.3179   -2.0805 H   0  0  0  0  0  0  0  0  0  0  0  0
   -2.9191   -1.4617   -1.0771 H   0  0  0  0  0  0  0  0  0  0  0  0
   -1.9671   -2.5120   -3.1296 H   0  0  0  0  0  0  0  0  0  0  0  0
   -1.1591   -3.2813   -1.7527 H   0  0  0  0  0  0  0  0  0  0  0  0
    1.7915   -1.3757   -2.2881 H   0  0  0  0  0  0  0  0  0  0  0  0
    1.1073   -2.7575   -1.4582 H   0  0  0  0  0  0  0  0  0  0  0  0
    0.8755   -1.4280    0.2950 H   0  0  0  0  0  0  0  0  0  0  0  0
    0.2035    1.2234   -1.0724 H   0  0  0  0  0  0  0  0  0  0  0  0
    0.6869    0.8516    0.5722 H   0  0  0  0  0  0  0  0  0  0  0  0
    2.8082    0.4481    1.3049 H   0  0  0  0  0  0  0  0  0  0  0  0
    6.7188   -0.4986    3.8446 H   0  0  0  0  0  0  0  0  0  0  0  0
    8.0132    1.6274    2.9132 H   0  0  0  0  0  0  0  0  0  0  0  0
    6.1281    1.3041   -1.2710 H   0  0  0  0  0  0  0  0  0  0  0  0
    4.5566    1.5027   -3.1928 H   0  0  0  0  0  0  0  0  0  0  0  0
    2.2957    0.6709   -4.0337 H   0  0  0  0  0  0  0  0  0  0  0  0
    1.8412    2.3709   -3.4379 H   0  0  0  0  0  0  0  0  0  0  0  0
    0.9032    0.9001   -2.9156 H   0  0  0  0  0  0  0  0  0  0  0  0
   -2.9861   -2.7409    1.7744 H   0  0  0  0  0  0  0  0  0  0  0  0
  1  2  1  0
  2  3  2  0
  3  4  1  0
  4  5  2  0
  5  6  1  0
  6  7  1  0
  7  8  2  0
  8  9  1  0
  9 10  2  0
  5 11  1  0
 11 12  1  0
 12 13  2  0
 12 14  1  0
 14 15  1  0
 15 16  1  0
 16 17  1  0
 17 18  1  0
 18 19  1  0
 19 20  1  0
 20 21  1  0
 21 22  2  0
 22 23  1  0
 23 24  1  0
 24 25  1  0
 25 26  2  0
 26 27  1  0
 27 28  2  0
 23 29  2  0
 29 30  1  0
 30 31  2  0
 31 32  1  0
 11 33  2  0
 33  2  1  0
 10  6  1  0
 19 14  1  0
 31 21  1  0
 28 24  1  0
  1 34  1  0
  1 35  1  0
  1 36  1  0
  3 37  1  0
  4 38  1  0
  8 39  1  0
  9 40  1  0
 15 41  1  0
 15 42  1  0
 16 43  1  0
 16 44  1  0
 18 45  1  0
 18 46  1  0
 19 47  1  1
 20 48  1  0
 20 49  1  0
 22 50  1  0
 26 51  1  0
 27 52  1  0
 29 53  1  0
 30 54  1  0
 32 55  1  0
 32 56  1  0
 32 57  1  0
 33 58  1  0
M  END
$$$$
