@<TRIPOS>MOLECULE
*****
 53 57 0 0 0
SMALL
GASTEIGER

@<TRIPOS>ATOM
      1 C          -3.4625   -0.5453   -1.1885 C.3     1  UNL1        0.0150
      2 N          -2.5525   -0.3942   -0.0721 N.ar    1  UNL1       -0.3147
      3 C          -2.6865    0.4361    0.9655 C.ar    1  UNL1        0.2007
      4 N          -3.7379    1.3382    1.2763 N.pl3   1  UNL1       -0.2850
      5 C          -5.0088    1.4002    0.6863 C.ar    1  UNL1        0.0335
      6 C          -5.4822    2.6115    0.1922 C.ar    1  UNL1       -0.0399
      7 C          -6.7285    2.6810   -0.3444 C.ar    1  UNL1       -0.0484
      8 C          -7.5526    1.5686   -0.4147 C.ar    1  UNL1        0.0549
      9 C          -8.8948    1.7089   -1.0208 C.3     1  UNL1        0.4174
     10 F          -9.4879    2.8862   -0.6130 F       1  UNL1       -0.1659
     11 F          -8.7946    1.6756   -2.4068 F       1  UNL1       -0.1659
     12 F          -9.7015    0.6734   -0.5591 F       1  UNL1       -0.1659
     13 C          -7.0954    0.3638    0.0724 C.ar    1  UNL1       -0.0484
     14 C          -5.8407    0.3051    0.6095 C.ar    1  UNL1       -0.0399
     15 N          -1.5665    0.2411    1.7430 N.ar    1  UNL1       -0.2141
     16 C          -0.7663   -0.6789    1.2053 C.ar    1  UNL1        0.0944
     17 C           0.4586   -1.2579    1.5456 C.ar    1  UNL1        0.0082
     18 C           1.0853   -2.2183    0.7943 C.ar    1  UNL1        0.1306
     19 O           2.2789   -2.8307    1.0674 O.3     1  UNL1       -0.4558
     20 C           3.5441   -2.5402    0.7512 C.ar    1  UNL1        0.1320
     21 C           4.3584   -3.6323    0.4090 C.ar    1  UNL1       -0.0012
     22 C           5.6631   -3.4017    0.0736 C.ar    1  UNL1        0.0318
     23 N           6.1504   -2.1576    0.0723 N.ar    1  UNL1       -0.2517
     24 C           5.3931   -1.0758    0.3971 C.ar    1  UNL1        0.1094
     25 C           5.9897    0.2404    0.3647 C.ar    1  UNL1        0.1571
     26 N           5.4687    1.4361    0.6378 N.ar    1  UNL1       -0.2339
     27 C           6.3844    2.3967    0.4775 C.ar    1  UNL1        0.0579
     28 C           7.5529    1.7859    0.0809 C.ar    1  UNL1        0.1398
     29 C           8.8602    2.4162   -0.2312 C.3     1  UNL1        0.4337
     30 F           9.1444    2.1704   -1.5649 F       1  UNL1       -0.1644
     31 F           9.8312    1.8259    0.5621 F       1  UNL1       -0.1644
     32 F           8.8142    3.7513    0.0215 F       1  UNL1       -0.1644
     33 N           7.2863    0.4603    0.0186 N.ar    1  UNL1       -0.3335
     34 C           4.0738   -1.2837    0.7394 C.ar    1  UNL1        0.0097
     35 C           0.4156   -2.6121   -0.3853 C.ar    1  UNL1       -0.0173
     36 C          -0.7946   -2.0484   -0.7338 C.ar    1  UNL1       -0.0326
     37 C          -1.3854   -1.0881    0.0526 C.ar    1  UNL1        0.0700
     38 H          -4.2165   -1.3102   -1.0009 H       1  UNL1        0.0457
     39 H          -3.9224    0.4193   -1.4504 H       1  UNL1        0.0457
     40 H          -2.8563   -0.8819   -2.0920 H       1  UNL1        0.0457
     41 H          -3.5421    2.0542    2.0495 H       1  UNL1        0.1550
     42 H          -4.8236    3.4717    0.2548 H       1  UNL1        0.0636
     43 H          -7.0855    3.6294   -0.7267 H       1  UNL1        0.0624
     44 H          -7.7473   -0.5292    0.0236 H       1  UNL1        0.0624
     45 H          -5.4901   -0.6734    0.9967 H       1  UNL1        0.0636
     46 H           0.9331   -0.9341    2.4459 H       1  UNL1        0.0676
     47 H           3.9640   -4.6401    0.4078 H       1  UNL1        0.0669
     48 H           6.2703   -4.2717   -0.1880 H       1  UNL1        0.0831
     49 H           6.2626    3.4613    0.6229 H       1  UNL1        0.0851
     50 H           8.0117   -0.2377   -0.2606 H       1  UNL1        0.1674
     51 H           3.4374   -0.4293    1.0081 H       1  UNL1        0.0677
     52 H           0.8951   -3.3684   -0.9901 H       1  UNL1        0.0655
     53 H          -1.3042   -2.3677   -1.6560 H       1  UNL1        0.0640
@<TRIPOS>BOND
     1     1     2    1
     2     2     3   ar
     3     3     4    1
     4     4     5    1
     5     5     6   ar
     6     6     7   ar
     7     7     8   ar
     8     8     9    1
     9     9    10    1
    10     9    11    1
    11     9    12    1
    12     8    13   ar
    13    13    14   ar
    14     3    15   ar
    15    15    16   ar
    16    16    17   ar
    17    17    18   ar
    18    18    19    1
    19    19    20    1
    20    20    21   ar
    21    21    22   ar
    22    22    23   ar
    23    23    24   ar
    24    24    25    1
    25    25    26   ar
    26    26    27   ar
    27    27    28   ar
    28    28    29    1
    29    29    30    1
    30    29    31    1
    31    29    32    1
    32    28    33   ar
    33    24    34   ar
    34    18    35   ar
    35    35    36   ar
    36    36    37   ar
    37    37     2   ar
    38    14     5   ar
    39    37    16   ar
    40    34    20   ar
    41    33    25   ar
    42     1    38    1
    43     1    39    1
    44     1    40    1
    45     4    41    1
    46     6    42    1
    47     7    43    1
    48    13    44    1
    49    14    45    1
    50    17    46    1
    51    21    47    1
    52    22    48    1
    53    27    49    1
    54    33    50    1
    55    34    51    1
    56    35    52    1
    57    36    53    1
