@<TRIPOS>MOLECULE
*****
 41 44 0 0 0
SMALL
GASTEIGER

@<TRIPOS>ATOM
      1 O          -0.7557   -0.0320   -0.6203 O.2     1  UNL1       -0.2735
      2 C          -0.9232    0.2469    0.5900 C.2     1  UNL1        0.2375
      3 C           0.0977   -0.1418    1.6231 C.3     1  UNL1        0.1032
      4 N           1.2063   -0.8285    1.0478 N.ar    1  UNL1       -0.2993
      5 C           1.1202   -2.1878    0.9986 C.ar    1  UNL1        0.2522
      6 O           0.1172   -2.8065    1.4380 O.2     1  UNL1       -0.2677
      7 C           2.1824   -2.8603    0.4449 C.ar    1  UNL1        0.0036
      8 C           3.2838   -2.2226   -0.0404 C.ar    1  UNL1       -0.0475
      9 C           3.3246   -0.8565    0.0305 C.ar    1  UNL1       -0.0007
     10 C           4.4552   -0.2394   -0.4757 C.ar    1  UNL1       -0.0410
     11 C           4.5575    1.1180   -0.4410 C.ar    1  UNL1        0.0555
     12 C           5.7396    1.8302   -0.9660 C.3     1  UNL1        0.4174
     13 F           5.7368    1.7975   -2.3651 F       1  UNL1       -0.1659
     14 F           5.6863    3.1602   -0.6147 F       1  UNL1       -0.1659
     15 F           6.9256    1.3240   -0.4658 F       1  UNL1       -0.1659
     16 C           3.5183    1.8310    0.1033 C.ar    1  UNL1       -0.0481
     17 C           2.3819    1.2187    0.6127 C.ar    1  UNL1       -0.0370
     18 C           2.2629   -0.1493    0.5860 C.ar    1  UNL1        0.0526
     19 N          -2.1066    0.9363    0.9248 N.am    1  UNL1       -0.2779
     20 C          -3.0351    1.2801   -0.0767 C.ar    1  UNL1        0.0836
     21 S          -2.8708    2.8258   -1.0372 S.2     1  UNL1       -0.0801
     22 C          -4.3376    2.5482   -2.0461 C.ar    1  UNL1       -0.0078
     23 C          -4.8267    1.3153   -1.5735 C.ar    1  UNL1        0.0374
     24 BR         -6.4452    0.6401   -2.4266 Br      1  UNL1       -0.0490
     25 C          -4.1219    0.7369   -0.5834 C.ar    1  UNL1        0.0614
     26 C          -4.6011   -0.5651   -0.0035 C.ar    1  UNL1        0.1648
     27 N          -5.6722   -1.2769   -0.3815 N.ar    1  UNL1       -0.1295
     28 N          -5.8043   -2.3573    0.3544 N.ar    1  UNL1       -0.1377
     29 C          -4.8070   -2.3514    1.2246 C.ar    1  UNL1        0.1175
     30 N          -4.0730   -1.2505    1.0006 N.ar    1  UNL1       -0.3276
     31 H           0.4006    0.7804    2.1386 H       1  UNL1        0.0589
     32 H          -0.3989   -0.8447    2.3602 H       1  UNL1        0.0589
     33 H           2.1549   -3.9418    0.3862 H       1  UNL1        0.0672
     34 H           4.0978   -2.8059   -0.4689 H       1  UNL1        0.0626
     35 H           5.2609   -0.8232   -0.8998 H       1  UNL1        0.0630
     36 H           3.5635    2.9000    0.1474 H       1  UNL1        0.0624
     37 H           1.5887    1.8106    1.0240 H       1  UNL1        0.0638
     38 H          -2.2966    1.1913    1.9047 H       1  UNL1        0.1554
     39 H          -4.6971    3.1953   -2.8007 H       1  UNL1        0.0705
     40 H          -4.6514   -3.1193    1.9665 H       1  UNL1        0.1046
     41 H          -3.2383   -1.0258    1.5651 H       1  UNL1        0.1683
@<TRIPOS>BOND
     1     1     2    2
     2     2     3    1
     3     3     4    1
     4     4     5   ar
     5     5     6    2
     6     5     7   ar
     7     7     8   ar
     8     8     9   ar
     9     9    10   ar
    10    10    11   ar
    11    11    12    1
    12    12    13    1
    13    12    14    1
    14    12    15    1
    15    11    16   ar
    16    16    17   ar
    17    17    18   ar
    18     2    19   am
    19    19    20    1
    20    20    21   ar
    21    21    22   ar
    22    22    23   ar
    23    23    24    1
    24    23    25   ar
    25    25    26    1
    26    26    27   ar
    27    27    28   ar
    28    28    29   ar
    29    29    30   ar
    30    18     4   ar
    31    25    20   ar
    32    30    26   ar
    33    18     9   ar
    34     3    31    1
    35     3    32    1
    36     7    33    1
    37     8    34    1
    38    10    35    1
    39    16    36    1
    40    17    37    1
    41    19    38    1
    42    22    39    1
    43    29    40    1
    44    30    41    1
