@<TRIPOS>MOLECULE
*****
 37 38 0 0 0
SMALL
GASTEIGER

@<TRIPOS>ATOM
      1 N          -4.9868   -1.7982    1.2122 N.3     1  UNL1       -0.3297
      2 C          -3.9344   -1.2791    0.3901 C.3     1  UNL1       -0.0029
      3 C          -3.3404   -0.0191    1.0158 C.3     1  UNL1       -0.0153
      4 C          -2.2511    0.4967    0.1407 C.ar    1  UNL1       -0.0457
      5 C          -2.5122    1.4043   -0.8650 C.ar    1  UNL1       -0.0551
      6 C          -1.5224    1.9029   -1.6954 C.ar    1  UNL1       -0.0196
      7 C          -0.2514    1.4264   -1.4456 C.ar    1  UNL1        0.1203
      8 O           0.7882    1.8917   -2.2491 O.3     1  UNL1       -0.5065
      9 C           0.1089    0.5150   -0.4598 C.ar    1  UNL1       -0.0026
     10 C          -0.9495    0.0642    0.3312 C.ar    1  UNL1       -0.0516
     11 C           1.5097    0.0840   -0.2955 C.3     1  UNL1       -0.0124
     12 C           2.3152    0.9207    0.6389 C.3     1  UNL1       -0.0461
     13 C           3.7657    0.5750    0.4554 C.3     1  UNL1       -0.0525
     14 C           4.0757   -0.8742    0.3600 C.3     1  UNL1       -0.0530
     15 C           3.0747   -1.7291   -0.3337 C.3     1  UNL1       -0.0525
     16 C           1.6586   -1.3541    0.1249 C.3     1  UNL1       -0.0461
     17 H          -5.6981   -2.2426    0.6037 H       1  UNL1        0.1182
     18 H          -5.4526   -1.0130    1.7152 H       1  UNL1        0.1182
     19 H          -4.3709   -1.0114   -0.5948 H       1  UNL1        0.0425
     20 H          -3.1405   -2.0516    0.3390 H       1  UNL1        0.0425
     21 H          -2.9802   -0.3110    2.0202 H       1  UNL1        0.0325
     22 H          -4.1742    0.6959    1.1364 H       1  UNL1        0.0325
     23 H          -3.5395    1.7591   -1.0312 H       1  UNL1        0.0621
     24 H          -1.6816    2.6143   -2.4949 H       1  UNL1        0.0654
     25 H           1.1103    2.8349   -2.2765 H       1  UNL1        0.2921
     26 H          -0.6770   -0.6573    1.1147 H       1  UNL1        0.0624
     27 H           1.9890    0.2014   -1.3088 H       1  UNL1        0.0350
     28 H           2.2130    2.0004    0.3392 H       1  UNL1        0.0271
     29 H           2.0205    0.8066    1.7062 H       1  UNL1        0.0271
     30 H           4.1666    1.1260   -0.4257 H       1  UNL1        0.0265
     31 H           4.3251    0.9876    1.3376 H       1  UNL1        0.0265
     32 H           4.3239   -1.3279    1.3411 H       1  UNL1        0.0265
     33 H           5.0404   -0.9485   -0.2231 H       1  UNL1        0.0265
     34 H           3.3075   -2.7845   -0.1192 H       1  UNL1        0.0265
     35 H           3.0626   -1.4910   -1.4337 H       1  UNL1        0.0265
     36 H           1.6954   -1.4205    1.2493 H       1  UNL1        0.0271
     37 H           0.9120   -2.0346   -0.3198 H       1  UNL1        0.0271
@<TRIPOS>BOND
     1     1     2    1
     2     2     3    1
     3     3     4    1
     4     4     5   ar
     5     5     6   ar
     6     6     7   ar
     7     7     8    1
     8     7     9   ar
     9     9    10   ar
    10     9    11    1
    11    11    12    1
    12    12    13    1
    13    13    14    1
    14    14    15    1
    15    15    16    1
    16    10     4   ar
    17    16    11    1
    18     1    17    1
    19     1    18    1
    20     2    19    1
    21     2    20    1
    22     3    21    1
    23     3    22    1
    24     5    23    1
    25     6    24    1
    26     8    25    1
    27    10    26    1
    28    11    27    1
    29    12    28    1
    30    12    29    1
    31    13    30    1
    32    13    31    1
    33    14    32    1
    34    14    33    1
    35    15    34    1
    36    15    35    1
    37    16    36    1
    38    16    37    1
