
     RDKit          3D

 37 38  0  0  0  0  0  0  0  0999 V2000
   -4.9868   -1.7982    1.2122 N   0  0  0  0  0  0  0  0  0  0  0  0
   -3.9344   -1.2791    0.3901 C   0  0  0  0  0  0  0  0  0  0  0  0
   -3.3404   -0.0191    1.0158 C   0  0  0  0  0  0  0  0  0  0  0  0
   -2.2511    0.4967    0.1407 C   0  0  0  0  0  0  0  0  0  0  0  0
   -2.5122    1.4043   -0.8650 C   0  0  0  0  0  0  0  0  0  0  0  0
   -1.5224    1.9029   -1.6954 C   0  0  0  0  0  0  0  0  0  0  0  0
   -0.2514    1.4264   -1.4456 C   0  0  0  0  0  0  0  0  0  0  0  0
    0.7882    1.8917   -2.2491 O   0  0  0  0  0  0  0  0  0  0  0  0
    0.1089    0.5150   -0.4598 C   0  0  0  0  0  0  0  0  0  0  0  0
   -0.9495    0.0642    0.3312 C   0  0  0  0  0  0  0  0  0  0  0  0
    1.5097    0.0840   -0.2955 C   0  0  0  0  0  0  0  0  0  0  0  0
    2.3152    0.9207    0.6389 C   0  0  0  0  0  0  0  0  0  0  0  0
    3.7657    0.5750    0.4554 C   0  0  0  0  0  0  0  0  0  0  0  0
    4.0757   -0.8742    0.3600 C   0  0  0  0  0  0  0  0  0  0  0  0
    3.0747   -1.7291   -0.3337 C   0  0  0  0  0  0  0  0  0  0  0  0
    1.6586   -1.3541    0.1249 C   0  0  0  0  0  0  0  0  0  0  0  0
   -5.6981   -2.2426    0.6037 H   0  0  0  0  0  0  0  0  0  0  0  0
   -5.4526   -1.0130    1.7152 H   0  0  0  0  0  0  0  0  0  0  0  0
   -4.3709   -1.0114   -0.5948 H   0  0  0  0  0  0  0  0  0  0  0  0
   -3.1405   -2.0516    0.3390 H   0  0  0  0  0  0  0  0  0  0  0  0
   -2.9802   -0.3110    2.0202 H   0  0  0  0  0  0  0  0  0  0  0  0
   -4.1742    0.6959    1.1364 H   0  0  0  0  0  0  0  0  0  0  0  0
   -3.5395    1.7591   -1.0312 H   0  0  0  0  0  0  0  0  0  0  0  0
   -1.6816    2.6143   -2.4949 H   0  0  0  0  0  0  0  0  0  0  0  0
    1.1103    2.8349   -2.2765 H   0  0  0  0  0  0  0  0  0  0  0  0
   -0.6770   -0.6573    1.1147 H   0  0  0  0  0  0  0  0  0  0  0  0
    1.9890    0.2014   -1.3088 H   0  0  0  0  0  0  0  0  0  0  0  0
    2.2130    2.0004    0.3392 H   0  0  0  0  0  0  0  0  0  0  0  0
    2.0205    0.8066    1.7062 H   0  0  0  0  0  0  0  0  0  0  0  0
    4.1666    1.1260   -0.4257 H   0  0  0  0  0  0  0  0  0  0  0  0
    4.3251    0.9876    1.3376 H   0  0  0  0  0  0  0  0  0  0  0  0
    4.3239   -1.3279    1.3411 H   0  0  0  0  0  0  0  0  0  0  0  0
    5.0404   -0.9485   -0.2231 H   0  0  0  0  0  0  0  0  0  0  0  0
    3.3075   -2.7845   -0.1192 H   0  0  0  0  0  0  0  0  0  0  0  0
    3.0626   -1.4910   -1.4337 H   0  0  0  0  0  0  0  0  0  0  0  0
    1.6954   -1.4205    1.2493 H   0  0  0  0  0  0  0  0  0  0  0  0
    0.9120   -2.0346   -0.3198 H   0  0  0  0  0  0  0  0  0  0  0  0
  1  2  1  0
  2  3  1  0
  3  4  1  0
  4  5  2  0
  5  6  1  0
  6  7  2  0
  7  8  1  0
  7  9  1  0
  9 10  2  0
  9 11  1  0
 11 12  1  0
 12 13  1  0
 13 14  1  0
 14 15  1  0
 15 16  1  0
 10  4  1  0
 16 11  1  0
  1 17  1  0
  1 18  1  0
  2 19  1  0
  2 20  1  0
  3 21  1  0
  3 22  1  0
  5 23  1  0
  6 24  1  0
  8 25  1  0
 10 26  1  0
 11 27  1  0
 12 28  1  0
 12 29  1  0
 13 30  1  0
 13 31  1  0
 14 32  1  0
 14 33  1  0
 15 34  1  0
 15 35  1  0
 16 36  1  0
 16 37  1  0
M  END
$$$$
