@<TRIPOS>MOLECULE
*****
 84 91 0 0 0
SMALL
GASTEIGER

@<TRIPOS>ATOM
      1 O         -11.1479   -0.6041    2.6246 O.3     1  UNL1       -0.3938
      2 C         -10.5050    0.6212    2.8628 C.3     1  UNL1        0.0567
      3 C          -9.9844    1.1952    1.5809 C.3     1  UNL1        0.0195
      4 N          -9.3156    2.4541    1.7540 N.3     1  UNL1       -0.3072
      5 C          -8.8412    2.9690    0.4596 C.3     1  UNL1        0.0569
      6 C          -7.8850    1.9811   -0.1474 C.ar    1  UNL1        0.1517
      7 N          -8.2377    0.9788   -0.9547 N.ar    1  UNL1       -0.1323
      8 N          -7.1802    0.2773   -1.3285 N.ar    1  UNL1       -0.1287
      9 C          -6.1265    0.8751   -0.7232 C.ar    1  UNL1        0.1704
     10 C          -4.7880    0.5743   -0.7514 C.ar    1  UNL1        0.0456
     11 C          -4.4000   -0.5261   -1.5224 C.ar    1  UNL1       -0.0392
     12 C          -3.0338   -0.8006   -1.5238 C.ar    1  UNL1        0.0088
     13 C          -2.5169   -1.9227   -2.2914 C.ar    1  UNL1       -0.0158
     14 C          -2.8709   -3.2279   -2.0400 C.ar    1  UNL1       -0.0540
     15 C          -2.3907   -4.2943   -2.7569 C.ar    1  UNL1       -0.0612
     16 C          -1.5052   -4.0788   -3.7887 C.ar    1  UNL1       -0.0617
     17 C          -1.1196   -2.7813   -4.0787 C.ar    1  UNL1       -0.0612
     18 C          -1.6200   -1.7039   -3.3372 C.ar    1  UNL1       -0.0540
     19 C          -2.1445   -0.0340   -0.8122 C.ar    1  UNL1        0.0794
     20 C          -0.7312   -0.3749   -0.8467 C.ar    1  UNL1        0.0010
     21 C           0.1222    0.5804   -1.3626 C.ar    1  UNL1       -0.0522
     22 C           1.4913    0.3873   -1.4372 C.ar    1  UNL1       -0.0567
     23 C           2.0152   -0.7993   -0.9798 C.ar    1  UNL1       -0.0333
     24 C           3.4681   -1.0816   -0.9963 C.3     1  UNL1        0.0240
     25 N           4.1163   -0.7489    0.2102 N.3     1  UNL1       -0.2981
     26 C           4.0754    0.5542    0.6978 C.3     1  UNL1       -0.0001
     27 C           3.8157    0.6749    2.1814 C.3     1  UNL1       -0.0304
     28 C           4.9705   -0.0676    2.8640 C.3     1  UNL1        0.0212
     29 C           6.2686    0.4955    2.4787 C.ar    1  UNL1        0.1344
     30 N           6.9839    1.4059    3.1631 N.ar    1  UNL1       -0.1339
     31 N           8.1050    1.6998    2.5658 N.ar    1  UNL1       -0.1278
     32 C           8.1505    0.9674    1.4460 C.ar    1  UNL1        0.1800
     33 C           9.2235    0.9555    0.4573 C.ar    1  UNL1        0.1077
     34 C          10.3463    1.7575    0.5967 C.ar    1  UNL1       -0.0326
     35 C          11.3632    1.7336   -0.3680 C.ar    1  UNL1       -0.0582
     36 C          11.2496    0.9114   -1.4530 C.ar    1  UNL1       -0.0436
     37 C          10.1274    0.1191   -1.5765 C.ar    1  UNL1        0.0284
     38 N           9.1632    0.1646   -0.6334 N.ar    1  UNL1       -0.2519
     39 N           7.0216    0.2314    1.3983 N.ar    1  UNL1       -0.3237
     40 C           4.8424   -1.5038    2.4672 C.3     1  UNL1       -0.0304
     41 C           4.4885   -1.7963    1.0736 C.3     1  UNL1       -0.0001
     42 C           1.1447   -1.7578   -0.4613 C.ar    1  UNL1       -0.0567
     43 C          -0.2162   -1.5544   -0.3921 C.ar    1  UNL1       -0.0522
     44 N          -2.5600    1.0194   -0.0812 N.ar    1  UNL1       -0.2459
     45 C          -3.8868    1.3344   -0.0432 C.ar    1  UNL1        0.0766
     46 C          -4.3465    2.4000    0.6918 C.ar    1  UNL1       -0.0190
     47 C          -5.6918    2.6908    0.7109 C.ar    1  UNL1        0.0150
     48 N          -6.5436    1.9188    0.0027 N.ar    1  UNL1       -0.2847
     49 H         -11.7522   -0.5303    1.8558 H       1  UNL1        0.2095
     50 H         -11.2332    1.3265    3.2980 H       1  UNL1        0.0570
     51 H          -9.7006    0.4773    3.6210 H       1  UNL1        0.0570
     52 H         -10.8417    1.3166    0.8819 H       1  UNL1        0.0446
     53 H          -9.3275    0.4206    1.1101 H       1  UNL1        0.0446
     54 H          -8.4444    2.2898    2.3126 H       1  UNL1        0.1224
     55 H          -8.3669    3.9451    0.5677 H       1  UNL1        0.0505
     56 H          -9.7444    3.0540   -0.1777 H       1  UNL1        0.0505
     57 H          -5.1034   -1.1055   -2.0668 H       1  UNL1        0.0632
     58 H          -3.5614   -3.4286   -1.2370 H       1  UNL1        0.0624
     59 H          -2.6894   -5.3247   -2.5367 H       1  UNL1        0.0618
     60 H          -1.1217   -4.9269   -4.3537 H       1  UNL1        0.0618
     61 H          -0.4263   -2.6373   -4.8928 H       1  UNL1        0.0618
     62 H          -1.3275   -0.6936   -3.5581 H       1  UNL1        0.0624
     63 H          -0.2455    1.5396   -1.7383 H       1  UNL1        0.0624
     64 H           2.1376    1.1456   -1.8499 H       1  UNL1        0.0621
     65 H           3.7117   -2.1311   -1.2594 H       1  UNL1        0.0476
     66 H           3.9161   -0.4355   -1.8067 H       1  UNL1        0.0476
     67 H           3.2765    1.1376    0.2054 H       1  UNL1        0.0427
     68 H           5.0130    1.1405    0.5033 H       1  UNL1        0.0427
     69 H           3.8636    1.7254    2.4780 H       1  UNL1        0.0284
     70 H           2.8960    0.1449    2.4225 H       1  UNL1        0.0284
     71 H           4.8420    0.0160    3.9790 H       1  UNL1        0.0380
     72 H          10.4266    2.4007    1.4522 H       1  UNL1        0.0640
     73 H          12.2495    2.3534   -0.2727 H       1  UNL1        0.0619
     74 H          11.9964    0.8431   -2.2339 H       1  UNL1        0.0633
     75 H           9.9909   -0.5590   -2.4315 H       1  UNL1        0.0830
     76 H           6.8239   -0.4203    0.6328 H       1  UNL1        0.1686
     77 H           4.0319   -1.9266    3.1448 H       1  UNL1        0.0284
     78 H           5.7981   -2.0318    2.7317 H       1  UNL1        0.0284
     79 H           5.3287   -2.3746    0.5815 H       1  UNL1        0.0427
     80 H           3.6454   -2.5508    1.0600 H       1  UNL1        0.0427
     81 H           1.5642   -2.6920   -0.1005 H       1  UNL1        0.0621
     82 H          -0.8936   -2.3112    0.0155 H       1  UNL1        0.0624
     83 H          -3.6240    2.9915    1.2443 H       1  UNL1        0.0654
     84 H          -6.0723    3.5417    1.2946 H       1  UNL1        0.0814
@<TRIPOS>BOND
     1     1     2    1
     2     2     3    1
     3     3     4    1
     4     4     5    1
     5     5     6    1
     6     6     7   ar
     7     7     8   ar
     8     8     9   ar
     9     9    10   ar
    10    10    11   ar
    11    11    12   ar
    12    12    13    1
    13    13    14   ar
    14    14    15   ar
    15    15    16   ar
    16    16    17   ar
    17    17    18   ar
    18    12    19   ar
    19    19    20    1
    20    20    21   ar
    21    21    22   ar
    22    22    23   ar
    23    23    24    1
    24    24    25    1
    25    25    26    1
    26    26    27    1
    27    27    28    1
    28    28    29    1
    29    29    30   ar
    30    30    31   ar
    31    31    32   ar
    32    32    33    1
    33    33    34   ar
    34    34    35   ar
    35    35    36   ar
    36    36    37   ar
    37    37    38   ar
    38    32    39   ar
    39    28    40    1
    40    40    41    1
    41    23    42   ar
    42    42    43   ar
    43    19    44   ar
    44    44    45   ar
    45    45    46   ar
    46    46    47   ar
    47    47    48   ar
    48    48     6   ar
    49    48     9   ar
    50    45    10   ar
    51    18    13   ar
    52    43    20   ar
    53    41    25    1
    54    39    29   ar
    55    38    33   ar
    56     1    49    1
    57     2    50    1
    58     2    51    1
    59     3    52    1
    60     3    53    1
    61     4    54    1
    62     5    55    1
    63     5    56    1
    64    11    57    1
    65    14    58    1
    66    15    59    1
    67    16    60    1
    68    17    61    1
    69    18    62    1
    70    21    63    1
    71    22    64    1
    72    24    65    1
    73    24    66    1
    74    26    67    1
    75    26    68    1
    76    27    69    1
    77    27    70    1
    78    28    71    1
    79    34    72    1
    80    35    73    1
    81    36    74    1
    82    37    75    1
    83    39    76    1
    84    40    77    1
    85    40    78    1
    86    41    79    1
    87    41    80    1
    88    42    81    1
    89    43    82    1
    90    46    83    1
    91    47    84    1
