
     RDKit          3D

 84 91  0  0  0  0  0  0  0  0999 V2000
  -11.1479   -0.6041    2.6246 O   0  0  0  0  0  0  0  0  0  0  0  0
  -10.5050    0.6212    2.8628 C   0  0  0  0  0  0  0  0  0  0  0  0
   -9.9844    1.1952    1.5809 C   0  0  0  0  0  0  0  0  0  0  0  0
   -9.3156    2.4541    1.7540 N   0  0  0  0  0  0  0  0  0  0  0  0
   -8.8412    2.9690    0.4596 C   0  0  0  0  0  0  0  0  0  0  0  0
   -7.8850    1.9811   -0.1474 C   0  0  0  0  0  0  0  0  0  0  0  0
   -8.2377    0.9788   -0.9547 N   0  0  0  0  0  0  0  0  0  0  0  0
   -7.1802    0.2773   -1.3285 N   0  0  0  0  0  0  0  0  0  0  0  0
   -6.1265    0.8751   -0.7232 C   0  0  0  0  0  0  0  0  0  0  0  0
   -4.7880    0.5743   -0.7514 C   0  0  0  0  0  0  0  0  0  0  0  0
   -4.4000   -0.5261   -1.5224 C   0  0  0  0  0  0  0  0  0  0  0  0
   -3.0338   -0.8006   -1.5238 C   0  0  0  0  0  0  0  0  0  0  0  0
   -2.5169   -1.9227   -2.2914 C   0  0  0  0  0  0  0  0  0  0  0  0
   -2.8709   -3.2279   -2.0400 C   0  0  0  0  0  0  0  0  0  0  0  0
   -2.3907   -4.2943   -2.7569 C   0  0  0  0  0  0  0  0  0  0  0  0
   -1.5052   -4.0788   -3.7887 C   0  0  0  0  0  0  0  0  0  0  0  0
   -1.1196   -2.7813   -4.0787 C   0  0  0  0  0  0  0  0  0  0  0  0
   -1.6200   -1.7039   -3.3372 C   0  0  0  0  0  0  0  0  0  0  0  0
   -2.1445   -0.0340   -0.8122 C   0  0  0  0  0  0  0  0  0  0  0  0
   -0.7312   -0.3749   -0.8467 C   0  0  0  0  0  0  0  0  0  0  0  0
    0.1222    0.5804   -1.3626 C   0  0  0  0  0  0  0  0  0  0  0  0
    1.4913    0.3873   -1.4372 C   0  0  0  0  0  0  0  0  0  0  0  0
    2.0152   -0.7993   -0.9798 C   0  0  0  0  0  0  0  0  0  0  0  0
    3.4681   -1.0816   -0.9963 C   0  0  0  0  0  0  0  0  0  0  0  0
    4.1163   -0.7489    0.2102 N   0  0  0  0  0  0  0  0  0  0  0  0
    4.0754    0.5542    0.6978 C   0  0  0  0  0  0  0  0  0  0  0  0
    3.8157    0.6749    2.1814 C   0  0  0  0  0  0  0  0  0  0  0  0
    4.9705   -0.0676    2.8640 C   0  0  0  0  0  0  0  0  0  0  0  0
    6.2686    0.4955    2.4787 C   0  0  0  0  0  0  0  0  0  0  0  0
    6.9839    1.4059    3.1631 N   0  0  0  0  0  0  0  0  0  0  0  0
    8.1050    1.6998    2.5658 N   0  0  0  0  0  0  0  0  0  0  0  0
    8.1505    0.9674    1.4460 C   0  0  0  0  0  0  0  0  0  0  0  0
    9.2235    0.9555    0.4573 C   0  0  0  0  0  0  0  0  0  0  0  0
   10.3463    1.7575    0.5967 C   0  0  0  0  0  0  0  0  0  0  0  0
   11.3632    1.7336   -0.3680 C   0  0  0  0  0  0  0  0  0  0  0  0
   11.2496    0.9114   -1.4530 C   0  0  0  0  0  0  0  0  0  0  0  0
   10.1274    0.1191   -1.5765 C   0  0  0  0  0  0  0  0  0  0  0  0
    9.1632    0.1646   -0.6334 N   0  0  0  0  0  0  0  0  0  0  0  0
    7.0216    0.2314    1.3983 N   0  0  0  0  0  0  0  0  0  0  0  0
    4.8424   -1.5038    2.4672 C   0  0  0  0  0  0  0  0  0  0  0  0
    4.4885   -1.7963    1.0736 C   0  0  0  0  0  0  0  0  0  0  0  0
    1.1447   -1.7578   -0.4613 C   0  0  0  0  0  0  0  0  0  0  0  0
   -0.2162   -1.5544   -0.3921 C   0  0  0  0  0  0  0  0  0  0  0  0
   -2.5600    1.0194   -0.0812 N   0  0  0  0  0  0  0  0  0  0  0  0
   -3.8868    1.3344   -0.0432 C   0  0  0  0  0  0  0  0  0  0  0  0
   -4.3465    2.4000    0.6918 C   0  0  0  0  0  0  0  0  0  0  0  0
   -5.6918    2.6908    0.7109 C   0  0  0  0  0  0  0  0  0  0  0  0
   -6.5436    1.9188    0.0027 N   0  0  0  0  0  0  0  0  0  0  0  0
  -11.7522   -0.5303    1.8558 H   0  0  0  0  0  0  0  0  0  0  0  0
  -11.2332    1.3265    3.2980 H   0  0  0  0  0  0  0  0  0  0  0  0
   -9.7006    0.4773    3.6210 H   0  0  0  0  0  0  0  0  0  0  0  0
  -10.8417    1.3166    0.8819 H   0  0  0  0  0  0  0  0  0  0  0  0
   -9.3275    0.4206    1.1101 H   0  0  0  0  0  0  0  0  0  0  0  0
   -8.4444    2.2898    2.3126 H   0  0  0  0  0  0  0  0  0  0  0  0
   -8.3669    3.9451    0.5677 H   0  0  0  0  0  0  0  0  0  0  0  0
   -9.7444    3.0540   -0.1777 H   0  0  0  0  0  0  0  0  0  0  0  0
   -5.1034   -1.1055   -2.0668 H   0  0  0  0  0  0  0  0  0  0  0  0
   -3.5614   -3.4286   -1.2370 H   0  0  0  0  0  0  0  0  0  0  0  0
   -2.6894   -5.3247   -2.5367 H   0  0  0  0  0  0  0  0  0  0  0  0
   -1.1217   -4.9269   -4.3537 H   0  0  0  0  0  0  0  0  0  0  0  0
   -0.4263   -2.6373   -4.8928 H   0  0  0  0  0  0  0  0  0  0  0  0
   -1.3275   -0.6936   -3.5581 H   0  0  0  0  0  0  0  0  0  0  0  0
   -0.2455    1.5396   -1.7383 H   0  0  0  0  0  0  0  0  0  0  0  0
    2.1376    1.1456   -1.8499 H   0  0  0  0  0  0  0  0  0  0  0  0
    3.7117   -2.1311   -1.2594 H   0  0  0  0  0  0  0  0  0  0  0  0
    3.9161   -0.4355   -1.8067 H   0  0  0  0  0  0  0  0  0  0  0  0
    3.2765    1.1376    0.2054 H   0  0  0  0  0  0  0  0  0  0  0  0
    5.0130    1.1405    0.5033 H   0  0  0  0  0  0  0  0  0  0  0  0
    3.8636    1.7254    2.4780 H   0  0  0  0  0  0  0  0  0  0  0  0
    2.8960    0.1449    2.4225 H   0  0  0  0  0  0  0  0  0  0  0  0
    4.8420    0.0160    3.9790 H   0  0  0  0  0  0  0  0  0  0  0  0
   10.4266    2.4007    1.4522 H   0  0  0  0  0  0  0  0  0  0  0  0
   12.2495    2.3534   -0.2727 H   0  0  0  0  0  0  0  0  0  0  0  0
   11.9964    0.8431   -2.2339 H   0  0  0  0  0  0  0  0  0  0  0  0
    9.9909   -0.5590   -2.4315 H   0  0  0  0  0  0  0  0  0  0  0  0
    6.8239   -0.4203    0.6328 H   0  0  0  0  0  0  0  0  0  0  0  0
    4.0319   -1.9266    3.1448 H   0  0  0  0  0  0  0  0  0  0  0  0
    5.7981   -2.0318    2.7317 H   0  0  0  0  0  0  0  0  0  0  0  0
    5.3287   -2.3746    0.5815 H   0  0  0  0  0  0  0  0  0  0  0  0
    3.6454   -2.5508    1.0600 H   0  0  0  0  0  0  0  0  0  0  0  0
    1.5642   -2.6920   -0.1005 H   0  0  0  0  0  0  0  0  0  0  0  0
   -0.8936   -2.3112    0.0155 H   0  0  0  0  0  0  0  0  0  0  0  0
   -3.6240    2.9915    1.2443 H   0  0  0  0  0  0  0  0  0  0  0  0
   -6.0723    3.5417    1.2946 H   0  0  0  0  0  0  0  0  0  0  0  0
  1  2  1  0
  2  3  1  0
  3  4  1  0
  4  5  1  0
  5  6  1  0
  6  7  2  0
  7  8  1  0
  8  9  2  0
  9 10  1  0
 10 11  2  0
 11 12  1  0
 12 13  1  0
 13 14  2  0
 14 15  1  0
 15 16  2  0
 16 17  1  0
 17 18  2  0
 12 19  2  0
 19 20  1  0
 20 21  2  0
 21 22  1  0
 22 23  2  0
 23 24  1  0
 24 25  1  0
 25 26  1  0
 26 27  1  0
 27 28  1  0
 28 29  1  0
 29 30  2  0
 30 31  1  0
 31 32  2  0
 32 33  1  0
 33 34  2  0
 34 35  1  0
 35 36  2  0
 36 37  1  0
 37 38  2  0
 32 39  1  0
 28 40  1  0
 40 41  1  0
 23 42  1  0
 42 43  2  0
 19 44  1  0
 44 45  2  0
 45 46  1  0
 46 47  2  0
 47 48  1  0
 48  6  1  0
 48  9  1  0
 45 10  1  0
 18 13  1  0
 43 20  1  0
 41 25  1  0
 39 29  1  0
 38 33  1  0
  1 49  1  0
  2 50  1  0
  2 51  1  0
  3 52  1  0
  3 53  1  0
  4 54  1  0
  5 55  1  0
  5 56  1  0
 11 57  1  0
 14 58  1  0
 15 59  1  0
 16 60  1  0
 17 61  1  0
 18 62  1  0
 21 63  1  0
 22 64  1  0
 24 65  1  0
 24 66  1  0
 26 67  1  0
 26 68  1  0
 27 69  1  0
 27 70  1  0
 28 71  1  0
 34 72  1  0
 35 73  1  0
 36 74  1  0
 37 75  1  0
 39 76  1  0
 40 77  1  0
 40 78  1  0
 41 79  1  0
 41 80  1  0
 42 81  1  0
 43 82  1  0
 46 83  1  0
 47 84  1  0
M  END
$$$$
