@<TRIPOS>MOLECULE
*****
 39 42 0 0 0
SMALL
GASTEIGER

@<TRIPOS>ATOM
      1 O           0.8074   -1.1299   -1.8132 O.2     1  UNL1       -0.2873
      2 C           1.0713   -0.4643   -0.7720 C.2     1  UNL1        0.1861
      3 C           2.4520   -0.2043   -0.4323 C.2     1  UNL1       -0.0137
      4 C           3.4391   -0.6515   -1.1931 C.2     1  UNL1       -0.0495
      5 C           4.8278   -0.4006   -0.8684 C.ar    1  UNL1       -0.0068
      6 C           5.3026    0.2896    0.2008 C.ar    1  UNL1       -0.0517
      7 C           6.6765    0.4632    0.4038 C.ar    1  UNL1       -0.0430
      8 C           7.5982   -0.0587   -0.4720 C.ar    1  UNL1        0.0276
      9 N           7.1134   -0.7512   -1.5445 N.ar    1  UNL1       -0.2627
     10 C           5.7982   -0.9160   -1.7365 C.ar    1  UNL1        0.0347
     11 C          -0.0432    0.0030    0.0275 C.ar    1  UNL1        0.0223
     12 C           0.1988    0.7329    1.1719 C.ar    1  UNL1       -0.0503
     13 C          -0.8635    1.1862    1.9464 C.ar    1  UNL1       -0.0533
     14 C          -2.1532    0.8972    1.5561 C.ar    1  UNL1       -0.0172
     15 C          -3.2316    1.3295    2.2982 C.ar    1  UNL1       -0.0534
     16 C          -4.5192    1.0456    1.9159 C.ar    1  UNL1       -0.0534
     17 C          -4.7621    0.3175    0.7744 C.ar    1  UNL1       -0.0173
     18 C          -6.0816    0.0540    0.4260 C.ar    1  UNL1       -0.0540
     19 C          -6.3557   -0.6726   -0.7115 C.ar    1  UNL1       -0.0612
     20 C          -5.3041   -1.1195   -1.4753 C.ar    1  UNL1       -0.0611
     21 C          -3.9662   -0.8671   -1.1456 C.ar    1  UNL1       -0.0534
     22 C          -3.6927   -0.1439   -0.0135 C.ar    1  UNL1       -0.0102
     23 C          -2.4060    0.1592    0.3994 C.ar    1  UNL1       -0.0095
     24 C          -1.3643   -0.2887   -0.3654 C.ar    1  UNL1       -0.0426
     25 H           2.7456    0.3523    0.4347 H       1  UNL1        0.0656
     26 H           3.1728   -1.2188   -2.0785 H       1  UNL1        0.0625
     27 H           4.6257    0.7078    0.8994 H       1  UNL1        0.0624
     28 H           7.0123    1.0127    1.2573 H       1  UNL1        0.0633
     29 H           8.6632    0.0536   -0.3499 H       1  UNL1        0.0829
     30 H           5.4750   -1.4724   -2.6017 H       1  UNL1        0.0835
     31 H           1.2220    0.9627    1.4825 H       1  UNL1        0.0625
     32 H          -0.6613    1.7593    2.8442 H       1  UNL1        0.0624
     33 H          -3.0455    1.9077    3.2049 H       1  UNL1        0.0624
     34 H          -5.3792    1.3847    2.4986 H       1  UNL1        0.0624
     35 H          -6.9108    0.4092    1.0327 H       1  UNL1        0.0624
     36 H          -7.3666   -0.9018   -1.0217 H       1  UNL1        0.0618
     37 H          -5.4591   -1.6928   -2.3761 H       1  UNL1        0.0618
     38 H          -3.1941   -1.2232   -1.7506 H       1  UNL1        0.0624
     39 H          -1.4414   -0.8507   -1.2524 H       1  UNL1        0.0631
@<TRIPOS>BOND
     1     1     2    2
     2     2     3    1
     3     3     4    2
     4     4     5    1
     5     5     6   ar
     6     6     7   ar
     7     7     8   ar
     8     8     9   ar
     9     9    10   ar
    10     2    11    1
    11    11    12   ar
    12    12    13   ar
    13    13    14   ar
    14    14    15   ar
    15    15    16   ar
    16    16    17   ar
    17    17    18   ar
    18    18    19   ar
    19    19    20   ar
    20    20    21   ar
    21    21    22   ar
    22    22    23   ar
    23    23    24   ar
    24    10     5   ar
    25    24    11   ar
    26    23    14   ar
    27    22    17   ar
    28     3    25    1
    29     4    26    1
    30     6    27    1
    31     7    28    1
    32     8    29    1
    33    10    30    1
    34    12    31    1
    35    13    32    1
    36    15    33    1
    37    16    34    1
    38    18    35    1
    39    19    36    1
    40    20    37    1
    41    21    38    1
    42    24    39    1
