
     RDKit          3D

 49 52  0  0  0  0  0  0  0  0999 V2000
   -0.2613   -2.4535    2.9774 C   0  0  0  0  0  0  0  0  0  0  0  0
   -1.4607   -1.7255    2.4839 C   0  0  0  0  0  0  0  0  0  0  0  0
   -2.6685   -1.8275    3.1726 C   0  0  0  0  0  0  0  0  0  0  0  0
   -2.6738   -2.6028    4.2756 F   0  0  0  0  0  0  0  0  0  0  0  0
   -3.8004   -1.1687    2.7471 C   0  0  0  0  0  0  0  0  0  0  0  0
   -3.7618   -0.3782    1.6075 C   0  0  0  0  0  0  0  0  0  0  0  0
   -4.9539    0.3201    1.1531 C   0  0  0  0  0  0  0  0  0  0  0  0
   -6.0483    0.2185    1.7907 O   0  0  0  0  0  0  0  0  0  0  0  0
   -5.0262    1.1499    0.0073 N   0  0  0  0  0  0  0  0  0  0  0  0
   -6.2377    1.8217   -0.4008 C   0  0  0  0  0  0  0  0  0  0  0  0
   -6.6168    1.7873   -1.8730 C   0  0  0  0  0  0  0  0  0  0  0  0
   -6.2548    3.0748   -1.1364 C   0  0  0  0  0  0  0  0  0  0  0  0
   -2.5378   -0.3011    0.9468 C   0  0  0  0  0  0  0  0  0  0  0  0
   -1.4033   -0.9491    1.3558 C   0  0  0  0  0  0  0  0  0  0  0  0
   -0.1725   -0.7981    0.5875 C   0  0  0  0  0  0  0  0  0  0  0  0
   -0.1088   -0.0221   -0.5399 C   0  0  0  0  0  0  0  0  0  0  0  0
    1.0484    0.1303   -1.2763 C   0  0  0  0  0  0  0  0  0  0  0  0
    2.1922   -0.5213   -0.8682 C   0  0  0  0  0  0  0  0  0  0  0  0
    3.4204   -0.3770   -1.6243 C   0  0  0  0  0  0  0  0  0  0  0  0
    3.4199    0.3600   -2.6683 O   0  0  0  0  0  0  0  0  0  0  0  0
    4.6017   -1.0096   -1.2585 N   0  0  0  0  0  0  0  0  0  0  0  0
    5.7892   -0.8084   -2.0767 C   0  0  0  0  0  0  0  0  0  0  0  0
    6.1883    0.6382   -2.1446 C   0  0  0  0  0  0  0  0  0  0  0  0
    6.5302    1.3485   -0.8508 C   0  0  0  0  0  0  0  0  0  0  0  0
    7.6134    0.9379   -1.7787 C   0  0  0  0  0  0  0  0  0  0  0  0
    2.1042   -1.2877    0.2569 C   0  0  0  0  0  0  0  0  0  0  0  0
    0.9676   -1.4187    0.9536 N   0  0  0  0  0  0  0  0  0  0  0  0
    0.0624   -3.1700    2.2020 H   0  0  0  0  0  0  0  0  0  0  0  0
    0.5730   -1.7874    3.2207 H   0  0  0  0  0  0  0  0  0  0  0  0
   -0.5346   -3.0131    3.9062 H   0  0  0  0  0  0  0  0  0  0  0  0
   -4.7309   -1.2533    3.2863 H   0  0  0  0  0  0  0  0  0  0  0  0
   -4.1743    1.2893   -0.5748 H   0  0  0  0  0  0  0  0  0  0  0  0
   -7.1014    1.6248    0.2687 H   0  0  0  0  0  0  0  0  0  0  0  0
   -5.8811    1.3224   -2.5390 H   0  0  0  0  0  0  0  0  0  0  0  0
   -7.6878    1.7153   -2.1479 H   0  0  0  0  0  0  0  0  0  0  0  0
   -5.3677    3.5672   -1.5690 H   0  0  0  0  0  0  0  0  0  0  0  0
   -7.0821    3.8070   -0.9463 H   0  0  0  0  0  0  0  0  0  0  0  0
   -2.5609    0.3293    0.0620 H   0  0  0  0  0  0  0  0  0  0  0  0
   -0.9622    0.5300   -0.9379 H   0  0  0  0  0  0  0  0  0  0  0  0
    1.1097    0.7414   -2.1693 H   0  0  0  0  0  0  0  0  0  0  0  0
    4.6523   -1.6172   -0.4202 H   0  0  0  0  0  0  0  0  0  0  0  0
    6.5782   -1.4679   -1.6901 H   0  0  0  0  0  0  0  0  0  0  0  0
    5.5766   -1.1412   -3.1136 H   0  0  0  0  0  0  0  0  0  0  0  0
    5.6468    1.2655   -2.8598 H   0  0  0  0  0  0  0  0  0  0  0  0
    6.3461    0.7446    0.0479 H   0  0  0  0  0  0  0  0  0  0  0  0
    6.2754    2.4120   -0.7347 H   0  0  0  0  0  0  0  0  0  0  0  0
    8.1395    1.6811   -2.4091 H   0  0  0  0  0  0  0  0  0  0  0  0
    8.2536    0.1034   -1.4663 H   0  0  0  0  0  0  0  0  0  0  0  0
    2.9806   -1.8208    0.6174 H   0  0  0  0  0  0  0  0  0  0  0  0
  1  2  1  0
  2  3  2  0
  3  4  1  0
  3  5  1  0
  5  6  2  0
  6  7  1  0
  7  8  2  0
  7  9  1  0
  9 10  1  0
 10 11  1  0
 11 12  1  0
  6 13  1  0
 13 14  2  0
 14 15  1  0
 15 16  2  0
 16 17  1  0
 17 18  2  0
 18 19  1  0
 19 20  2  0
 19 21  1  0
 21 22  1  0
 22 23  1  0
 23 24  1  0
 24 25  1  0
 18 26  1  0
 26 27  2  0
 14  2  1  0
 27 15  1  0
 12 10  1  0
 25 23  1  0
  1 28  1  0
  1 29  1  0
  1 30  1  0
  5 31  1  0
  9 32  1  0
 10 33  1  0
 11 34  1  0
 11 35  1  0
 12 36  1  0
 12 37  1  0
 13 38  1  0
 16 39  1  0
 17 40  1  0
 21 41  1  0
 22 42  1  0
 22 43  1  0
 23 44  1  0
 24 45  1  0
 24 46  1  0
 25 47  1  0
 25 48  1  0
 26 49  1  0
M  END
$$$$
