@<TRIPOS>MOLECULE
*****
 49 52 0 0 0
SMALL
GASTEIGER

@<TRIPOS>ATOM
      1 C          -0.2613   -2.4535    2.9774 C.3     1  UNL1       -0.0364
      2 C          -1.4607   -1.7255    2.4839 C.ar    1  UNL1       -0.0061
      3 C          -2.6685   -1.8275    3.1726 C.ar    1  UNL1        0.1276
      4 F          -2.6738   -2.6028    4.2756 F       1  UNL1       -0.2052
      5 C          -3.8004   -1.1687    2.7471 C.ar    1  UNL1       -0.0140
      6 C          -3.7618   -0.3782    1.6075 C.ar    1  UNL1        0.0400
      7 C          -4.9539    0.3201    1.1531 C.2     1  UNL1        0.2444
      8 O          -6.0483    0.2185    1.7907 O.2     1  UNL1       -0.2702
      9 N          -5.0262    1.1499    0.0073 N.am    1  UNL1       -0.3085
     10 C          -6.2377    1.8217   -0.4008 C.3     1  UNL1        0.0235
     11 C          -6.6168    1.7873   -1.8730 C.3     1  UNL1       -0.0328
     12 C          -6.2548    3.0748   -1.1364 C.3     1  UNL1       -0.0328
     13 C          -2.5378   -0.3011    0.9468 C.ar    1  UNL1       -0.0400
     14 C          -1.4033   -0.9491    1.3558 C.ar    1  UNL1        0.0067
     15 C          -0.1725   -0.7981    0.5875 C.ar    1  UNL1        0.0714
     16 C          -0.1088   -0.0221   -0.5399 C.ar    1  UNL1       -0.0350
     17 C           1.0484    0.1303   -1.2763 C.ar    1  UNL1       -0.0461
     18 C           2.1922   -0.5213   -0.8682 C.ar    1  UNL1        0.0548
     19 C           3.4204   -0.3770   -1.6243 C.2     1  UNL1        0.2455
     20 O           3.4199    0.3600   -2.6683 O.2     1  UNL1       -0.2701
     21 N           4.6017   -1.0096   -1.2585 N.am    1  UNL1       -0.3110
     22 C           5.7892   -0.8084   -2.0767 C.3     1  UNL1        0.0147
     23 C           6.1883    0.6382   -2.1446 C.3     1  UNL1       -0.0254
     24 C           6.5302    1.3485   -0.8508 C.3     1  UNL1       -0.0485
     25 C           7.6134    0.9379   -1.7787 C.3     1  UNL1       -0.0485
     26 C           2.1042   -1.2877    0.2569 C.ar    1  UNL1        0.0404
     27 N           0.9676   -1.4187    0.9536 N.ar    1  UNL1       -0.2542
     28 H           0.0624   -3.1700    2.2020 H       1  UNL1        0.0279
     29 H           0.5730   -1.7874    3.2207 H       1  UNL1        0.0279
     30 H          -0.5346   -3.0131    3.9062 H       1  UNL1        0.0279
     31 H          -4.7309   -1.2533    3.2863 H       1  UNL1        0.0654
     32 H          -4.1743    1.2893   -0.5748 H       1  UNL1        0.1493
     33 H          -7.1014    1.6248    0.2687 H       1  UNL1        0.0498
     34 H          -5.8811    1.3224   -2.5390 H       1  UNL1        0.0284
     35 H          -7.6878    1.7153   -2.1479 H       1  UNL1        0.0284
     36 H          -5.3677    3.5672   -1.5690 H       1  UNL1        0.0284
     37 H          -7.0821    3.8070   -0.9463 H       1  UNL1        0.0284
     38 H          -2.5609    0.3293    0.0620 H       1  UNL1        0.0632
     39 H          -0.9622    0.5300   -0.9379 H       1  UNL1        0.0639
     40 H           1.1097    0.7414   -2.1693 H       1  UNL1        0.0626
     41 H           4.6523   -1.6172   -0.4202 H       1  UNL1        0.1490
     42 H           6.5782   -1.4679   -1.6901 H       1  UNL1        0.0465
     43 H           5.5766   -1.1412   -3.1136 H       1  UNL1        0.0465
     44 H           5.6468    1.2655   -2.8598 H       1  UNL1        0.0316
     45 H           6.3461    0.7446    0.0479 H       1  UNL1        0.0269
     46 H           6.2754    2.4120   -0.7347 H       1  UNL1        0.0269
     47 H           8.1395    1.6811   -2.4091 H       1  UNL1        0.0269
     48 H           8.2536    0.1034   -1.4663 H       1  UNL1        0.0269
     49 H           2.9806   -1.8208    0.6174 H       1  UNL1        0.0837
@<TRIPOS>BOND
     1     1     2    1
     2     2     3   ar
     3     3     4    1
     4     3     5   ar
     5     5     6   ar
     6     6     7    1
     7     7     8    2
     8     7     9   am
     9     9    10    1
    10    10    11    1
    11    11    12    1
    12     6    13   ar
    13    13    14   ar
    14    14    15    1
    15    15    16   ar
    16    16    17   ar
    17    17    18   ar
    18    18    19    1
    19    19    20    2
    20    19    21   am
    21    21    22    1
    22    22    23    1
    23    23    24    1
    24    24    25    1
    25    18    26   ar
    26    26    27   ar
    27    14     2   ar
    28    27    15   ar
    29    12    10    1
    30    25    23    1
    31     1    28    1
    32     1    29    1
    33     1    30    1
    34     5    31    1
    35     9    32    1
    36    10    33    1
    37    11    34    1
    38    11    35    1
    39    12    36    1
    40    12    37    1
    41    13    38    1
    42    16    39    1
    43    17    40    1
    44    21    41    1
    45    22    42    1
    46    22    43    1
    47    23    44    1
    48    24    45    1
    49    24    46    1
    50    25    47    1
    51    25    48    1
    52    26    49    1
