@<TRIPOS>MOLECULE
*****
 50 52 0 0 0
SMALL
GASTEIGER

@<TRIPOS>ATOM
      1 N          -7.5180    1.7343   -1.0689 N.pl3   1  UNL1       -0.3579
      2 C          -6.7983    0.9055   -0.1342 C.ar    1  UNL1        0.0256
      3 C          -6.9336    0.9112    1.2242 C.ar    1  UNL1       -0.0410
      4 C          -6.1417    0.0287    1.9520 C.ar    1  UNL1       -0.0590
      5 C          -5.2510   -0.8180    1.2832 C.ar    1  UNL1       -0.0479
      6 C          -5.1188   -0.8160   -0.1168 C.ar    1  UNL1        0.0145
      7 S          -3.9074   -2.0434   -0.5403 S.3     1  UNL1       -0.0888
      8 C          -2.2248   -1.4576   -0.4501 C.ar    1  UNL1        0.0249
      9 C          -1.7997   -1.5344    0.8947 C.ar    1  UNL1       -0.0469
     10 C          -0.5130   -1.1588    1.2454 C.ar    1  UNL1       -0.0530
     11 C           0.3156   -0.7158    0.2384 C.ar    1  UNL1       -0.0126
     12 C           1.6673   -0.3255    0.6123 C.2     1  UNL1       -0.0491
     13 C           2.2535   -0.3203    1.7896 C.2     1  UNL1        0.0009
     14 C           3.6213    0.0735    2.1745 C.2     1  UNL1        0.2396
     15 O           3.8644   -0.0493    3.4325 O.2     1  UNL1       -0.2706
     16 N           4.7174    0.5619    1.4166 N.am    1  UNL1       -0.2936
     17 C           4.9067    0.8503    0.0342 C.3     1  UNL1        0.0385
     18 C           6.3100    1.2859   -0.3231 C.3     1  UNL1        0.0635
     19 O           7.3128    0.5637    0.2553 O.3     1  UNL1       -0.3767
     20 C           7.0119   -0.0140    1.4594 C.3     1  UNL1        0.0635
     21 C           5.9640    0.8611    2.1130 C.3     1  UNL1        0.0385
     22 C          -0.0608   -0.6265   -1.0856 C.ar    1  UNL1        0.0746
     23 C          -1.3286   -0.9962   -1.4322 C.ar    1  UNL1        0.0807
     24 C          -2.0726   -1.0630   -2.6720 C.3     1  UNL1        0.4190
     25 F          -2.5011   -2.3894   -2.9405 F       1  UNL1       -0.1658
     26 F          -1.5395   -0.5154   -3.8030 F       1  UNL1       -0.1658
     27 F          -3.3110   -0.3896   -2.5380 F       1  UNL1       -0.1658
     28 C           0.9278   -0.1454   -2.0227 C.3     1  UNL1        0.4185
     29 F           0.6061   -0.0629   -3.3441 F       1  UNL1       -0.1659
     30 F           1.4105    1.1395   -1.6560 F       1  UNL1       -0.1659
     31 F           2.0970   -0.9446   -2.0076 F       1  UNL1       -0.1659
     32 C          -5.9292    0.0778   -0.7754 C.ar    1  UNL1       -0.0273
     33 H          -7.0426    2.6583   -0.8571 H       1  UNL1        0.1423
     34 H          -8.2777    1.5288   -1.7578 H       1  UNL1        0.1423
     35 H          -7.6519    1.6085    1.6207 H       1  UNL1        0.0636
     36 H          -6.3090    0.0954    3.0175 H       1  UNL1        0.0618
     37 H          -4.7402   -1.4171    2.0556 H       1  UNL1        0.0629
     38 H          -2.3972   -1.8763    1.7577 H       1  UNL1        0.0629
     39 H          -0.2075   -1.2278    2.2984 H       1  UNL1        0.0624
     40 H           2.4388    0.0366   -0.0500 H       1  UNL1        0.0625
     41 H           1.6140   -0.6652    2.6048 H       1  UNL1        0.0670
     42 H           4.1689    1.6059   -0.3112 H       1  UNL1        0.0487
     43 H           4.7373   -0.0835   -0.5459 H       1  UNL1        0.0487
     44 H           6.4080    1.3267   -1.4516 H       1  UNL1        0.0575
     45 H           6.4097    2.3474   -0.0217 H       1  UNL1        0.0575
     46 H           6.6057   -1.0526    1.3581 H       1  UNL1        0.0575
     47 H           7.9100   -0.0206    2.0917 H       1  UNL1        0.0575
     48 H           6.1971    1.9120    1.9352 H       1  UNL1        0.0487
     49 H           5.8647    0.6225    3.2024 H       1  UNL1        0.0487
     50 H          -5.7651   -0.0065   -1.8367 H       1  UNL1        0.0647
@<TRIPOS>BOND
     1     1     2    1
     2     2     3   ar
     3     3     4   ar
     4     4     5   ar
     5     5     6   ar
     6     6     7    1
     7     7     8    1
     8     8     9   ar
     9     9    10   ar
    10    10    11   ar
    11    11    12    1
    12    12    13    2
    13    13    14    1
    14    14    15    2
    15    14    16   am
    16    16    17    1
    17    17    18    1
    18    18    19    1
    19    19    20    1
    20    20    21    1
    21    11    22   ar
    22    22    23   ar
    23    23    24    1
    24    24    25    1
    25    24    26    1
    26    24    27    1
    27    22    28    1
    28    28    29    1
    29    28    30    1
    30    28    31    1
    31     6    32   ar
    32    32     2   ar
    33    23     8   ar
    34    21    16    1
    35     1    33    1
    36     1    34    1
    37     3    35    1
    38     4    36    1
    39     5    37    1
    40     9    38    1
    41    10    39    1
    42    12    40    1
    43    13    41    1
    44    17    42    1
    45    17    43    1
    46    18    44    1
    47    18    45    1
    48    20    46    1
    49    20    47    1
    50    21    48    1
    51    21    49    1
    52    32    50    1
