
     RDKit          3D

 16 15  0  0  0  0  0  0  0  0999 V2000
   -0.3560   -1.2003   -1.0219 N   0  0  0  0  0  0  0  0  0  0  0  0
   -0.2171   -0.4477    0.1872 C   0  0  1  0  0  0  0  0  0  0  0  0
    0.2997    0.9263   -0.0935 C   0  0  0  0  0  0  0  0  0  0  0  0
    1.9037    0.9178   -0.8881 S   0  0  0  0  0  4  0  0  0  0  0  0
    3.0835    0.1599    0.0420 O   0  0  0  0  0  0  0  0  0  0  0  0
    1.8664    0.4682   -2.3230 O   0  0  0  0  0  0  0  0  0  0  0  0
   -1.5942   -0.3028    0.7493 C   0  0  0  0  0  0  0  0  0  0  0  0
   -1.6808    0.4147    1.9543 O   0  0  0  0  0  0  0  0  0  0  0  0
   -2.6703   -0.7630    0.2421 O   0  0  0  0  0  0  0  0  0  0  0  0
   -1.1316   -1.8575   -1.0726 H   0  0  0  0  0  0  0  0  0  0  0  0
   -0.1339   -0.6839   -1.8863 H   0  0  0  0  0  0  0  0  0  0  0  0
    0.4120   -0.9262    0.9524 H   0  0  0  0  0  0  0  0  0  0  0  0
    0.4758    1.4319    0.9014 H   0  0  0  0  0  0  0  0  0  0  0  0
   -0.3851    1.5718   -0.6552 H   0  0  0  0  0  0  0  0  0  0  0  0
    2.6969   -0.5107    0.6533 H   0  0  0  0  0  0  0  0  0  0  0  0
   -2.5689    0.8014    2.2583 H   0  0  0  0  0  0  0  0  0  0  0  0
  1  2  1  0
  2  3  1  0
  3  4  1  0
  4  5  1  1
  4  6  2  0
  2  7  1  0
  7  8  1  0
  7  9  2  0
  1 10  1  0
  1 11  1  0
  2 12  1  1
  3 13  1  0
  3 14  1  0
  5 15  1  0
  8 16  1  0
M  END
$$$$
