@<TRIPOS>MOLECULE
*****
 16 15 0 0 0
SMALL
GASTEIGER

@<TRIPOS>ATOM
      1 N1         -0.3560   -1.2003   -1.0219 N.3     1  <1>        -0.3171
      2 C1         -0.2171   -0.4477    0.1872 C.3     1  <1>         0.1234
      3 C2          0.2997    0.9263   -0.0935 C.3     1  <1>         0.0985
      4 S1          1.9037    0.9178   -0.8881 S.O     1  <1>        -0.0040
      5 O1          3.0835    0.1599    0.0420 O.3     1  <1>        -0.2691
      6 O2          1.8664    0.4682   -2.3230 O.2     1  <1>        -0.1669
      7 C3         -1.5942   -0.3028    0.7493 C.2     1  <1>         0.3234
      8 O3         -1.6808    0.4147    1.9543 O.3     1  <1>        -0.4795
      9 O4         -2.6703   -0.7630    0.2421 O.2     1  <1>        -0.2492
     10 H1         -1.1316   -1.8575   -1.0726 H       1  <1>         0.1190
     11 H2         -0.1339   -0.6839   -1.8863 H       1  <1>         0.1190
     12 H3          0.4120   -0.9262    0.9524 H       1  <1>         0.0591
     13 H4          0.4758    1.4319    0.9014 H       1  <1>         0.0528
     14 H5         -0.3851    1.5718   -0.6552 H       1  <1>         0.0528
     15 H6          2.6969   -0.5107    0.6533 H       1  <1>         0.2428
     16 H7         -2.5689    0.8014    2.2583 H       1  <1>         0.2951
@<TRIPOS>BOND
     1     1     2    1
     2     2     3    1
     3     3     4    1
     4     4     5    1
     5     4     6    2
     6     2     7    1
     7     7     8    1
     8     7     9    2
     9     1    10    1
    10     1    11    1
    11     2    12    1
    12     3    13    1
    13     3    14    1
    14     5    15    1
    15     8    16    1
