
     RDKit          3D

 55 58  0  0  0  0  0  0  0  0999 V2000
   -4.3224    0.1120    0.3389 C   0  0  2  0  0  0  0  0  0  0  0  0
   -3.6933    0.7778    1.5364 C   0  0  0  0  0  0  0  0  0  0  0  0
   -3.3925    0.0517   -0.8005 N   0  0  0  0  0  0  0  0  0  0  0  0
   -2.1845   -0.6747   -0.5990 C   0  0  0  0  0  0  0  0  0  0  0  0
   -0.8987   -0.2929   -0.2863 C   0  0  0  0  0  0  0  0  0  0  0  0
    0.0577   -1.2745   -0.1440 C   0  0  0  0  0  0  0  0  0  0  0  0
   -0.2295   -2.6264   -0.3039 C   0  0  0  0  0  0  0  0  0  0  0  0
   -1.5217   -2.9580   -0.6145 C   0  0  0  0  0  0  0  0  0  0  0  0
   -2.4674   -2.0022   -0.7566 N   0  0  0  0  0  0  0  0  0  0  0  0
    0.9697   -3.2679   -0.0840 C   0  0  0  0  0  0  0  0  0  0  0  0
    1.0924   -4.7536   -0.1609 C   0  0  0  0  0  0  0  0  0  0  0  0
    1.9033   -2.3468    0.1878 N   0  0  0  0  0  0  0  0  0  0  0  0
    1.3587   -1.1206    0.1538 N   0  0  0  0  0  0  0  0  0  0  0  0
    2.0798    0.0787    0.3912 C   0  0  0  0  0  0  0  0  0  0  0  0
    1.7026    1.1706    1.1356 C   0  0  0  0  0  0  0  0  0  0  0  0
    2.5010    2.2830    1.2870 C   0  0  0  0  0  0  0  0  0  0  0  0
    3.7280    2.2875    0.6596 C   0  0  0  0  0  0  0  0  0  0  0  0
    4.1767    1.2230   -0.1077 C   0  0  0  0  0  0  0  0  0  0  0  0
    5.5189    1.2927   -0.7610 C   0  0  0  0  0  0  0  0  0  0  0  0
    6.5886    0.7725    0.1757 C   0  0  0  0  0  0  0  0  0  0  0  0
    7.9457    0.8086   -0.4013 C   0  0  0  0  0  0  0  0  0  0  0  0
    9.1169    0.4124    0.2670 N   0  0  0  0  0  0  0  0  0  0  0  0
    8.3955    1.1594   -1.5175 O   0  0  0  0  0  0  0  0  0  0  0  0
    3.3324    0.1250   -0.2285 C   0  0  0  0  0  0  0  0  0  0  0  0
   -5.6030    0.7220   -0.0507 C   0  0  0  0  0  0  0  0  0  0  0  0
   -6.8195    0.1505    0.2847 C   0  0  0  0  0  0  0  0  0  0  0  0
   -8.0703    0.6678   -0.0470 C   0  0  0  0  0  0  0  0  0  0  0  0
   -8.0763    1.8591   -0.7765 C   0  0  0  0  0  0  0  0  0  0  0  0
   -6.8601    2.4393   -1.1172 C   0  0  0  0  0  0  0  0  0  0  0  0
   -5.6475    1.8890   -0.7657 C   0  0  0  0  0  0  0  0  0  0  0  0
   -4.5420   -0.9553    0.6531 H   0  0  0  0  0  0  0  0  0  0  0  0
   -4.5030    0.8408    2.3152 H   0  0  0  0  0  0  0  0  0  0  0  0
   -3.3047    1.7862    1.3016 H   0  0  0  0  0  0  0  0  0  0  0  0
   -2.8933    0.1454    1.9671 H   0  0  0  0  0  0  0  0  0  0  0  0
   -3.6741    0.5414   -1.6785 H   0  0  0  0  0  0  0  0  0  0  0  0
   -0.8074    0.7590   -0.1926 H   0  0  0  0  0  0  0  0  0  0  0  0
   -1.7090   -4.0259   -0.7323 H   0  0  0  0  0  0  0  0  0  0  0  0
    1.4174   -5.1284   -1.1338 H   0  0  0  0  0  0  0  0  0  0  0  0
    1.7623   -5.0634    0.6873 H   0  0  0  0  0  0  0  0  0  0  0  0
    0.1132   -5.2522    0.0449 H   0  0  0  0  0  0  0  0  0  0  0  0
    0.7447    1.0971    1.5930 H   0  0  0  0  0  0  0  0  0  0  0  0
    2.1163    3.0944    1.8941 H   0  0  0  0  0  0  0  0  0  0  0  0
    4.3170    3.1746    0.8058 H   0  0  0  0  0  0  0  0  0  0  0  0
    5.7297    2.2963   -1.1227 H   0  0  0  0  0  0  0  0  0  0  0  0
    5.5326    0.5948   -1.6392 H   0  0  0  0  0  0  0  0  0  0  0  0
    6.6261    1.4135    1.1004 H   0  0  0  0  0  0  0  0  0  0  0  0
    6.3128   -0.2692    0.4919 H   0  0  0  0  0  0  0  0  0  0  0  0
    9.6128   -0.2863    0.8497 H   0  0  0  0  0  0  0  0  0  0  0  0
    9.2305   -0.4703    0.8084 H   0  0  0  0  0  0  0  0  0  0  0  0
    3.7568   -0.6565   -0.8413 H   0  0  0  0  0  0  0  0  0  0  0  0
   -6.7995   -0.7797    0.8525 H   0  0  0  0  0  0  0  0  0  0  0  0
   -8.9752    0.1347    0.2673 H   0  0  0  0  0  0  0  0  0  0  0  0
   -9.0387    2.2743   -1.0425 H   0  0  0  0  0  0  0  0  0  0  0  0
   -6.9742    3.3567   -1.6809 H   0  0  0  0  0  0  0  0  0  0  0  0
   -4.7325    2.4131   -1.0759 H   0  0  0  0  0  0  0  0  0  0  0  0
  1  2  1  0
  1  3  1  0
  3  4  1  0
  4  5  2  0
  5  6  1  0
  6  7  2  0
  7  8  1  0
  8  9  2  0
  7 10  1  0
 10 11  1  0
 10 12  2  0
 12 13  1  0
 13 14  1  0
 14 15  2  0
 15 16  1  0
 16 17  2  0
 17 18  1  0
 18 19  1  0
 19 20  1  0
 20 21  1  0
 21 22  1  0
 21 23  2  0
 18 24  2  0
  1 25  1  0
 25 26  2  0
 26 27  1  0
 27 28  2  0
 28 29  1  0
 29 30  2  0
  9  4  1  0
 24 14  1  0
 30 25  1  0
 13  6  1  0
  1 31  1  1
  2 32  1  0
  2 33  1  0
  2 34  1  0
  3 35  1  0
  5 36  1  0
  8 37  1  0
 11 38  1  0
 11 39  1  0
 11 40  1  0
 15 41  1  0
 16 42  1  0
 17 43  1  0
 19 44  1  0
 19 45  1  0
 20 46  1  0
 20 47  1  0
 22 48  1  0
 22 49  1  0
 24 50  1  0
 26 51  1  0
 27 52  1  0
 28 53  1  0
 29 54  1  0
 30 55  1  0
M  END
$$$$
