@<TRIPOS>MOLECULE
*****
 51 54 0 0 0
SMALL
GASTEIGER

@<TRIPOS>ATOM
      1 O          -7.0309   -0.6392    1.7355 O.2     1  UNL1       -0.2733
      2 C          -7.0461   -0.8891    0.5042 C.2     1  UNL1        0.2388
      3 C          -8.2923   -1.4164   -0.1545 C.3     1  UNL1        0.1202
      4 O          -8.0579   -1.6088   -1.4955 O.3     1  UNL1       -0.3858
      5 N          -5.8553   -0.6572   -0.2325 N.am    1  UNL1       -0.3105
      6 C          -4.6787   -0.1506    0.4332 C.3     1  UNL1        0.0255
      7 C          -3.5173   -1.0636    0.2395 C.3     1  UNL1       -0.0216
      8 C          -2.1917   -0.5259    0.6355 C.3     1  UNL1        0.0009
      9 N          -2.0149    0.8702    0.5426 N.3     1  UNL1       -0.2980
     10 C          -0.8150    1.3727    1.1461 C.3     1  UNL1        0.0240
     11 C           0.3453    0.7352    0.4714 C.ar    1  UNL1       -0.0331
     12 C           0.9372    1.2953   -0.6432 C.ar    1  UNL1       -0.0539
     13 C           2.0109    0.7252   -1.2827 C.ar    1  UNL1       -0.0190
     14 C           2.5467   -0.4518   -0.8240 C.ar    1  UNL1        0.1309
     15 O           3.6201   -0.9976   -1.4835 O.3     1  UNL1       -0.4326
     16 C           4.9429   -0.6227   -1.0719 C.ar    1  UNL1        0.2627
     17 N           5.5656    0.0098   -0.3450 N.ar    1  UNL1       -0.2057
     18 C           6.8722    0.1275   -0.2338 C.ar    1  UNL1        0.0820
     19 C           7.6076    0.9111    0.6675 C.ar    1  UNL1       -0.0351
     20 C           8.9767    0.9014    0.6283 C.ar    1  UNL1       -0.0597
     21 C           9.7116    0.1587   -0.2550 C.ar    1  UNL1       -0.0606
     22 C           8.9978   -0.6230   -1.1545 C.ar    1  UNL1       -0.0458
     23 C           7.6007   -0.6069   -1.1073 C.ar    1  UNL1        0.0425
     24 S           6.3424   -1.4431   -2.0596 S.2     1  UNL1       -0.0290
     25 C           1.9795   -1.0377    0.2868 C.ar    1  UNL1       -0.0190
     26 C           0.8935   -0.4481    0.9224 C.ar    1  UNL1       -0.0539
     27 C          -3.1505    1.7040    0.6896 C.3     1  UNL1        0.0009
     28 C          -4.2976    1.2051   -0.1466 C.3     1  UNL1       -0.0216
     29 H          -8.6093   -2.3751    0.3012 H       1  UNL1        0.0654
     30 H          -9.0938   -0.6815    0.0370 H       1  UNL1        0.0654
     31 H          -8.8965   -1.4259   -1.9866 H       1  UNL1        0.2100
     32 H          -5.8172   -0.8480   -1.2523 H       1  UNL1        0.1490
     33 H          -4.8664    0.0044    1.5144 H       1  UNL1        0.0499
     34 H          -3.6977   -2.0795    0.7003 H       1  UNL1        0.0295
     35 H          -3.4651   -1.2911   -0.8667 H       1  UNL1        0.0295
     36 H          -1.3505   -1.0162    0.0874 H       1  UNL1        0.0427
     37 H          -2.0225   -0.8226    1.7133 H       1  UNL1        0.0427
     38 H          -0.6944    2.4565    1.0533 H       1  UNL1        0.0476
     39 H          -0.7592    1.0986    2.2212 H       1  UNL1        0.0476
     40 H           0.5039    2.2373   -1.0056 H       1  UNL1        0.0622
     41 H           2.4337    1.2045   -2.1478 H       1  UNL1        0.0654
     42 H           7.1414    1.5431    1.4160 H       1  UNL1        0.0639
     43 H           9.5356    1.5144    1.3338 H       1  UNL1        0.0618
     44 H          10.7721    0.1697   -0.2637 H       1  UNL1        0.0618
     45 H           9.4731   -1.2495   -1.8967 H       1  UNL1        0.0629
     46 H           2.3825   -1.9827    0.6838 H       1  UNL1        0.0654
     47 H           0.4382   -0.8936    1.7924 H       1  UNL1        0.0622
     48 H          -3.4607    1.8905    1.7340 H       1  UNL1        0.0427
     49 H          -2.8828    2.7194    0.2733 H       1  UNL1        0.0427
     50 H          -3.9183    1.0712   -1.1907 H       1  UNL1        0.0295
     51 H          -5.1485    1.9218   -0.1170 H       1  UNL1        0.0295
@<TRIPOS>BOND
     1     1     2    2
     2     2     3    1
     3     3     4    1
     4     2     5   am
     5     5     6    1
     6     6     7    1
     7     7     8    1
     8     8     9    1
     9     9    10    1
    10    10    11    1
    11    11    12   ar
    12    12    13   ar
    13    13    14   ar
    14    14    15    1
    15    15    16    1
    16    16    17   ar
    17    17    18   ar
    18    18    19   ar
    19    19    20   ar
    20    20    21   ar
    21    21    22   ar
    22    22    23   ar
    23    23    24   ar
    24    14    25   ar
    25    25    26   ar
    26     9    27    1
    27    27    28    1
    28    28     6    1
    29    26    11   ar
    30    24    16   ar
    31    23    18   ar
    32     3    29    1
    33     3    30    1
    34     4    31    1
    35     5    32    1
    36     6    33    1
    37     7    34    1
    38     7    35    1
    39     8    36    1
    40     8    37    1
    41    10    38    1
    42    10    39    1
    43    12    40    1
    44    13    41    1
    45    19    42    1
    46    20    43    1
    47    21    44    1
    48    22    45    1
    49    25    46    1
    50    26    47    1
    51    27    48    1
    52    27    49    1
    53    28    50    1
    54    28    51    1
