@<TRIPOS>MOLECULE
*****
 33 34 0 0 0
SMALL
GASTEIGER

@<TRIPOS>ATOM
      1 C          -4.3243   -1.0131    1.1335 C.3     1  UNL1       -0.0482
      2 C          -3.4524    0.0501    0.5318 C.3     1  UNL1        0.0784
      3 C          -4.1440    0.6311   -0.6512 C.2     1  UNL1        0.3119
      4 O          -4.6453    0.5258   -1.9182 O.3     1  UNL1       -0.4802
      5 O          -4.5575    1.8356   -0.6961 O.2     1  UNL1       -0.2503
      6 C          -2.0945   -0.4187    0.2021 C.ar    1  UNL1       -0.0333
      7 C          -0.9789    0.2470    0.7168 C.ar    1  UNL1       -0.0470
      8 C           0.3192   -0.1679    0.4272 C.ar    1  UNL1        0.0225
      9 C           0.4020   -1.2689   -0.3939 C.ar    1  UNL1       -0.0509
     10 C          -0.6485   -1.9777   -0.9402 C.ar    1  UNL1       -0.0608
     11 C          -1.9269   -1.5186   -0.6169 C.ar    1  UNL1       -0.0578
     12 C           1.4379    0.5436    0.9861 C.2     1  UNL1        0.1931
     13 O           1.1617    1.1008    2.0963 O.2     1  UNL1       -0.2867
     14 C           2.7785    0.6868    0.4470 C.ar    1  UNL1        0.0223
     15 C           3.1046    0.5164   -0.8833 C.ar    1  UNL1       -0.0509
     16 C           4.3849    0.6463   -1.3828 C.ar    1  UNL1       -0.0611
     17 C           5.4106    0.9658   -0.5111 C.ar    1  UNL1       -0.0617
     18 C           5.1101    1.1442    0.8361 C.ar    1  UNL1       -0.0611
     19 C           3.8113    1.0059    1.3057 C.ar    1  UNL1       -0.0509
     20 H          -3.7629   -1.7177    1.7989 H       1  UNL1        0.0241
     21 H          -5.1454   -0.5983    1.7530 H       1  UNL1        0.0241
     22 H          -4.8427   -1.6146    0.3287 H       1  UNL1        0.0241
     23 H          -3.3815    0.8876    1.2610 H       1  UNL1        0.0459
     24 H          -4.0570    0.5639   -2.7528 H       1  UNL1        0.2951
     25 H          -1.1043    1.1208    1.3688 H       1  UNL1        0.0628
     26 H           1.3814   -1.6559   -0.6556 H       1  UNL1        0.0625
     27 H          -0.4826   -2.8392   -1.5801 H       1  UNL1        0.0618
     28 H          -2.7554   -2.0701   -1.0399 H       1  UNL1        0.0621
     29 H           2.3523    0.2774   -1.5973 H       1  UNL1        0.0625
     30 H           4.5837    0.4952   -2.4548 H       1  UNL1        0.0618
     31 H           6.4069    1.0637   -0.9388 H       1  UNL1        0.0618
     32 H           5.9907    1.3922    1.4322 H       1  UNL1        0.0618
     33 H           3.6683    1.1603    2.3588 H       1  UNL1        0.0625
@<TRIPOS>BOND
     1     1     2    1
     2     2     3    1
     3     3     4    1
     4     3     5    2
     5     2     6    1
     6     6     7   ar
     7     7     8   ar
     8     8     9   ar
     9     9    10   ar
    10    10    11   ar
    11     8    12    1
    12    12    13    2
    13    12    14    1
    14    14    15   ar
    15    15    16   ar
    16    16    17   ar
    17    17    18   ar
    18    18    19   ar
    19    11     6   ar
    20    19    14   ar
    21     1    20    1
    22     1    21    1
    23     1    22    1
    24     2    23    1
    25     4    24    1
    26     7    25    1
    27     9    26    1
    28    10    27    1
    29    11    28    1
    30    15    29    1
    31    16    30    1
    32    17    31    1
    33    18    32    1
    34    19    33    1
