
     RDKit          3D

 33 34  0  0  0  0  0  0  0  0999 V2000
   -4.3243   -1.0131    1.1335 C   0  0  0  0  0  0  0  0  0  0  0  0
   -3.4524    0.0501    0.5318 C   0  0  0  0  0  0  0  0  0  0  0  0
   -4.1440    0.6311   -0.6512 C   0  0  0  0  0  0  0  0  0  0  0  0
   -4.6453    0.5258   -1.9182 O   0  0  0  0  0  0  0  0  0  0  0  0
   -4.5575    1.8356   -0.6961 O   0  0  0  0  0  0  0  0  0  0  0  0
   -2.0945   -0.4187    0.2021 C   0  0  0  0  0  0  0  0  0  0  0  0
   -0.9789    0.2470    0.7168 C   0  0  0  0  0  0  0  0  0  0  0  0
    0.3192   -0.1679    0.4272 C   0  0  0  0  0  0  0  0  0  0  0  0
    0.4020   -1.2689   -0.3939 C   0  0  0  0  0  0  0  0  0  0  0  0
   -0.6485   -1.9777   -0.9402 C   0  0  0  0  0  0  0  0  0  0  0  0
   -1.9269   -1.5186   -0.6169 C   0  0  0  0  0  0  0  0  0  0  0  0
    1.4379    0.5436    0.9861 C   0  0  0  0  0  0  0  0  0  0  0  0
    1.1617    1.1008    2.0963 O   0  0  0  0  0  0  0  0  0  0  0  0
    2.7785    0.6868    0.4470 C   0  0  0  0  0  0  0  0  0  0  0  0
    3.1046    0.5164   -0.8833 C   0  0  0  0  0  0  0  0  0  0  0  0
    4.3849    0.6463   -1.3828 C   0  0  0  0  0  0  0  0  0  0  0  0
    5.4106    0.9658   -0.5111 C   0  0  0  0  0  0  0  0  0  0  0  0
    5.1101    1.1442    0.8361 C   0  0  0  0  0  0  0  0  0  0  0  0
    3.8113    1.0059    1.3057 C   0  0  0  0  0  0  0  0  0  0  0  0
   -3.7629   -1.7177    1.7989 H   0  0  0  0  0  0  0  0  0  0  0  0
   -5.1454   -0.5983    1.7530 H   0  0  0  0  0  0  0  0  0  0  0  0
   -4.8427   -1.6146    0.3287 H   0  0  0  0  0  0  0  0  0  0  0  0
   -3.3815    0.8876    1.2610 H   0  0  0  0  0  0  0  0  0  0  0  0
   -4.0570    0.5639   -2.7528 H   0  0  0  0  0  0  0  0  0  0  0  0
   -1.1043    1.1208    1.3688 H   0  0  0  0  0  0  0  0  0  0  0  0
    1.3814   -1.6559   -0.6556 H   0  0  0  0  0  0  0  0  0  0  0  0
   -0.4826   -2.8392   -1.5801 H   0  0  0  0  0  0  0  0  0  0  0  0
   -2.7554   -2.0701   -1.0399 H   0  0  0  0  0  0  0  0  0  0  0  0
    2.3523    0.2774   -1.5973 H   0  0  0  0  0  0  0  0  0  0  0  0
    4.5837    0.4952   -2.4548 H   0  0  0  0  0  0  0  0  0  0  0  0
    6.4069    1.0637   -0.9388 H   0  0  0  0  0  0  0  0  0  0  0  0
    5.9907    1.3922    1.4322 H   0  0  0  0  0  0  0  0  0  0  0  0
    3.6683    1.1603    2.3588 H   0  0  0  0  0  0  0  0  0  0  0  0
  1  2  1  0
  2  3  1  0
  3  4  1  0
  3  5  2  0
  2  6  1  0
  6  7  2  0
  7  8  1  0
  8  9  2  0
  9 10  1  0
 10 11  2  0
  8 12  1  0
 12 13  2  0
 12 14  1  0
 14 15  2  0
 15 16  1  0
 16 17  2  0
 17 18  1  0
 18 19  2  0
 11  6  1  0
 19 14  1  0
  1 20  1  0
  1 21  1  0
  1 22  1  0
  2 23  1  0
  4 24  1  0
  7 25  1  0
  9 26  1  0
 10 27  1  0
 11 28  1  0
 15 29  1  0
 16 30  1  0
 17 31  1  0
 18 32  1  0
 19 33  1  0
M  END
$$$$
