
     RDKit          3D

 52 56  0  0  0  0  0  0  0  0999 V2000
   -5.0585   -0.8663    2.3982 N   0  0  0  0  0  0  0  0  0  0  0  0
   -4.6585   -1.3605    1.1392 C   0  0  0  0  0  0  0  0  0  0  0  0
   -5.0921   -2.5902    0.7227 C   0  0  0  0  0  0  0  0  0  0  0  0
   -4.7254   -3.1191   -0.5079 C   0  0  0  0  0  0  0  0  0  0  0  0
   -3.9084   -2.3863   -1.3216 C   0  0  0  0  0  0  0  0  0  0  0  0
   -3.4468   -1.1399   -0.9416 C   0  0  0  0  0  0  0  0  0  0  0  0
   -2.6216   -0.3757   -1.7390 C   0  0  0  0  0  0  0  0  0  0  0  0
   -2.1693    0.8674   -1.3445 C   0  0  0  0  0  0  0  0  0  0  0  0
   -2.5411    1.3819   -0.1187 C   0  0  0  0  0  0  0  0  0  0  0  0
   -2.0944    2.6545    0.3163 N   0  0  0  0  0  0  0  0  0  0  0  0
   -0.8178    3.0430    0.4122 C   0  0  0  0  0  0  0  0  0  0  0  0
    0.3931    2.2629    0.0975 C   0  0  0  0  0  0  0  0  0  0  0  0
    1.0529    2.5430   -1.0778 C   0  0  0  0  0  0  0  0  0  0  0  0
    2.1962    1.8593   -1.4502 C   0  0  0  0  0  0  0  0  0  0  0  0
    2.6491    0.9042   -0.6233 N   0  0  0  0  0  0  0  0  0  0  0  0
    2.0413    0.5931    0.5350 C   0  0  0  0  0  0  0  0  0  0  0  0
    2.5994   -0.4272    1.3308 N   0  0  0  0  0  0  0  0  0  0  0  0
    3.7769   -1.1665    0.9958 C   0  0  0  0  0  0  0  0  0  0  0  0
    3.5682   -1.9043   -0.3206 C   0  0  0  0  0  0  0  0  0  0  0  0
    4.7180   -2.9081   -0.4584 C   0  0  0  0  0  0  0  0  0  0  0  0
    5.9097   -2.3817    0.0331 O   0  0  0  0  0  0  0  0  0  0  0  0
    5.9836   -0.9988   -0.1024 C   0  0  0  0  0  0  0  0  0  0  0  0
    5.0128   -0.3003    0.8552 C   0  0  0  0  0  0  0  0  0  0  0  0
    0.8998    1.2814    0.8985 C   0  0  0  0  0  0  0  0  0  0  0  0
   -0.8426    4.3120    0.8611 N   0  0  0  0  0  0  0  0  0  0  0  0
   -2.1030    4.6790    1.0315 N   0  0  0  0  0  0  0  0  0  0  0  0
   -2.8967    3.6492    0.6935 C   0  0  0  0  0  0  0  0  0  0  0  0
   -4.1702    3.6860    0.7478 O   0  0  0  0  0  0  0  0  0  0  0  0
   -3.3641    0.6110    0.6680 C   0  0  0  0  0  0  0  0  0  0  0  0
   -3.8348   -0.6376    0.3028 C   0  0  0  0  0  0  0  0  0  0  0  0
   -5.0106   -1.4385    3.2580 H   0  0  0  0  0  0  0  0  0  0  0  0
   -5.4124    0.1034    2.4642 H   0  0  0  0  0  0  0  0  0  0  0  0
   -5.7447   -3.2267    1.3211 H   0  0  0  0  0  0  0  0  0  0  0  0
   -5.0725   -4.0970   -0.8347 H   0  0  0  0  0  0  0  0  0  0  0  0
   -3.5837   -2.7527   -2.3084 H   0  0  0  0  0  0  0  0  0  0  0  0
   -2.3267   -0.7811   -2.7086 H   0  0  0  0  0  0  0  0  0  0  0  0
   -1.5138    1.4270   -2.0258 H   0  0  0  0  0  0  0  0  0  0  0  0
    0.7063    3.3200   -1.7762 H   0  0  0  0  0  0  0  0  0  0  0  0
    2.7159    2.0905   -2.3910 H   0  0  0  0  0  0  0  0  0  0  0  0
    2.0998   -0.6507    2.2384 H   0  0  0  0  0  0  0  0  0  0  0  0
    3.9855   -1.9493    1.7505 H   0  0  0  0  0  0  0  0  0  0  0  0
    3.5355   -1.2280   -1.1863 H   0  0  0  0  0  0  0  0  0  0  0  0
    2.6333   -2.5010   -0.2822 H   0  0  0  0  0  0  0  0  0  0  0  0
    4.8337   -3.0846   -1.5480 H   0  0  0  0  0  0  0  0  0  0  0  0
    4.4201   -3.8260    0.0789 H   0  0  0  0  0  0  0  0  0  0  0  0
    5.7363   -0.6701   -1.1271 H   0  0  0  0  0  0  0  0  0  0  0  0
    6.9983   -0.6991    0.2170 H   0  0  0  0  0  0  0  0  0  0  0  0
    5.5016   -0.1037    1.8388 H   0  0  0  0  0  0  0  0  0  0  0  0
    4.7827    0.6827    0.4070 H   0  0  0  0  0  0  0  0  0  0  0  0
    0.3930    1.0524    1.8211 H   0  0  0  0  0  0  0  0  0  0  0  0
   -2.4311    5.6138    1.3723 H   0  0  0  0  0  0  0  0  0  0  0  0
   -3.7025    0.9535    1.6568 H   0  0  0  0  0  0  0  0  0  0  0  0
  1  2  1  0
  2  3  2  0
  3  4  1  0
  4  5  2  0
  5  6  1  0
  6  7  2  0
  7  8  1  0
  8  9  2  0
  9 10  1  0
 10 11  1  0
 11 12  1  0
 12 13  2  0
 13 14  1  0
 14 15  2  0
 15 16  1  0
 16 17  1  0
 17 18  1  0
 18 19  1  0
 19 20  1  0
 20 21  1  0
 21 22  1  0
 22 23  1  0
 16 24  2  0
 11 25  2  0
 25 26  1  0
 26 27  1  0
 27 28  2  0
  9 29  1  0
 29 30  2  0
 30  2  1  0
 30  6  1  0
 27 10  1  0
 24 12  1  0
 23 18  1  0
  1 31  1  0
  1 32  1  0
  3 33  1  0
  4 34  1  0
  5 35  1  0
  7 36  1  0
  8 37  1  0
 13 38  1  0
 14 39  1  0
 17 40  1  0
 18 41  1  0
 19 42  1  0
 19 43  1  0
 20 44  1  0
 20 45  1  0
 22 46  1  0
 22 47  1  0
 23 48  1  0
 23 49  1  0
 24 50  1  0
 26 51  1  0
 29 52  1  0
M  END
$$$$
