@<TRIPOS>MOLECULE
*****
 52 56 0 0 0
SMALL
GASTEIGER

@<TRIPOS>ATOM
      1 N          -5.0585   -0.8663    2.3982 N.pl3   1  UNL1       -0.3575
      2 C          -4.6585   -1.3605    1.1392 C.ar    1  UNL1        0.0324
      3 C          -5.0921   -2.5902    0.7227 C.ar    1  UNL1       -0.0404
      4 C          -4.7254   -3.1191   -0.5079 C.ar    1  UNL1       -0.0594
      5 C          -3.9084   -2.3863   -1.3216 C.ar    1  UNL1       -0.0539
      6 C          -3.4468   -1.1399   -0.9416 C.ar    1  UNL1       -0.0160
      7 C          -2.6216   -0.3757   -1.7390 C.ar    1  UNL1       -0.0520
      8 C          -2.1693    0.8674   -1.3445 C.ar    1  UNL1       -0.0370
      9 C          -2.5411    1.3819   -0.1187 C.ar    1  UNL1        0.0536
     10 N          -2.0944    2.6545    0.3163 N.ar    1  UNL1       -0.2437
     11 C          -0.8178    3.0430    0.4122 C.ar    1  UNL1        0.1693
     12 C           0.3931    2.2629    0.0975 C.ar    1  UNL1        0.0243
     13 C           1.0529    2.5430   -1.0778 C.ar    1  UNL1       -0.0327
     14 C           2.1962    1.8593   -1.4502 C.ar    1  UNL1        0.0304
     15 N           2.6491    0.9042   -0.6233 N.ar    1  UNL1       -0.2405
     16 C           2.0413    0.5931    0.5350 C.ar    1  UNL1        0.1195
     17 N           2.5994   -0.4272    1.3308 N.pl3   1  UNL1       -0.3261
     18 C           3.7769   -1.1665    0.9958 C.3     1  UNL1        0.0261
     19 C           3.5682   -1.9043   -0.3206 C.3     1  UNL1       -0.0109
     20 C           4.7180   -2.9081   -0.4584 C.3     1  UNL1        0.0493
     21 O           5.9097   -2.3817    0.0331 O.3     1  UNL1       -0.3796
     22 C           5.9836   -0.9988   -0.1024 C.3     1  UNL1        0.0493
     23 C           5.0128   -0.3003    0.8552 C.3     1  UNL1       -0.0109
     24 C           0.8998    1.2814    0.8985 C.ar    1  UNL1       -0.0112
     25 N          -0.8426    4.3120    0.8611 N.ar    1  UNL1       -0.1509
     26 N          -2.1030    4.6790    1.0315 N.ar    1  UNL1       -0.2260
     27 C          -2.8967    3.6492    0.6935 C.ar    1  UNL1        0.3489
     28 O          -4.1702    3.6860    0.7478 O.2     1  UNL1       -0.2446
     29 C          -3.3641    0.6110    0.6680 C.ar    1  UNL1       -0.0282
     30 C          -3.8348   -0.6376    0.3028 C.ar    1  UNL1        0.0047
     31 H          -5.0106   -1.4385    3.2580 H       1  UNL1        0.1423
     32 H          -5.4124    0.1034    2.4642 H       1  UNL1        0.1423
     33 H          -5.7447   -3.2267    1.3211 H       1  UNL1        0.0636
     34 H          -5.0725   -4.0970   -0.8347 H       1  UNL1        0.0618
     35 H          -3.5837   -2.7527   -2.3084 H       1  UNL1        0.0624
     36 H          -2.3267   -0.7811   -2.7086 H       1  UNL1        0.0624
     37 H          -1.5138    1.4270   -2.0258 H       1  UNL1        0.0638
     38 H           0.7063    3.3200   -1.7762 H       1  UNL1        0.0640
     39 H           2.7159    2.0905   -2.3910 H       1  UNL1        0.0830
     40 H           2.0998   -0.6507    2.2384 H       1  UNL1        0.1477
     41 H           3.9855   -1.9493    1.7505 H       1  UNL1        0.0499
     42 H           3.5355   -1.2280   -1.1863 H       1  UNL1        0.0305
     43 H           2.6333   -2.5010   -0.2822 H       1  UNL1        0.0305
     44 H           4.8337   -3.0846   -1.5480 H       1  UNL1        0.0560
     45 H           4.4201   -3.8260    0.0789 H       1  UNL1        0.0560
     46 H           5.7363   -0.6701   -1.1271 H       1  UNL1        0.0560
     47 H           6.9983   -0.6991    0.2170 H       1  UNL1        0.0560
     48 H           5.5016   -0.1037    1.8388 H       1  UNL1        0.0305
     49 H           4.7827    0.6827    0.4070 H       1  UNL1        0.0305
     50 H           0.3930    1.0524    1.8211 H       1  UNL1        0.0659
     51 H          -2.4311    5.6138    1.3723 H       1  UNL1        0.1937
     52 H          -3.7025    0.9535    1.6568 H       1  UNL1        0.0645
@<TRIPOS>BOND
     1     1     2    1
     2     2     3   ar
     3     3     4   ar
     4     4     5   ar
     5     5     6   ar
     6     6     7   ar
     7     7     8   ar
     8     8     9   ar
     9     9    10    1
    10    10    11   ar
    11    11    12    1
    12    12    13   ar
    13    13    14   ar
    14    14    15   ar
    15    15    16   ar
    16    16    17    1
    17    17    18    1
    18    18    19    1
    19    19    20    1
    20    20    21    1
    21    21    22    1
    22    22    23    1
    23    16    24   ar
    24    11    25   ar
    25    25    26   ar
    26    26    27   ar
    27    27    28    2
    28     9    29   ar
    29    29    30   ar
    30    30     2   ar
    31    30     6   ar
    32    27    10   ar
    33    24    12   ar
    34    23    18    1
    35     1    31    1
    36     1    32    1
    37     3    33    1
    38     4    34    1
    39     5    35    1
    40     7    36    1
    41     8    37    1
    42    13    38    1
    43    14    39    1
    44    17    40    1
    45    18    41    1
    46    19    42    1
    47    19    43    1
    48    20    44    1
    49    20    45    1
    50    22    46    1
    51    22    47    1
    52    23    48    1
    53    23    49    1
    54    24    50    1
    55    26    51    1
    56    29    52    1
