@<TRIPOS>MOLECULE
*****
 35 36 0 0 0
SMALL
GASTEIGER

@<TRIPOS>ATOM
      1 N           3.7068   -3.3496   -0.0911 N.pl3   1  UNL1       -0.3273
      2 C           3.3416   -2.1044    0.4604 C.ar    1  UNL1        0.2175
      3 N           3.8774   -1.6017    1.5825 N.ar    1  UNL1       -0.1976
      4 C           3.4766   -0.3863    2.0568 C.ar    1  UNL1        0.1541
      5 N           4.0770    0.0816    3.2344 N.pl3   1  UNL1       -0.3411
      6 C           2.5131    0.2311    1.2951 C.ar    1  UNL1        0.2079
      7 N           2.1550    1.5055    1.8695 N.2     1  UNL1       -0.0218
      8 O           1.5659    1.5142    2.9568 O.2     1  UNL1       -0.1429
      9 C           1.9309   -0.2492    0.1304 C.ar    1  UNL1        0.2508
     10 O           1.0275    0.5494   -0.4023 O.3     1  UNL1       -0.4744
     11 C           0.1636    1.3131   -0.9119 C.3     1  UNL1        0.0941
     12 C          -1.2203    0.6085   -0.9922 C.3     1  UNL1       -0.0067
     13 C          -2.2102    1.5725   -1.6018 C.3     1  UNL1       -0.0471
     14 C          -3.4553    0.8259   -1.9410 C.3     1  UNL1       -0.0527
     15 C          -3.8031   -0.1840   -0.9092 C.3     1  UNL1       -0.0530
     16 C          -3.1750   -0.0140    0.4299 C.3     1  UNL1       -0.0527
     17 C          -1.6790    0.1562    0.3713 C.3     1  UNL1       -0.0471
     18 N           2.4063   -1.4486   -0.2317 N.ar    1  UNL1       -0.1776
     19 H           4.3338   -4.1531   -0.2407 H       1  UNL1        0.1452
     20 H           3.1192   -3.9172   -0.7376 H       1  UNL1        0.1452
     21 H           4.4660    0.9994    2.8759 H       1  UNL1        0.1438
     22 H           4.0107   -0.5102    4.0887 H       1  UNL1        0.1438
     23 H           0.2769    1.6125   -2.0279 H       1  UNL1        0.0700
     24 H          -0.1198    2.2907   -0.3870 H       1  UNL1        0.0700
     25 H          -1.0835   -0.2430   -1.6557 H       1  UNL1        0.0334
     26 H          -1.7530    1.9789   -2.5287 H       1  UNL1        0.0269
     27 H          -2.4041    2.3976   -0.8727 H       1  UNL1        0.0269
     28 H          -3.3074    0.3470   -2.9503 H       1  UNL1        0.0265
     29 H          -4.2946    1.5638   -2.0617 H       1  UNL1        0.0265
     30 H          -3.5538   -1.1996   -1.2791 H       1  UNL1        0.0265
     31 H          -4.9149   -0.1875   -0.7627 H       1  UNL1        0.0265
     32 H          -3.6113    0.8137    1.0047 H       1  UNL1        0.0265
     33 H          -3.3474   -0.9763    0.9961 H       1  UNL1        0.0265
     34 H          -1.1371   -0.7710    0.6414 H       1  UNL1        0.0269
     35 H          -1.3785    0.9343    1.1076 H       1  UNL1        0.0269
@<TRIPOS>BOND
     1     1     2    1
     2     2     3   ar
     3     3     4   ar
     4     4     5    1
     5     4     6   ar
     6     6     7    1
     7     7     8    2
     8     6     9   ar
     9     9    10    1
    10    10    11    1
    11    11    12    1
    12    12    13    1
    13    13    14    1
    14    14    15    1
    15    15    16    1
    16    16    17    1
    17     9    18   ar
    18    18     2   ar
    19    17    12    1
    20     1    19    1
    21     1    20    1
    22     5    21    1
    23     5    22    1
    24    11    23    1
    25    11    24    1
    26    12    25    1
    27    13    26    1
    28    13    27    1
    29    14    28    1
    30    14    29    1
    31    15    30    1
    32    15    31    1
    33    16    32    1
    34    16    33    1
    35    17    34    1
    36    17    35    1
