@<TRIPOS>MOLECULE
*****
 47 50 0 0 0
SMALL
GASTEIGER

@<TRIPOS>ATOM
      1 C          -5.4931   -0.6579   -1.5248 C.3     1  UNL1       -0.0442
      2 C          -5.0224    0.5444   -0.6982 C.3     1  UNL1        0.0265
      3 C          -4.4796    1.5815   -1.6509 C.3     1  UNL1       -0.0442
      4 C          -6.2689    1.1315   -0.0603 C.3     1  UNL1       -0.0442
      5 N          -4.1189    0.1624    0.3344 N.am    1  UNL1       -0.3065
      6 C          -2.8554   -0.4966    0.1125 C.2     1  UNL1        0.2480
      7 O          -2.5458   -0.7439   -1.0709 O.2     1  UNL1       -0.2701
      8 C          -2.0249   -0.8297    1.2662 C.ar    1  UNL1        0.0815
      9 C          -2.4453   -1.0688    2.5712 C.ar    1  UNL1        0.0178
     10 N          -1.3696   -1.3341    3.3343 N.ar    1  UNL1       -0.3438
     11 C          -0.2789   -1.2705    2.5520 C.ar    1  UNL1        0.1574
     12 N           1.0497   -1.4410    2.7828 N.ar    1  UNL1       -0.2338
     13 C           1.9289   -1.3055    1.7798 C.ar    1  UNL1        0.0575
     14 C           1.5774   -0.9950    0.4820 C.ar    1  UNL1        0.1097
     15 C           2.5750   -0.8376   -0.5767 C.ar    1  UNL1        0.1116
     16 N           2.6086   -1.3666   -1.8126 N.ar    1  UNL1       -0.2339
     17 C           3.7201   -0.9304   -2.4521 C.ar    1  UNL1        0.0969
     18 N           4.4128   -0.1128   -1.6263 N.ar    1  UNL1       -0.3333
     19 C           3.7116   -0.0570   -0.4810 C.ar    1  UNL1        0.0475
     20 C           4.2450    0.7838    0.5952 C.3     1  UNL1       -0.0101
     21 C           5.7471    0.4840    0.6537 C.3     1  UNL1       -0.0460
     22 C           6.3766    0.9601   -0.6297 C.3     1  UNL1       -0.0346
     23 C           5.6532    0.5876   -1.8714 C.3     1  UNL1        0.0244
     24 N           0.2567   -0.8265    0.2557 N.ar    1  UNL1       -0.2397
     25 C          -0.6534   -0.9594    1.2612 C.ar    1  UNL1        0.1202
     26 H          -6.6013   -0.6946   -1.5997 H       1  UNL1        0.0250
     27 H          -5.0013   -0.6185   -2.5086 H       1  UNL1        0.0250
     28 H          -5.1591   -1.5568   -0.9676 H       1  UNL1        0.0250
     29 H          -3.9570    1.1417   -2.5228 H       1  UNL1        0.0250
     30 H          -3.9155    2.3414   -1.1062 H       1  UNL1        0.0250
     31 H          -5.3801    2.1089   -2.0800 H       1  UNL1        0.0250
     32 H          -6.4556    0.6985    0.9539 H       1  UNL1        0.0250
     33 H          -7.1126    0.9702   -0.7569 H       1  UNL1        0.0250
     34 H          -6.1746    2.2402    0.0297 H       1  UNL1        0.0250
     35 H          -4.3554    0.3581    1.3285 H       1  UNL1        0.1495
     36 H          -3.4754   -1.0385    2.8901 H       1  UNL1        0.0816
     37 H          -1.3788   -1.5482    4.3445 H       1  UNL1        0.1668
     38 H           2.9681   -1.4624    2.0521 H       1  UNL1        0.0853
     39 H           3.9962   -1.2061   -3.4711 H       1  UNL1        0.1029
     40 H           3.7635    0.7206    1.5607 H       1  UNL1        0.0328
     41 H           4.2095    1.8805    0.3177 H       1  UNL1        0.0328
     42 H           5.8697   -0.5875    0.8467 H       1  UNL1        0.0269
     43 H           6.1459    1.1127    1.4761 H       1  UNL1        0.0269
     44 H           6.4935    2.0708   -0.5350 H       1  UNL1        0.0282
     45 H           7.4184    0.5742   -0.6689 H       1  UNL1        0.0282
     46 H           5.4623    1.5101   -2.4596 H       1  UNL1        0.0492
     47 H           6.3332   -0.0175   -2.5424 H       1  UNL1        0.0492
@<TRIPOS>BOND
     1     1     2    1
     2     2     3    1
     3     2     4    1
     4     2     5    1
     5     5     6   am
     6     6     7    2
     7     6     8    1
     8     8     9   ar
     9     9    10   ar
    10    10    11   ar
    11    11    12   ar
    12    12    13   ar
    13    13    14   ar
    14    14    15    1
    15    15    16   ar
    16    16    17   ar
    17    17    18   ar
    18    18    19   ar
    19    19    20    1
    20    20    21    1
    21    21    22    1
    22    22    23    1
    23    14    24   ar
    24    24    25   ar
    25    25     8   ar
    26    25    11   ar
    27    19    15   ar
    28    23    18    1
    29     1    26    1
    30     1    27    1
    31     1    28    1
    32     3    29    1
    33     3    30    1
    34     3    31    1
    35     4    32    1
    36     4    33    1
    37     4    34    1
    38     5    35    1
    39     9    36    1
    40    10    37    1
    41    13    38    1
    42    17    39    1
    43    20    40    1
    44    20    41    1
    45    21    42    1
    46    21    43    1
    47    22    44    1
    48    22    45    1
    49    23    46    1
    50    23    47    1
