@<TRIPOS>MOLECULE
*****
 64 69 0 0 0
SMALL
GASTEIGER

@<TRIPOS>ATOM
      1 C          -9.8212    1.0825    0.2319 C.3     1  UNL1        0.0322
      2 N          -9.2984   -0.1228   -0.3815 N.ar    1  UNL1       -0.2535
      3 N          -9.8974   -0.7094   -1.4108 N.ar    1  UNL1       -0.1782
      4 C          -9.2144   -1.8060   -1.7719 C.ar    1  UNL1        0.0512
      5 C          -8.1426   -1.8850   -0.9122 C.ar    1  UNL1       -0.0022
      6 C          -8.2127   -0.8096   -0.0376 C.ar    1  UNL1        0.1208
      7 N          -7.2507   -0.5844    0.9681 N.pl3   1  UNL1       -0.2996
      8 C          -5.9110   -0.1554    0.6554 C.ar    1  UNL1        0.0333
      9 C          -5.6284    0.4230   -0.5592 C.ar    1  UNL1       -0.0370
     10 C          -4.3596    0.8064   -0.9262 C.ar    1  UNL1       -0.0175
     11 C          -3.3015    0.6080   -0.0442 C.ar    1  UNL1        0.1319
     12 C          -3.5755    0.0316    1.1691 C.ar    1  UNL1        0.0609
     13 C          -4.8734   -0.3539    1.5325 C.ar    1  UNL1       -0.0265
     14 C          -2.4720   -0.1983    2.0940 C.2     1  UNL1        0.1705
     15 O          -2.6588   -1.0162    3.0325 O.2     1  UNL1       -0.2918
     16 C          -1.2112    0.5388    1.8724 C.3     1  UNL1        0.0506
     17 C          -0.8824    0.6859    0.4094 C.3     1  UNL1        0.1205
     18 C           0.0429    1.8917    0.1791 C.3     1  UNL1        0.0034
     19 C           1.2893    1.6483    0.9548 C.3     1  UNL1        0.0198
     20 N           1.9823    0.5166    0.3307 N.am    1  UNL1       -0.2854
     21 C           3.3244    0.6478   -0.1091 C.2     1  UNL1        0.3024
     22 O           3.8678    1.7986    0.0651 O.2     1  UNL1       -0.2526
     23 N           4.0996   -0.3702   -0.7133 N.am    1  UNL1       -0.2958
     24 C           5.4596   -0.2209   -1.1566 C.3     1  UNL1        0.0320
     25 C           5.9303    1.0863   -1.6586 C.3     1  UNL1       -0.0254
     26 C           6.4498    0.5273   -0.3806 C.3     1  UNL1        0.0043
     27 C           7.8940    0.2194   -0.3635 C.ar    1  UNL1       -0.0425
     28 C           8.5793   -0.3887   -1.3989 C.ar    1  UNL1       -0.0582
     29 C           9.9328   -0.6446   -1.3251 C.ar    1  UNL1       -0.0615
     30 C          10.6525   -0.2935   -0.1949 C.ar    1  UNL1       -0.0617
     31 C           9.9963    0.3071    0.8372 C.ar    1  UNL1       -0.0615
     32 C           8.6455    0.5514    0.7401 C.ar    1  UNL1       -0.0582
     33 C           1.2363   -0.6892    0.2048 C.3     1  UNL1        0.0198
     34 C          -0.2179   -0.5571   -0.0707 C.3     1  UNL1        0.0034
     35 O          -2.0200    0.9732   -0.3678 O.3     1  UNL1       -0.4844
     36 H         -10.9408    0.9989    0.2128 H       1  UNL1        0.0473
     37 H          -9.5589    1.1805    1.2992 H       1  UNL1        0.0473
     38 H          -9.5151    2.0046   -0.2859 H       1  UNL1        0.0473
     39 H          -9.4875   -2.4570   -2.5769 H       1  UNL1        0.0848
     40 H          -7.3632   -2.6551   -0.9105 H       1  UNL1        0.0668
     41 H          -7.4879   -0.7186    1.9691 H       1  UNL1        0.1536
     42 H          -6.4677    0.5694   -1.2353 H       1  UNL1        0.0637
     43 H          -4.1240    1.2584   -1.8642 H       1  UNL1        0.0655
     44 H          -5.0300   -0.8039    2.5034 H       1  UNL1        0.0644
     45 H          -1.3092    1.5325    2.3373 H       1  UNL1        0.0384
     46 H          -0.3489    0.0324    2.3542 H       1  UNL1        0.0384
     47 H          -0.5004    2.8123    0.4447 H       1  UNL1        0.0319
     48 H           0.2832    1.8406   -0.9180 H       1  UNL1        0.0319
     49 H           1.0587    1.4523    2.0228 H       1  UNL1        0.0466
     50 H           1.9615    2.5351    0.8601 H       1  UNL1        0.0466
     51 H           3.6329   -1.3144   -0.8422 H       1  UNL1        0.1505
     52 H           5.8574   -1.1266   -1.7104 H       1  UNL1        0.0505
     53 H           6.6344    1.0482   -2.5442 H       1  UNL1        0.0290
     54 H           5.3382    2.0036   -1.6788 H       1  UNL1        0.0290
     55 H           6.0771    0.9322    0.5925 H       1  UNL1        0.0367
     56 H           8.0616   -0.6780   -2.2953 H       1  UNL1        0.0620
     57 H          10.4879   -1.1185   -2.1213 H       1  UNL1        0.0618
     58 H          11.7254   -0.4946   -0.1320 H       1  UNL1        0.0618
     59 H          10.5394    0.5874    1.7235 H       1  UNL1        0.0618
     60 H           8.1719    1.0353    1.5955 H       1  UNL1        0.0620
     61 H           1.6611   -1.2661   -0.6710 H       1  UNL1        0.0466
     62 H           1.4199   -1.3933    1.0756 H       1  UNL1        0.0466
     63 H          -0.7310   -1.4219    0.4465 H       1  UNL1        0.0319
     64 H          -0.4797   -0.7077   -1.1455 H       1  UNL1        0.0319
@<TRIPOS>BOND
     1     1     2    1
     2     2     3   ar
     3     3     4   ar
     4     4     5   ar
     5     5     6   ar
     6     6     7    1
     7     7     8    1
     8     8     9   ar
     9     9    10   ar
    10    10    11   ar
    11    11    12   ar
    12    12    13   ar
    13    12    14    1
    14    14    15    2
    15    14    16    1
    16    16    17    1
    17    17    18    1
    18    18    19    1
    19    19    20    1
    20    20    21   am
    21    21    22    2
    22    21    23   am
    23    23    24    1
    24    24    25    1
    25    25    26    1
    26    26    27    1
    27    27    28   ar
    28    28    29   ar
    29    29    30   ar
    30    30    31   ar
    31    31    32   ar
    32    20    33    1
    33    33    34    1
    34    17    35    1
    35     6     2   ar
    36    13     8   ar
    37    34    17    1
    38    35    11    1
    39    26    24    1
    40    32    27   ar
    41     1    36    1
    42     1    37    1
    43     1    38    1
    44     4    39    1
    45     5    40    1
    46     7    41    1
    47     9    42    1
    48    10    43    1
    49    13    44    1
    50    16    45    1
    51    16    46    1
    52    18    47    1
    53    18    48    1
    54    19    49    1
    55    19    50    1
    56    23    51    1
    57    24    52    1
    58    25    53    1
    59    25    54    1
    60    26    55    1
    61    28    56    1
    62    29    57    1
    63    30    58    1
    64    31    59    1
    65    32    60    1
    66    33    61    1
    67    33    62    1
    68    34    63    1
    69    34    64    1
