
     RDKit          3D

 52 55  0  0  0  0  0  0  0  0999 V2000
    1.0722   -0.7625   -2.2970 C   0  0  0  0  0  0  0  0  0  0  0  0
    1.3807   -1.2383   -0.9184 C   0  0  0  0  0  0  0  0  0  0  0  0
    2.6008   -1.6108   -0.3984 C   0  0  0  0  0  0  0  0  0  0  0  0
    3.7887   -1.5993   -1.0983 O   0  0  0  0  0  0  0  0  0  0  0  0
    4.5595   -0.4695   -1.1597 C   0  0  0  0  0  0  0  0  0  0  0  0
    4.3731    0.4179   -2.2165 C   0  0  0  0  0  0  0  0  0  0  0  0
    5.1484    1.5586   -2.2807 C   0  0  0  0  0  0  0  0  0  0  0  0
    6.0846    1.8151   -1.3241 C   0  0  0  0  0  0  0  0  0  0  0  0
    7.0780    3.2712   -1.4011 Cl  0  0  0  0  0  0  0  0  0  0  0  0
    6.2585    0.9348   -0.2905 C   0  0  0  0  0  0  0  0  0  0  0  0
    5.4988   -0.2175   -0.1955 C   0  0  0  0  0  0  0  0  0  0  0  0
    2.4493   -2.0009    0.9421 C   0  0  0  0  0  0  0  0  0  0  0  0
    3.3338   -2.4557    1.8977 C   0  0  0  0  0  0  0  0  0  0  0  0
    2.8361   -2.7615    3.1495 C   0  0  0  0  0  0  0  0  0  0  0  0
    1.5008   -2.6011    3.3825 C   0  0  0  0  0  0  0  0  0  0  0  0
    1.0437   -2.9124    4.6304 F   0  0  0  0  0  0  0  0  0  0  0  0
    0.6686   -2.1598    2.4387 N   0  0  0  0  0  0  0  0  0  0  0  0
    1.1246   -1.8517    1.2021 C   0  0  0  0  0  0  0  0  0  0  0  0
    0.4767   -1.3955    0.0913 N   0  0  0  0  0  0  0  0  0  0  0  0
   -0.9130   -1.1708    0.0215 C   0  0  0  0  0  0  0  0  0  0  0  0
   -1.4437    0.1451    0.3798 C   0  0  0  0  0  0  0  0  0  0  0  0
   -2.8321    0.2677    0.2832 C   0  0  0  0  0  0  0  0  0  0  0  0
   -3.5006    1.4164    0.5761 C   0  0  0  0  0  0  0  0  0  0  0  0
   -4.8690    1.5968    0.4993 O   0  0  0  0  0  0  0  0  0  0  0  0
   -5.7919    0.6389    0.1115 C   0  0  1  0  0  0  0  0  0  0  0  0
   -6.7950    0.4988    1.2616 C   0  0  0  0  0  0  0  0  0  0  0  0
   -6.5914    1.1345   -1.0581 C   0  0  0  0  0  0  0  0  0  0  0  0
   -7.4914    0.4587   -1.5994 O   0  0  0  0  0  0  0  0  0  0  0  0
   -6.3438    2.3979   -1.5862 O   0  0  0  0  0  0  0  0  0  0  0  0
   -2.7131    2.4993    0.9899 C   0  0  0  0  0  0  0  0  0  0  0  0
   -1.3485    2.4094    1.0944 C   0  0  0  0  0  0  0  0  0  0  0  0
   -0.7288    1.2265    0.7861 C   0  0  0  0  0  0  0  0  0  0  0  0
    1.0154    1.1376    0.9271 Cl  0  0  0  0  0  0  0  0  0  0  0  0
    0.0314   -0.9948   -2.5895 H   0  0  0  0  0  0  0  0  0  0  0  0
    1.3185    0.3183   -2.4256 H   0  0  0  0  0  0  0  0  0  0  0  0
    1.7289   -1.3099   -3.0052 H   0  0  0  0  0  0  0  0  0  0  0  0
    3.6494    0.2482   -2.9920 H   0  0  0  0  0  0  0  0  0  0  0  0
    5.0212    2.2546   -3.0850 H   0  0  0  0  0  0  0  0  0  0  0  0
    7.0090    1.1367    0.4796 H   0  0  0  0  0  0  0  0  0  0  0  0
    5.6597   -0.9071    0.6402 H   0  0  0  0  0  0  0  0  0  0  0  0
    4.3847   -2.5783    1.6797 H   0  0  0  0  0  0  0  0  0  0  0  0
    3.5203   -3.1198    3.9103 H   0  0  0  0  0  0  0  0  0  0  0  0
   -1.4247   -1.8966    0.7303 H   0  0  0  0  0  0  0  0  0  0  0  0
   -1.3566   -1.4462   -0.9685 H   0  0  0  0  0  0  0  0  0  0  0  0
   -3.4309   -0.5995   -0.0451 H   0  0  0  0  0  0  0  0  0  0  0  0
   -5.3944   -0.3397   -0.1507 H   0  0  0  0  0  0  0  0  0  0  0  0
   -6.3868   -0.2971    1.9152 H   0  0  0  0  0  0  0  0  0  0  0  0
   -7.7454    0.1296    0.8160 H   0  0  0  0  0  0  0  0  0  0  0  0
   -6.9212    1.4521    1.7954 H   0  0  0  0  0  0  0  0  0  0  0  0
   -6.6527    2.6152   -2.5266 H   0  0  0  0  0  0  0  0  0  0  0  0
   -3.1885    3.4268    1.2326 H   0  0  0  0  0  0  0  0  0  0  0  0
   -0.7519    3.2897    1.4265 H   0  0  0  0  0  0  0  0  0  0  0  0
  1  2  1  0
  2  3  2  0
  3  4  1  0
  4  5  1  0
  5  6  2  0
  6  7  1  0
  7  8  2  0
  8  9  1  0
  8 10  1  0
 10 11  2  0
  3 12  1  0
 12 13  2  0
 13 14  1  0
 14 15  2  0
 15 16  1  0
 15 17  1  0
 17 18  2  0
 18 19  1  0
 19 20  1  0
 20 21  1  0
 21 22  2  0
 22 23  1  0
 23 24  1  0
 24 25  1  0
 25 26  1  0
 25 27  1  0
 27 28  2  0
 27 29  1  0
 23 30  2  0
 30 31  1  0
 31 32  2  0
 32 33  1  0
 19  2  1  0
 32 21  1  0
 11  5  1  0
 18 12  1  0
  1 34  1  0
  1 35  1  0
  1 36  1  0
  6 37  1  0
  7 38  1  0
 10 39  1  0
 11 40  1  0
 13 41  1  0
 14 42  1  0
 20 43  1  0
 20 44  1  0
 22 45  1  0
 25 46  1  6
 26 47  1  0
 26 48  1  0
 26 49  1  0
 29 50  1  0
 30 51  1  0
 31 52  1  0
M  END
$$$$
