@<TRIPOS>MOLECULE
*****
 52 55 0 0 0
SMALL
GASTEIGER

@<TRIPOS>ATOM
      1 C           1.0722   -0.7625   -2.2970 C.3     1  UNL1       -0.0206
      2 C           1.3807   -1.2383   -0.9184 C.ar    1  UNL1        0.0607
      3 C           2.6008   -1.6108   -0.3984 C.ar    1  UNL1        0.1580
      4 O           3.7887   -1.5993   -1.0983 O.3     1  UNL1       -0.4536
      5 C           4.5595   -0.4695   -1.1597 C.ar    1  UNL1        0.1286
      6 C           4.3731    0.4179   -2.2165 C.ar    1  UNL1       -0.0180
      7 C           5.1484    1.5586   -2.2807 C.ar    1  UNL1       -0.0399
      8 C           6.0846    1.8151   -1.3241 C.ar    1  UNL1        0.0412
      9 CL          7.0780    3.2712   -1.4011 Cl      1  UNL1       -0.0835
     10 C           6.2585    0.9348   -0.2905 C.ar    1  UNL1       -0.0399
     11 C           5.4988   -0.2175   -0.1955 C.ar    1  UNL1       -0.0180
     12 C           2.4493   -2.0009    0.9421 C.ar    1  UNL1        0.0616
     13 C           3.3338   -2.4557    1.8977 C.ar    1  UNL1       -0.0433
     14 C           2.8361   -2.7615    3.1495 C.ar    1  UNL1       -0.0065
     15 C           1.5008   -2.6011    3.3825 C.ar    1  UNL1        0.2151
     16 F           1.0437   -2.9124    4.6304 F       1  UNL1       -0.1838
     17 N           0.6686   -2.1598    2.4387 N.ar    1  UNL1       -0.2010
     18 C           1.1246   -1.8517    1.2021 C.ar    1  UNL1        0.1479
     19 N           0.4767   -1.3955    0.0913 N.ar    1  UNL1       -0.3213
     20 C          -0.9130   -1.1708    0.0215 C.3     1  UNL1        0.0515
     21 C          -1.4437    0.1451    0.3798 C.ar    1  UNL1       -0.0060
     22 C          -2.8321    0.2677    0.2832 C.ar    1  UNL1       -0.0136
     23 C          -3.5006    1.4164    0.5761 C.ar    1  UNL1        0.1221
     24 O          -4.8690    1.5968    0.4993 O.3     1  UNL1       -0.4779
     25 C          -5.7919    0.6389    0.1115 C.3     1  UNL1        0.1931
     26 C          -6.7950    0.4988    1.2616 C.3     1  UNL1       -0.0172
     27 C          -6.5914    1.1345   -1.0581 C.2     1  UNL1        0.3456
     28 O          -7.4914    0.4587   -1.5994 O.2     1  UNL1       -0.2468
     29 O          -6.3438    2.3979   -1.5862 O.3     1  UNL1       -0.4781
     30 C          -2.7131    2.4993    0.9899 C.ar    1  UNL1       -0.0185
     31 C          -1.3485    2.4094    1.0944 C.ar    1  UNL1       -0.0396
     32 C          -0.7288    1.2265    0.7861 C.ar    1  UNL1        0.0461
     33 CL          1.0154    1.1376    0.9271 Cl      1  UNL1       -0.0832
     34 H           0.0314   -0.9948   -2.5895 H       1  UNL1        0.0293
     35 H           1.3185    0.3183   -2.4256 H       1  UNL1        0.0293
     36 H           1.7289   -1.3099   -3.0052 H       1  UNL1        0.0293
     37 H           3.6494    0.2482   -2.9920 H       1  UNL1        0.0655
     38 H           5.0212    2.2546   -3.0850 H       1  UNL1        0.0633
     39 H           7.0090    1.1367    0.4796 H       1  UNL1        0.0633
     40 H           5.6597   -0.9071    0.6402 H       1  UNL1        0.0655
     41 H           4.3847   -2.5783    1.6797 H       1  UNL1        0.0627
     42 H           3.5203   -3.1198    3.9103 H       1  UNL1        0.0662
     43 H          -1.4247   -1.8966    0.7303 H       1  UNL1        0.0542
     44 H          -1.3566   -1.4462   -0.9685 H       1  UNL1        0.0542
     45 H          -3.4309   -0.5995   -0.0451 H       1  UNL1        0.0658
     46 H          -5.3944   -0.3397   -0.1507 H       1  UNL1        0.0849
     47 H          -6.3868   -0.2971    1.9152 H       1  UNL1        0.0271
     48 H          -7.7454    0.1296    0.8160 H       1  UNL1        0.0271
     49 H          -6.9212    1.4521    1.7954 H       1  UNL1        0.0271
     50 H          -6.6527    2.6152   -2.5266 H       1  UNL1        0.2952
     51 H          -3.1885    3.4268    1.2326 H       1  UNL1        0.0654
     52 H          -0.7519    3.2897    1.4265 H       1  UNL1        0.0633
@<TRIPOS>BOND
     1     1     2    1
     2     2     3   ar
     3     3     4    1
     4     4     5    1
     5     5     6   ar
     6     6     7   ar
     7     7     8   ar
     8     8     9    1
     9     8    10   ar
    10    10    11   ar
    11     3    12   ar
    12    12    13   ar
    13    13    14   ar
    14    14    15   ar
    15    15    16    1
    16    15    17   ar
    17    17    18   ar
    18    18    19   ar
    19    19    20    1
    20    20    21    1
    21    21    22   ar
    22    22    23   ar
    23    23    24    1
    24    24    25    1
    25    25    26    1
    26    25    27    1
    27    27    28    2
    28    27    29    1
    29    23    30   ar
    30    30    31   ar
    31    31    32   ar
    32    32    33    1
    33    19     2   ar
    34    32    21   ar
    35    11     5   ar
    36    18    12   ar
    37     1    34    1
    38     1    35    1
    39     1    36    1
    40     6    37    1
    41     7    38    1
    42    10    39    1
    43    11    40    1
    44    13    41    1
    45    14    42    1
    46    20    43    1
    47    20    44    1
    48    22    45    1
    49    25    46    1
    50    26    47    1
    51    26    48    1
    52    26    49    1
    53    29    50    1
    54    30    51    1
    55    31    52    1
