@<TRIPOS>MOLECULE
*****
 59 60 0 0 0
SMALL
GASTEIGER

@<TRIPOS>ATOM
      1 C          -1.0683    0.7883   -1.4074 C.3     1  UNL1        0.0722
      2 C          -0.3969   -0.2434   -2.2891 C.3     1  UNL1        0.0328
      3 C           0.8977   -0.5551   -1.5738 C.2     1  UNL1        0.1392
      4 O           1.5783   -1.3504   -2.2380 O.2     1  UNL1       -0.2970
      5 C           0.8545    0.2358   -0.3120 C.3     1  UNL1        0.0228
      6 C           1.6922   -0.3093    0.7914 C.3     1  UNL1       -0.0432
      7 C           3.1146   -0.3275    0.2968 C.3     1  UNL1       -0.0524
      8 C           4.0976   -0.8591    1.3125 C.3     1  UNL1       -0.0530
      9 C           5.4423   -0.7795    0.5927 C.3     1  UNL1       -0.0526
     10 C           6.5717   -1.2623    1.4253 C.3     1  UNL1       -0.0430
     11 C           7.8465   -1.1449    0.6248 C.3     1  UNL1        0.0448
     12 C           8.1411    0.2464    0.2352 C.2     1  UNL1        0.3047
     13 O           8.7102    1.3661   -0.2930 O.3     1  UNL1       -0.4806
     14 O           7.5325    1.3419    0.4718 O.2     1  UNL1       -0.2510
     15 C          -0.6190    0.2325   -0.0458 C.3     1  UNL1       -0.0045
     16 C          -1.1038    1.1477    1.0075 C.3     1  UNL1       -0.0421
     17 C          -2.1533    2.0871    0.5299 C.3     1  UNL1        0.0076
     18 C          -3.0006    1.6372   -0.5969 C.3     1  UNL1        0.2325
     19 O          -3.4272    2.7893   -1.2755 O.3     1  UNL1       -0.3601
     20 O          -2.4465    0.7925   -1.5089 O.3     1  UNL1       -0.3400
     21 C          -4.3069    0.9840   -0.0948 C.3     1  UNL1        0.3013
     22 F          -5.0562    1.8588    0.6568 F       1  UNL1       -0.1998
     23 F          -3.9060   -0.0767    0.7080 F       1  UNL1       -0.1998
     24 C          -5.0966    0.4756   -1.2607 C.3     1  UNL1        0.0161
     25 C          -6.4105   -0.1624   -0.9335 C.3     1  UNL1       -0.0477
     26 C          -6.2356   -1.3496   -0.0426 C.3     1  UNL1       -0.0557
     27 C          -7.6413   -1.9329    0.1745 C.3     1  UNL1       -0.0653
     28 H          -0.5849    1.7541   -1.6214 H       1  UNL1        0.0604
     29 H          -1.0551   -1.1423   -2.2717 H       1  UNL1        0.0367
     30 H          -0.2350    0.1220   -3.3143 H       1  UNL1        0.0367
     31 H           1.1978    1.2488   -0.5741 H       1  UNL1        0.0381
     32 H           1.3817   -1.3132    1.1317 H       1  UNL1        0.0272
     33 H           1.6439    0.3976    1.6312 H       1  UNL1        0.0272
     34 H           3.1739   -1.0182   -0.5691 H       1  UNL1        0.0265
     35 H           3.4155    0.6981    0.0119 H       1  UNL1        0.0265
     36 H           4.1655   -0.1350    2.1537 H       1  UNL1        0.0265
     37 H           3.8486   -1.8651    1.6559 H       1  UNL1        0.0265
     38 H           5.3766   -1.4781   -0.2901 H       1  UNL1        0.0265
     39 H           5.5299    0.2454    0.2275 H       1  UNL1        0.0265
     40 H           6.6516   -0.7580    2.4107 H       1  UNL1        0.0270
     41 H           6.4157   -2.3580    1.5843 H       1  UNL1        0.0270
     42 H           8.7188   -1.5739    1.1644 H       1  UNL1        0.0377
     43 H           7.6890   -1.7876   -0.2881 H       1  UNL1        0.0377
     44 H           9.5822    1.2626   -0.8362 H       1  UNL1        0.2951
     45 H          -0.9971   -0.8078   -0.0014 H       1  UNL1        0.0333
     46 H          -1.4950    0.5060    1.8493 H       1  UNL1        0.0271
     47 H          -0.2733    1.7314    1.4891 H       1  UNL1        0.0271
     48 H          -2.8499    2.2616    1.4025 H       1  UNL1        0.0319
     49 H          -1.7060    3.0932    0.3307 H       1  UNL1        0.0319
     50 H          -4.0168    3.2830   -0.6441 H       1  UNL1        0.2129
     51 H          -4.4891   -0.2653   -1.8589 H       1  UNL1        0.0324
     52 H          -5.3167    1.2803   -2.0034 H       1  UNL1        0.0324
     53 H          -7.1148    0.5967   -0.4671 H       1  UNL1        0.0267
     54 H          -6.9506   -0.4531   -1.8794 H       1  UNL1        0.0267
     55 H          -5.8557   -0.9881    0.9603 H       1  UNL1        0.0263
     56 H          -5.5745   -2.0751   -0.5082 H       1  UNL1        0.0263
     57 H          -8.3324   -1.0692    0.2254 H       1  UNL1        0.0230
     58 H          -7.7002   -2.4724    1.1435 H       1  UNL1        0.0230
     59 H          -7.8542   -2.5507   -0.7038 H       1  UNL1        0.0230
@<TRIPOS>BOND
     1     1     2    1
     2     2     3    1
     3     3     4    2
     4     3     5    1
     5     5     6    1
     6     6     7    1
     7     7     8    1
     8     8     9    1
     9     9    10    1
    10    10    11    1
    11    11    12    1
    12    12    13    1
    13    12    14    2
    14     5    15    1
    15    15    16    1
    16    16    17    1
    17    17    18    1
    18    18    19    1
    19    18    20    1
    20    18    21    1
    21    21    22    1
    22    21    23    1
    23    21    24    1
    24    24    25    1
    25    25    26    1
    26    26    27    1
    27    15     1    1
    28    20     1    1
    29     1    28    1
    30     2    29    1
    31     2    30    1
    32     5    31    1
    33     6    32    1
    34     6    33    1
    35     7    34    1
    36     7    35    1
    37     8    36    1
    38     8    37    1
    39     9    38    1
    40     9    39    1
    41    10    40    1
    42    10    41    1
    43    11    42    1
    44    11    43    1
    45    13    44    1
    46    15    45    1
    47    16    46    1
    48    16    47    1
    49    17    48    1
    50    17    49    1
    51    19    50    1
    52    24    51    1
    53    24    52    1
    54    25    53    1
    55    25    54    1
    56    26    55    1
    57    26    56    1
    58    27    57    1
    59    27    58    1
    60    27    59    1
