
     RDKit          3D

 59 60  0  0  0  0  0  0  0  0999 V2000
   -1.0683    0.7883   -1.4074 C   0  0  2  0  0  0  0  0  0  0  0  0
   -0.3969   -0.2434   -2.2891 C   0  0  0  0  0  0  0  0  0  0  0  0
    0.8977   -0.5551   -1.5738 C   0  0  0  0  0  0  0  0  0  0  0  0
    1.5783   -1.3504   -2.2380 O   0  0  0  0  0  0  0  0  0  0  0  0
    0.8545    0.2358   -0.3120 C   0  0  2  0  0  0  0  0  0  0  0  0
    1.6922   -0.3093    0.7914 C   0  0  0  0  0  0  0  0  0  0  0  0
    3.1146   -0.3275    0.2968 C   0  0  0  0  0  0  0  0  0  0  0  0
    4.0976   -0.8591    1.3125 C   0  0  0  0  0  0  0  0  0  0  0  0
    5.4423   -0.7795    0.5927 C   0  0  0  0  0  0  0  0  0  0  0  0
    6.5717   -1.2623    1.4253 C   0  0  0  0  0  0  0  0  0  0  0  0
    7.8465   -1.1449    0.6248 C   0  0  0  0  0  0  0  0  0  0  0  0
    8.1411    0.2464    0.2352 C   0  0  0  0  0  0  0  0  0  0  0  0
    8.7102    1.3661   -0.2930 O   0  0  0  0  0  0  0  0  0  0  0  0
    7.5325    1.3419    0.4718 O   0  0  0  0  0  0  0  0  0  0  0  0
   -0.6190    0.2325   -0.0458 C   0  0  1  0  0  0  0  0  0  0  0  0
   -1.1038    1.1477    1.0075 C   0  0  0  0  0  0  0  0  0  0  0  0
   -2.1533    2.0871    0.5299 C   0  0  0  0  0  0  0  0  0  0  0  0
   -3.0006    1.6372   -0.5969 C   0  0  1  0  0  0  0  0  0  0  0  0
   -3.4272    2.7893   -1.2755 O   0  0  0  0  0  0  0  0  0  0  0  0
   -2.4465    0.7925   -1.5089 O   0  0  0  0  0  0  0  0  0  0  0  0
   -4.3069    0.9840   -0.0948 C   0  0  0  0  0  0  0  0  0  0  0  0
   -5.0562    1.8588    0.6568 F   0  0  0  0  0  0  0  0  0  0  0  0
   -3.9060   -0.0767    0.7080 F   0  0  0  0  0  0  0  0  0  0  0  0
   -5.0966    0.4756   -1.2607 C   0  0  0  0  0  0  0  0  0  0  0  0
   -6.4105   -0.1624   -0.9335 C   0  0  0  0  0  0  0  0  0  0  0  0
   -6.2356   -1.3496   -0.0426 C   0  0  0  0  0  0  0  0  0  0  0  0
   -7.6413   -1.9329    0.1745 C   0  0  0  0  0  0  0  0  0  0  0  0
   -0.5849    1.7541   -1.6214 H   0  0  0  0  0  0  0  0  0  0  0  0
   -1.0551   -1.1423   -2.2717 H   0  0  0  0  0  0  0  0  0  0  0  0
   -0.2350    0.1220   -3.3143 H   0  0  0  0  0  0  0  0  0  0  0  0
    1.1978    1.2488   -0.5741 H   0  0  0  0  0  0  0  0  0  0  0  0
    1.3817   -1.3132    1.1317 H   0  0  0  0  0  0  0  0  0  0  0  0
    1.6439    0.3976    1.6312 H   0  0  0  0  0  0  0  0  0  0  0  0
    3.1739   -1.0182   -0.5691 H   0  0  0  0  0  0  0  0  0  0  0  0
    3.4155    0.6981    0.0119 H   0  0  0  0  0  0  0  0  0  0  0  0
    4.1655   -0.1350    2.1537 H   0  0  0  0  0  0  0  0  0  0  0  0
    3.8486   -1.8651    1.6559 H   0  0  0  0  0  0  0  0  0  0  0  0
    5.3766   -1.4781   -0.2901 H   0  0  0  0  0  0  0  0  0  0  0  0
    5.5299    0.2454    0.2275 H   0  0  0  0  0  0  0  0  0  0  0  0
    6.6516   -0.7580    2.4107 H   0  0  0  0  0  0  0  0  0  0  0  0
    6.4157   -2.3580    1.5843 H   0  0  0  0  0  0  0  0  0  0  0  0
    8.7188   -1.5739    1.1644 H   0  0  0  0  0  0  0  0  0  0  0  0
    7.6890   -1.7876   -0.2881 H   0  0  0  0  0  0  0  0  0  0  0  0
    9.5822    1.2626   -0.8362 H   0  0  0  0  0  0  0  0  0  0  0  0
   -0.9971   -0.8078   -0.0014 H   0  0  0  0  0  0  0  0  0  0  0  0
   -1.4950    0.5060    1.8493 H   0  0  0  0  0  0  0  0  0  0  0  0
   -0.2733    1.7314    1.4891 H   0  0  0  0  0  0  0  0  0  0  0  0
   -2.8499    2.2616    1.4025 H   0  0  0  0  0  0  0  0  0  0  0  0
   -1.7060    3.0932    0.3307 H   0  0  0  0  0  0  0  0  0  0  0  0
   -4.0168    3.2830   -0.6441 H   0  0  0  0  0  0  0  0  0  0  0  0
   -4.4891   -0.2653   -1.8589 H   0  0  0  0  0  0  0  0  0  0  0  0
   -5.3167    1.2803   -2.0034 H   0  0  0  0  0  0  0  0  0  0  0  0
   -7.1148    0.5967   -0.4671 H   0  0  0  0  0  0  0  0  0  0  0  0
   -6.9506   -0.4531   -1.8794 H   0  0  0  0  0  0  0  0  0  0  0  0
   -5.8557   -0.9881    0.9603 H   0  0  0  0  0  0  0  0  0  0  0  0
   -5.5745   -2.0751   -0.5082 H   0  0  0  0  0  0  0  0  0  0  0  0
   -8.3324   -1.0692    0.2254 H   0  0  0  0  0  0  0  0  0  0  0  0
   -7.7002   -2.4724    1.1435 H   0  0  0  0  0  0  0  0  0  0  0  0
   -7.8542   -2.5507   -0.7038 H   0  0  0  0  0  0  0  0  0  0  0  0
  1  2  1  0
  2  3  1  0
  3  4  2  0
  3  5  1  0
  5  6  1  0
  6  7  1  0
  7  8  1  0
  8  9  1  0
  9 10  1  0
 10 11  1  0
 11 12  1  0
 12 13  1  0
 12 14  2  0
  5 15  1  0
 15 16  1  0
 16 17  1  0
 17 18  1  0
 18 19  1  6
 18 20  1  0
 18 21  1  0
 21 22  1  0
 21 23  1  0
 21 24  1  0
 24 25  1  0
 25 26  1  0
 26 27  1  0
 15  1  1  0
 20  1  1  0
  1 28  1  6
  2 29  1  0
  2 30  1  0
  5 31  1  6
  6 32  1  0
  6 33  1  0
  7 34  1  0
  7 35  1  0
  8 36  1  0
  8 37  1  0
  9 38  1  0
  9 39  1  0
 10 40  1  0
 10 41  1  0
 11 42  1  0
 11 43  1  0
 13 44  1  0
 15 45  1  1
 16 46  1  0
 16 47  1  0
 17 48  1  0
 17 49  1  0
 19 50  1  0
 24 51  1  0
 24 52  1  0
 25 53  1  0
 25 54  1  0
 26 55  1  0
 26 56  1  0
 27 57  1  0
 27 58  1  0
 27 59  1  0
M  END
$$$$
