@<TRIPOS>MOLECULE
*****
 33 34 0 0 0
SMALL
GASTEIGER

@<TRIPOS>ATOM
      1 O           3.8930   -2.3401   -0.8823 O.3     1  UNL1       -0.4771
      2 C           2.6791   -1.8040   -0.4997 C.2     1  UNL1        0.3386
      3 O           1.8978   -2.7359   -0.6953 O.2     1  UNL1       -0.2451
      4 C           2.5875   -0.4371   -0.0119 C.ar    1  UNL1        0.0796
      5 C           3.7323    0.3227    0.0502 C.ar    1  UNL1       -0.0460
      6 C           3.7764    1.6111    0.4805 C.ar    1  UNL1       -0.0609
      7 C           2.5893    2.1885    0.8803 C.ar    1  UNL1       -0.0600
      8 C           1.4288    1.4469    0.8274 C.ar    1  UNL1       -0.0400
      9 C           1.4082    0.1458    0.3884 C.ar    1  UNL1        0.0414
     10 N           0.1773   -0.5632    0.3791 N.pl3   1  UNL1       -0.3403
     11 C          -1.1285   -0.0138    0.7394 C.3     1  UNL1        0.0207
     12 C          -2.1143   -1.1172    0.7865 C.3     1  UNL1       -0.0346
     13 C          -2.8537   -1.3290   -0.5140 C.3     1  UNL1       -0.0514
     14 C          -3.6584   -0.0265   -0.6667 C.3     1  UNL1       -0.0529
     15 C          -2.6066    0.9741   -1.0869 C.3     1  UNL1       -0.0514
     16 C          -1.4927    1.1399   -0.1372 C.3     1  UNL1       -0.0346
     17 H           4.2105   -3.2702   -0.6809 H       1  UNL1        0.2954
     18 H           4.6856   -0.1250   -0.2654 H       1  UNL1        0.0626
     19 H           4.7131    2.1567    0.5052 H       1  UNL1        0.0618
     20 H           2.6629    3.2247    1.2198 H       1  UNL1        0.0618
     21 H           0.5865    2.0234    1.1779 H       1  UNL1        0.0636
     22 H           0.1823   -1.5618    0.0948 H       1  UNL1        0.1464
     23 H          -1.0096    0.3672    1.7771 H       1  UNL1        0.0497
     24 H          -1.5720   -2.0505    1.0458 H       1  UNL1        0.0283
     25 H          -2.8945   -0.9867    1.5668 H       1  UNL1        0.0283
     26 H          -3.5553   -2.1569   -0.4359 H       1  UNL1        0.0266
     27 H          -2.1454   -1.3923   -1.3534 H       1  UNL1        0.0266
     28 H          -4.0358    0.2801    0.3273 H       1  UNL1        0.0265
     29 H          -4.4391   -0.1172   -1.4144 H       1  UNL1        0.0265
     30 H          -2.2678    0.7592   -2.1410 H       1  UNL1        0.0266
     31 H          -3.1732    1.9454   -1.1952 H       1  UNL1        0.0266
     32 H          -1.6853    2.0558    0.4676 H       1  UNL1        0.0283
     33 H          -0.5786    1.3862   -0.7630 H       1  UNL1        0.0283
@<TRIPOS>BOND
     1     1     2    1
     2     2     3    2
     3     2     4    1
     4     4     5   ar
     5     5     6   ar
     6     6     7   ar
     7     7     8   ar
     8     8     9   ar
     9     9    10    1
    10    10    11    1
    11    11    12    1
    12    12    13    1
    13    13    14    1
    14    14    15    1
    15    15    16    1
    16     9     4   ar
    17    16    11    1
    18     1    17    1
    19     5    18    1
    20     6    19    1
    21     7    20    1
    22     8    21    1
    23    10    22    1
    24    11    23    1
    25    12    24    1
    26    12    25    1
    27    13    26    1
    28    13    27    1
    29    14    28    1
    30    14    29    1
    31    15    30    1
    32    15    31    1
    33    16    32    1
    34    16    33    1
