
     RDKit          3D

 77 83  0  0  0  0  0  0  0  0999 V2000
   -5.1071    7.1992   -0.4963 C   0  0  0  0  0  0  0  0  0  0  0  0
   -4.3188    6.0818   -0.8149 O   0  0  0  0  0  0  0  0  0  0  0  0
   -3.6814    5.3537    0.1640 C   0  0  0  0  0  0  0  0  0  0  0  0
   -2.9064    4.2561   -0.1456 C   0  0  0  0  0  0  0  0  0  0  0  0
   -2.2634    3.5190    0.8249 C   0  0  0  0  0  0  0  0  0  0  0  0
   -1.4668    2.3884    0.5256 N   0  0  0  0  0  0  0  0  0  0  0  0
   -0.0670    2.3973    0.2274 C   0  0  0  0  0  0  0  0  0  0  0  0
    0.6307    3.4098   -0.0214 O   0  0  0  0  0  0  0  0  0  0  0  0
    0.4616    1.0785    0.2463 N   0  0  0  0  0  0  0  0  0  0  0  0
    1.7984    0.6522    0.0063 C   0  0  0  0  0  0  0  0  0  0  0  0
    2.2403    0.3213   -1.2586 C   0  0  0  0  0  0  0  0  0  0  0  0
    3.5671   -0.0842   -1.3849 C   0  0  0  0  0  0  0  0  0  0  0  0
    4.4206   -0.1600   -0.3090 C   0  0  0  0  0  0  0  0  0  0  0  0
    5.8043   -0.5800   -0.4224 C   0  0  0  0  0  0  0  0  0  0  0  0
    6.5888   -0.3504   -1.5278 C   0  0  0  0  0  0  0  0  0  0  0  0
    7.9124   -0.7716   -1.5939 C   0  0  0  0  0  0  0  0  0  0  0  0
    8.4831   -1.4425   -0.5339 C   0  0  0  0  0  0  0  0  0  0  0  0
    9.8736   -1.8966   -0.5765 C   0  0  0  0  0  0  0  0  0  0  0  0
   10.5072   -2.5699    0.4441 C   0  0  0  0  0  0  0  0  0  0  0  0
   11.7966   -2.8301    0.0481 C   0  0  0  0  0  0  0  0  0  0  0  0
   11.9142   -2.3100   -1.2002 N   0  0  0  0  0  0  0  0  0  0  0  0
   10.7636   -1.7555   -1.5648 N   0  0  0  0  0  0  0  0  0  0  0  0
    7.6925   -1.6683    0.5675 C   0  0  0  0  0  0  0  0  0  0  0  0
    6.3900   -1.2584    0.6428 C   0  0  0  0  0  0  0  0  0  0  0  0
    3.9374    0.1793    0.9331 C   0  0  0  0  0  0  0  0  0  0  0  0
    2.6336    0.5876    1.1178 C   0  0  0  0  0  0  0  0  0  0  0  0
   -0.6251    0.2207    0.5621 C   0  0  0  0  0  0  0  0  0  0  0  0
   -0.4919   -0.9848    0.8715 O   0  0  0  0  0  0  0  0  0  0  0  0
   -1.8709    0.9880    0.4592 C   0  0  0  0  0  0  0  0  0  0  0  0
   -2.8061    0.7364    1.6237 C   0  0  0  0  0  0  0  0  0  0  0  0
   -3.1866   -0.7129    1.6728 C   0  0  0  0  0  0  0  0  0  0  0  0
   -3.5946   -1.2180    0.3473 N   0  0  0  0  0  0  0  0  0  0  0  0
   -4.6704   -2.1169    0.5869 C   0  0  0  0  0  0  0  0  0  0  0  0
   -5.2142   -2.8251   -0.5728 C   0  0  0  0  0  0  0  0  0  0  0  0
   -4.7344   -2.7579   -1.8111 N   0  0  0  0  0  0  0  0  0  0  0  0
   -5.2857   -3.4391   -2.8074 C   0  0  0  0  0  0  0  0  0  0  0  0
   -6.3756   -4.2391   -2.5883 C   0  0  0  0  0  0  0  0  0  0  0  0
   -6.9224   -4.3542   -1.3313 C   0  0  0  0  0  0  0  0  0  0  0  0
   -6.3160   -3.6285   -0.3294 C   0  0  0  0  0  0  0  0  0  0  0  0
   -6.9136   -3.7537    1.0458 C   0  0  0  0  0  0  0  0  0  0  0  0
   -3.9142   -0.1000   -0.5186 C   0  0  0  0  0  0  0  0  0  0  0  0
   -2.6272    0.6499   -0.7912 C   0  0  0  0  0  0  0  0  0  0  0  0
   -2.4244    3.9181    2.0952 N   0  0  0  0  0  0  0  0  0  0  0  0
   -3.1944    5.0070    2.3916 C   0  0  0  0  0  0  0  0  0  0  0  0
   -3.8136    5.7147    1.4437 N   0  0  0  0  0  0  0  0  0  0  0  0
   -5.8329    6.9010    0.3009 H   0  0  0  0  0  0  0  0  0  0  0  0
   -5.6707    7.6000   -1.3363 H   0  0  0  0  0  0  0  0  0  0  0  0
   -4.4886    8.0310   -0.0780 H   0  0  0  0  0  0  0  0  0  0  0  0
   -2.8074    3.9764   -1.1909 H   0  0  0  0  0  0  0  0  0  0  0  0
    1.5859    0.3740   -2.1171 H   0  0  0  0  0  0  0  0  0  0  0  0
    3.9235   -0.3428   -2.3551 H   0  0  0  0  0  0  0  0  0  0  0  0
    6.1250    0.1823   -2.3621 H   0  0  0  0  0  0  0  0  0  0  0  0
    8.5019   -0.5665   -2.4972 H   0  0  0  0  0  0  0  0  0  0  0  0
   10.1076   -2.8638    1.4014 H   0  0  0  0  0  0  0  0  0  0  0  0
   12.5604   -3.3443    0.6154 H   0  0  0  0  0  0  0  0  0  0  0  0
   12.8110   -2.3775   -1.7286 H   0  0  0  0  0  0  0  0  0  0  0  0
    8.1497   -2.1966    1.3961 H   0  0  0  0  0  0  0  0  0  0  0  0
    5.8251   -1.4652    1.5307 H   0  0  0  0  0  0  0  0  0  0  0  0
    4.5859    0.1296    1.7950 H   0  0  0  0  0  0  0  0  0  0  0  0
    2.2660    0.8526    2.1041 H   0  0  0  0  0  0  0  0  0  0  0  0
   -2.3449    0.9997    2.5927 H   0  0  0  0  0  0  0  0  0  0  0  0
   -3.7062    1.3365    1.4710 H   0  0  0  0  0  0  0  0  0  0  0  0
   -2.4364   -1.3856    2.0880 H   0  0  0  0  0  0  0  0  0  0  0  0
   -4.0656   -0.7722    2.3817 H   0  0  0  0  0  0  0  0  0  0  0  0
   -5.5046   -1.5301    1.0431 H   0  0  0  0  0  0  0  0  0  0  0  0
   -4.3740   -2.8520    1.3553 H   0  0  0  0  0  0  0  0  0  0  0  0
   -4.8809   -3.3779   -3.8336 H   0  0  0  0  0  0  0  0  0  0  0  0
   -6.8540   -4.8145   -3.3912 H   0  0  0  0  0  0  0  0  0  0  0  0
   -7.7796   -4.9913   -1.1924 H   0  0  0  0  0  0  0  0  0  0  0  0
   -7.4699   -4.7077    1.1394 H   0  0  0  0  0  0  0  0  0  0  0  0
   -6.1188   -3.7950    1.8267 H   0  0  0  0  0  0  0  0  0  0  0  0
   -7.5819   -2.9101    1.2800 H   0  0  0  0  0  0  0  0  0  0  0  0
   -4.2473   -0.4967   -1.4886 H   0  0  0  0  0  0  0  0  0  0  0  0
   -4.6938    0.5538   -0.1325 H   0  0  0  0  0  0  0  0  0  0  0  0
   -2.8999    1.5952   -1.2992 H   0  0  0  0  0  0  0  0  0  0  0  0
   -1.9846    0.0795   -1.4971 H   0  0  0  0  0  0  0  0  0  0  0  0
   -3.3239    5.3271    3.4119 H   0  0  0  0  0  0  0  0  0  0  0  0
  1  2  1  0
  2  3  1  0
  3  4  2  0
  4  5  1  0
  5  6  1  0
  6  7  1  0
  7  8  2  0
  7  9  1  0
  9 10  1  0
 10 11  2  0
 11 12  1  0
 12 13  2  0
 13 14  1  0
 14 15  2  0
 15 16  1  0
 16 17  2  0
 17 18  1  0
 18 19  1  0
 19 20  2  0
 20 21  1  0
 21 22  1  0
 17 23  1  0
 23 24  2  0
 13 25  1  0
 25 26  2  0
  9 27  1  0
 27 28  2  0
 27 29  1  0
 29 30  1  0
 30 31  1  0
 31 32  1  0
 32 33  1  0
 33 34  1  0
 34 35  2  0
 35 36  1  0
 36 37  2  0
 37 38  1  0
 38 39  2  0
 39 40  1  0
 32 41  1  0
 41 42  1  0
  5 43  2  0
 43 44  1  0
 44 45  2  0
 45  3  1  0
 29  6  1  0
 39 34  1  0
 26 10  1  0
 42 29  1  0
 24 14  1  0
 22 18  2  0
  1 46  1  0
  1 47  1  0
  1 48  1  0
  4 49  1  0
 11 50  1  0
 12 51  1  0
 15 52  1  0
 16 53  1  0
 19 54  1  0
 20 55  1  0
 21 56  1  0
 23 57  1  0
 24 58  1  0
 25 59  1  0
 26 60  1  0
 30 61  1  0
 30 62  1  0
 31 63  1  0
 31 64  1  0
 33 65  1  0
 33 66  1  0
 36 67  1  0
 37 68  1  0
 38 69  1  0
 40 70  1  0
 40 71  1  0
 40 72  1  0
 41 73  1  0
 41 74  1  0
 42 75  1  0
 42 76  1  0
 44 77  1  0
M  END
$$$$
