@<TRIPOS>MOLECULE
*****
 77 83 0 0 0
SMALL
GASTEIGER

@<TRIPOS>ATOM
      1 C          -5.1071    7.1992   -0.4963 C.3     1  UNL1        0.0804
      2 O          -4.3188    6.0818   -0.8149 O.3     1  UNL1       -0.4795
      3 C          -3.6814    5.3537    0.1640 C.ar    1  UNL1        0.2191
      4 C          -2.9064    4.2561   -0.1456 C.ar    1  UNL1        0.0404
      5 C          -2.2634    3.5190    0.8249 C.ar    1  UNL1        0.1364
      6 N          -1.4668    2.3884    0.5256 N.am    1  UNL1       -0.2240
      7 C          -0.0670    2.3973    0.2274 C.2     1  UNL1        0.3219
      8 O           0.6307    3.4098   -0.0214 O.2     1  UNL1       -0.2512
      9 N           0.4616    1.0785    0.2463 N.am    1  UNL1       -0.1920
     10 C           1.7984    0.6522    0.0063 C.ar    1  UNL1        0.0455
     11 C           2.2403    0.3213   -1.2586 C.ar    1  UNL1       -0.0392
     12 C           3.5671   -0.0842   -1.3849 C.ar    1  UNL1       -0.0523
     13 C           4.4206   -0.1600   -0.3090 C.ar    1  UNL1       -0.0178
     14 C           5.8043   -0.5800   -0.4224 C.ar    1  UNL1       -0.0178
     15 C           6.5888   -0.3504   -1.5278 C.ar    1  UNL1       -0.0534
     16 C           7.9124   -0.7716   -1.5939 C.ar    1  UNL1       -0.0519
     17 C           8.4831   -1.4425   -0.5339 C.ar    1  UNL1        0.0021
     18 C           9.8736   -1.8966   -0.5765 C.ar    1  UNL1        0.0925
     19 C          10.5072   -2.5699    0.4441 C.ar    1  UNL1       -0.0165
     20 C          11.7966   -2.8301    0.0481 C.ar    1  UNL1        0.0229
     21 N          11.9142   -2.3100   -1.2002 N.ar    1  UNL1       -0.2842
     22 N          10.7636   -1.7555   -1.5648 N.ar    1  UNL1       -0.1739
     23 C           7.6925   -1.6683    0.5675 C.ar    1  UNL1       -0.0519
     24 C           6.3900   -1.2584    0.6428 C.ar    1  UNL1       -0.0534
     25 C           3.9374    0.1793    0.9331 C.ar    1  UNL1       -0.0523
     26 C           2.6336    0.5876    1.1178 C.ar    1  UNL1       -0.0392
     27 C          -0.6251    0.2207    0.5621 C.2     1  UNL1        0.2516
     28 O          -0.4919   -0.9848    0.8715 O.2     1  UNL1       -0.2724
     29 C          -1.8709    0.9880    0.4592 C.3     1  UNL1        0.1240
     30 C          -2.8061    0.7364    1.6237 C.3     1  UNL1       -0.0095
     31 C          -3.1866   -0.7129    1.6728 C.3     1  UNL1        0.0017
     32 N          -3.5946   -1.2180    0.3473 N.3     1  UNL1       -0.2965
     33 C          -4.6704   -2.1169    0.5869 C.3     1  UNL1        0.0415
     34 C          -5.2142   -2.8251   -0.5728 C.ar    1  UNL1        0.0581
     35 N          -4.7344   -2.7579   -1.8111 N.ar    1  UNL1       -0.2583
     36 C          -5.2857   -3.4391   -2.8074 C.ar    1  UNL1        0.0279
     37 C          -6.3756   -4.2391   -2.5883 C.ar    1  UNL1       -0.0433
     38 C          -6.9224   -4.3542   -1.3313 C.ar    1  UNL1       -0.0557
     39 C          -6.3160   -3.6285   -0.3294 C.ar    1  UNL1       -0.0279
     40 C          -6.9136   -3.7537    1.0458 C.3     1  UNL1       -0.0380
     41 C          -3.9142   -0.1000   -0.5186 C.3     1  UNL1        0.0017
     42 C          -2.6272    0.6499   -0.7912 C.3     1  UNL1       -0.0095
     43 N          -2.4244    3.9181    2.0952 N.ar    1  UNL1       -0.2200
     44 C          -3.1944    5.0070    2.3916 C.ar    1  UNL1        0.1219
     45 N          -3.8136    5.7147    1.4437 N.ar    1  UNL1       -0.2013
     46 H          -5.8329    6.9010    0.3009 H       1  UNL1        0.0660
     47 H          -5.6707    7.6000   -1.3363 H       1  UNL1        0.0660
     48 H          -4.4886    8.0310   -0.0780 H       1  UNL1        0.0660
     49 H          -2.8074    3.9764   -1.1909 H       1  UNL1        0.0705
     50 H           1.5859    0.3740   -2.1171 H       1  UNL1        0.0636
     51 H           3.9235   -0.3428   -2.3551 H       1  UNL1        0.0624
     52 H           6.1250    0.1823   -2.3621 H       1  UNL1        0.0624
     53 H           8.5019   -0.5665   -2.4972 H       1  UNL1        0.0624
     54 H          10.1076   -2.8638    1.4014 H       1  UNL1        0.0654
     55 H          12.5604   -3.3443    0.6154 H       1  UNL1        0.0824
     56 H          12.8110   -2.3775   -1.7286 H       1  UNL1        0.1882
     57 H           8.1497   -2.1966    1.3961 H       1  UNL1        0.0624
     58 H           5.8251   -1.4652    1.5307 H       1  UNL1        0.0624
     59 H           4.5859    0.1296    1.7950 H       1  UNL1        0.0624
     60 H           2.2660    0.8526    2.1041 H       1  UNL1        0.0636
     61 H          -2.3449    0.9997    2.5927 H       1  UNL1        0.0303
     62 H          -3.7062    1.3365    1.4710 H       1  UNL1        0.0303
     63 H          -2.4364   -1.3856    2.0880 H       1  UNL1        0.0427
     64 H          -4.0656   -0.7722    2.3817 H       1  UNL1        0.0427
     65 H          -5.5046   -1.5301    1.0431 H       1  UNL1        0.0491
     66 H          -4.3740   -2.8520    1.3553 H       1  UNL1        0.0491
     67 H          -4.8809   -3.3779   -3.8336 H       1  UNL1        0.0829
     68 H          -6.8540   -4.8145   -3.3912 H       1  UNL1        0.0633
     69 H          -7.7796   -4.9913   -1.1924 H       1  UNL1        0.0621
     70 H          -7.4699   -4.7077    1.1394 H       1  UNL1        0.0278
     71 H          -6.1188   -3.7950    1.8267 H       1  UNL1        0.0278
     72 H          -7.5819   -2.9101    1.2800 H       1  UNL1        0.0278
     73 H          -4.2473   -0.4967   -1.4886 H       1  UNL1        0.0427
     74 H          -4.6938    0.5538   -0.1325 H       1  UNL1        0.0427
     75 H          -2.8999    1.5952   -1.2992 H       1  UNL1        0.0303
     76 H          -1.9846    0.0795   -1.4971 H       1  UNL1        0.0303
     77 H          -3.3239    5.3271    3.4119 H       1  UNL1        0.1049
@<TRIPOS>BOND
     1     1     2    1
     2     2     3    1
     3     3     4   ar
     4     4     5   ar
     5     5     6    1
     6     6     7   am
     7     7     8    2
     8     7     9   am
     9     9    10    1
    10    10    11   ar
    11    11    12   ar
    12    12    13   ar
    13    13    14    1
    14    14    15   ar
    15    15    16   ar
    16    16    17   ar
    17    17    18    1
    18    18    19   ar
    19    19    20   ar
    20    20    21   ar
    21    21    22   ar
    22    17    23   ar
    23    23    24   ar
    24    13    25   ar
    25    25    26   ar
    26     9    27   am
    27    27    28    2
    28    27    29    1
    29    29    30    1
    30    30    31    1
    31    31    32    1
    32    32    33    1
    33    33    34    1
    34    34    35   ar
    35    35    36   ar
    36    36    37   ar
    37    37    38   ar
    38    38    39   ar
    39    39    40    1
    40    32    41    1
    41    41    42    1
    42     5    43   ar
    43    43    44   ar
    44    44    45   ar
    45    45     3   ar
    46    29     6    1
    47    39    34   ar
    48    26    10   ar
    49    42    29    1
    50    24    14   ar
    51    22    18   ar
    52     1    46    1
    53     1    47    1
    54     1    48    1
    55     4    49    1
    56    11    50    1
    57    12    51    1
    58    15    52    1
    59    16    53    1
    60    19    54    1
    61    20    55    1
    62    21    56    1
    63    23    57    1
    64    24    58    1
    65    25    59    1
    66    26    60    1
    67    30    61    1
    68    30    62    1
    69    31    63    1
    70    31    64    1
    71    33    65    1
    72    33    66    1
    73    36    67    1
    74    37    68    1
    75    38    69    1
    76    40    70    1
    77    40    71    1
    78    40    72    1
    79    41    73    1
    80    41    74    1
    81    42    75    1
    82    42    76    1
    83    44    77    1
