
     RDKit          3D

 94 99  0  0  0  0  0  0  0  0999 V2000
    8.3885    6.0962    2.3599 C   0  0  0  0  0  0  0  0  0  0  0  0
    8.0390    4.7869    2.7868 O   0  0  0  0  0  0  0  0  0  0  0  0
    7.1732    4.0136    1.9974 C   0  0  0  0  0  0  0  0  0  0  0  0
    6.8230    2.7476    2.3933 C   0  0  0  0  0  0  0  0  0  0  0  0
    5.9921    2.0080    1.6362 N   0  0  0  0  0  0  0  0  0  0  0  0
    5.4893    2.4696    0.4967 C   0  0  0  0  0  0  0  0  0  0  0  0
    4.5776    1.6778   -0.3413 C   0  0  0  0  0  0  0  0  0  0  0  0
    4.2115    0.4241    0.0092 C   0  0  0  0  0  0  0  0  0  0  0  0
    3.3291   -0.3095   -0.8027 C   0  0  0  0  0  0  0  0  0  0  0  0
    2.8285    0.2250   -1.9524 C   0  0  0  0  0  0  0  0  0  0  0  0
    1.8938   -0.4991   -2.8433 C   0  0  0  0  0  0  0  0  0  0  0  0
    0.8382   -1.1461   -2.0475 N   0  0  0  0  0  0  0  0  0  0  0  0
    0.7230   -2.4626   -1.7006 C   0  0  0  0  0  0  0  0  0  0  0  0
    1.4903   -3.5118   -2.3280 C   0  0  0  0  0  0  0  0  0  0  0  0
    2.4754   -4.3866   -1.7429 C   0  0  0  0  0  0  0  0  0  0  0  0
    2.9792   -5.2865   -2.9629 C   0  0  0  0  0  0  0  0  0  0  0  0
    2.0021   -5.4485   -0.7665 C   0  0  0  0  0  0  0  0  0  0  0  0
    3.7346   -3.8120   -1.2420 C   0  0  0  0  0  0  0  0  0  0  0  0
    4.1633   -3.8924   -0.0679 O   0  0  0  0  0  0  0  0  0  0  0  0
    4.5201   -3.1079   -2.1744 O   0  0  0  0  0  0  0  0  0  0  0  0
   -0.3653   -2.5948   -0.8386 C   0  0  0  0  0  0  0  0  0  0  0  0
   -0.8976   -4.0342    0.0498 S   0  0  0  0  0  0  0  0  0  0  0  0
   -0.4578   -4.1146    1.7688 C   0  0  0  0  0  0  0  0  0  0  0  0
   -1.4647   -3.1989    2.5213 C   0  0  0  0  0  0  0  0  0  0  0  0
   -0.6699   -5.4844    2.3584 C   0  0  0  0  0  0  0  0  0  0  0  0
    0.8878   -3.5102    2.1356 C   0  0  0  0  0  0  0  0  0  0  0  0
   -0.9244   -1.3197   -0.6744 C   0  0  0  0  0  0  0  0  0  0  0  0
   -1.9842   -0.8167    0.0497 C   0  0  0  0  0  0  0  0  0  0  0  0
   -2.3186    0.5510    0.0561 C   0  0  0  0  0  0  0  0  0  0  0  0
   -3.3827    0.9785    0.8115 O   0  0  0  0  0  0  0  0  0  0  0  0
   -3.9150    2.2148    1.0030 C   0  0  0  0  0  0  0  0  0  0  0  0
   -4.5184    2.9354   -0.1398 C   0  0  2  0  0  0  0  0  0  0  0  0
   -5.1713    4.2202    0.4303 C   0  0  0  0  0  0  0  0  0  0  0  0
   -6.5538    3.7809    0.7670 C   0  0  0  0  0  0  0  0  0  0  0  0
   -7.4507    4.3689    1.6056 C   0  0  0  0  0  0  0  0  0  0  0  0
   -8.6831    3.7820    1.7822 C   0  0  0  0  0  0  0  0  0  0  0  0
   -9.0161    2.6161    1.1262 C   0  0  0  0  0  0  0  0  0  0  0  0
   -8.0694    2.0641    0.2897 C   0  0  0  0  0  0  0  0  0  0  0  0
   -6.8235    2.6038    0.0722 C   0  0  0  0  0  0  0  0  0  0  0  0
   -5.6822    2.2562   -0.7271 N   0  0  0  0  0  0  0  0  0  0  0  0
   -5.6869    1.4395   -1.8704 C   0  0  0  0  0  0  0  0  0  0  0  0
   -6.9278    0.8582   -2.4454 C   0  0  0  0  0  0  0  0  0  0  0  0
   -4.5604    1.2079   -2.4162 O   0  0  0  0  0  0  0  0  0  0  0  0
   -1.5270    1.3694   -0.7099 C   0  0  0  0  0  0  0  0  0  0  0  0
   -0.4681    0.8701   -1.4382 C   0  0  0  0  0  0  0  0  0  0  0  0
   -0.1398   -0.4940   -1.4368 C   0  0  0  0  0  0  0  0  0  0  0  0
    3.2206    1.5122   -2.2899 C   0  0  0  0  0  0  0  0  0  0  0  0
    4.0877    2.2425   -1.4973 C   0  0  0  0  0  0  0  0  0  0  0  0
    5.8406    3.7119    0.1192 N   0  0  0  0  0  0  0  0  0  0  0  0
    6.6587    4.4957    0.8230 C   0  0  0  0  0  0  0  0  0  0  0  0
    9.0131    5.9937    1.4386 H   0  0  0  0  0  0  0  0  0  0  0  0
    8.9787    6.6320    3.1020 H   0  0  0  0  0  0  0  0  0  0  0  0
    7.4584    6.6057    2.0649 H   0  0  0  0  0  0  0  0  0  0  0  0
    7.1990    2.3118    3.3145 H   0  0  0  0  0  0  0  0  0  0  0  0
    4.5734   -0.0674    0.9158 H   0  0  0  0  0  0  0  0  0  0  0  0
    3.0558   -1.2815   -0.4697 H   0  0  0  0  0  0  0  0  0  0  0  0
    1.4046    0.2250   -3.5493 H   0  0  0  0  0  0  0  0  0  0  0  0
    2.4214   -1.2085   -3.4659 H   0  0  0  0  0  0  0  0  0  0  0  0
    1.9488   -3.1425   -3.3223 H   0  0  0  0  0  0  0  0  0  0  0  0
    0.6541   -4.1903   -2.8114 H   0  0  0  0  0  0  0  0  0  0  0  0
    3.9019   -5.7918   -2.6438 H   0  0  0  0  0  0  0  0  0  0  0  0
    3.1991   -4.6142   -3.8060 H   0  0  0  0  0  0  0  0  0  0  0  0
    2.1813   -5.9903   -3.2294 H   0  0  0  0  0  0  0  0  0  0  0  0
    1.9805   -5.1487    0.2627 H   0  0  0  0  0  0  0  0  0  0  0  0
    1.0655   -5.8974   -1.1501 H   0  0  0  0  0  0  0  0  0  0  0  0
    2.7475   -6.3192   -0.8393 H   0  0  0  0  0  0  0  0  0  0  0  0
    5.2027   -2.4327   -1.8547 H   0  0  0  0  0  0  0  0  0  0  0  0
   -1.5117   -3.5534    3.5770 H   0  0  0  0  0  0  0  0  0  0  0  0
   -2.4231   -3.3491    1.9920 H   0  0  0  0  0  0  0  0  0  0  0  0
   -1.1005   -2.1789    2.3909 H   0  0  0  0  0  0  0  0  0  0  0  0
   -1.3347   -5.4512    3.2679 H   0  0  0  0  0  0  0  0  0  0  0  0
    0.2822   -5.9243    2.7587 H   0  0  0  0  0  0  0  0  0  0  0  0
   -1.0919   -6.1962    1.6094 H   0  0  0  0  0  0  0  0  0  0  0  0
    1.3205   -2.8765    1.3670 H   0  0  0  0  0  0  0  0  0  0  0  0
    1.6100   -4.3184    2.4019 H   0  0  0  0  0  0  0  0  0  0  0  0
    0.7648   -2.9203    3.0859 H   0  0  0  0  0  0  0  0  0  0  0  0
   -2.5979   -1.4647    0.6202 H   0  0  0  0  0  0  0  0  0  0  0  0
   -3.1644    2.9240    1.4636 H   0  0  0  0  0  0  0  0  0  0  0  0
   -4.6994    2.1358    1.8172 H   0  0  0  0  0  0  0  0  0  0  0  0
   -3.8591    3.2497   -0.9518 H   0  0  0  0  0  0  0  0  0  0  0  0
   -4.6851    4.5066    1.3800 H   0  0  0  0  0  0  0  0  0  0  0  0
   -5.1909    4.9974   -0.3320 H   0  0  0  0  0  0  0  0  0  0  0  0
   -7.2222    5.2875    2.1399 H   0  0  0  0  0  0  0  0  0  0  0  0
   -9.4363    4.2213    2.4508 H   0  0  0  0  0  0  0  0  0  0  0  0
   -9.9927    2.1397    1.2581 H   0  0  0  0  0  0  0  0  0  0  0  0
   -8.3029    1.1337   -0.2380 H   0  0  0  0  0  0  0  0  0  0  0  0
   -7.7384    1.6078   -2.4735 H   0  0  0  0  0  0  0  0  0  0  0  0
   -7.1959   -0.0722   -1.9403 H   0  0  0  0  0  0  0  0  0  0  0  0
   -6.6914    0.6791   -3.5368 H   0  0  0  0  0  0  0  0  0  0  0  0
   -1.7354    2.4397   -0.7284 H   0  0  0  0  0  0  0  0  0  0  0  0
    0.1445    1.5143   -2.0366 H   0  0  0  0  0  0  0  0  0  0  0  0
    2.8476    1.9555   -3.1861 H   0  0  0  0  0  0  0  0  0  0  0  0
    4.4005    3.2409   -1.7402 H   0  0  0  0  0  0  0  0  0  0  0  0
    6.9093    5.4909    0.4699 H   0  0  0  0  0  0  0  0  0  0  0  0
  1  2  1  0
  2  3  1  0
  3  4  2  0
  4  5  1  0
  5  6  2  0
  6  7  1  0
  7  8  2  0
  8  9  1  0
  9 10  2  0
 10 11  1  0
 11 12  1  0
 12 13  1  0
 13 14  1  0
 14 15  1  0
 15 16  1  0
 15 17  1  0
 15 18  1  0
 18 19  2  0
 18 20  1  0
 13 21  2  0
 21 22  1  0
 22 23  1  0
 23 24  1  0
 23 25  1  0
 23 26  1  0
 21 27  1  0
 27 28  2  0
 28 29  1  0
 29 30  1  0
 30 31  1  0
 31 32  1  0
 32 33  1  0
 33 34  1  0
 34 35  2  0
 35 36  1  0
 36 37  2  0
 37 38  1  0
 38 39  2  0
 39 40  1  0
 40 41  1  0
 41 42  1  0
 41 43  2  0
 29 44  2  0
 44 45  1  0
 45 46  2  0
 10 47  1  0
 47 48  2  0
  6 49  1  0
 49 50  2  0
 50  3  1  0
 48  7  1  0
 46 12  1  0
 46 27  1  0
 40 32  1  0
 39 34  1  0
  1 51  1  0
  1 52  1  0
  1 53  1  0
  4 54  1  0
  8 55  1  0
  9 56  1  0
 11 57  1  0
 11 58  1  0
 14 59  1  0
 14 60  1  0
 16 61  1  0
 16 62  1  0
 16 63  1  0
 17 64  1  0
 17 65  1  0
 17 66  1  0
 20 67  1  0
 24 68  1  0
 24 69  1  0
 24 70  1  0
 25 71  1  0
 25 72  1  0
 25 73  1  0
 26 74  1  0
 26 75  1  0
 26 76  1  0
 28 77  1  0
 31 78  1  0
 31 79  1  0
 32 80  1  6
 33 81  1  0
 33 82  1  0
 35 83  1  0
 36 84  1  0
 37 85  1  0
 38 86  1  0
 42 87  1  0
 42 88  1  0
 42 89  1  0
 44 90  1  0
 45 91  1  0
 47 92  1  0
 48 93  1  0
 50 94  1  0
M  END
$$$$
