@<TRIPOS>MOLECULE
*****
 94 99 0 0 0
SMALL
GASTEIGER

@<TRIPOS>ATOM
      1 C           8.3885    6.0962    2.3599 C.3     1  UNL1        0.0789
      2 O           8.0390    4.7869    2.7868 O.3     1  UNL1       -0.4921
      3 C           7.1732    4.0136    1.9974 C.ar    1  UNL1        0.1561
      4 C           6.8230    2.7476    2.3933 C.ar    1  UNL1        0.0731
      5 N           5.9921    2.0080    1.6362 N.ar    1  UNL1       -0.2320
      6 C           5.4893    2.4696    0.4967 C.ar    1  UNL1        0.1599
      7 C           4.5776    1.6778   -0.3413 C.ar    1  UNL1        0.0191
      8 C           4.2115    0.4241    0.0092 C.ar    1  UNL1       -0.0507
      9 C           3.3291   -0.3095   -0.8027 C.ar    1  UNL1       -0.0562
     10 C           2.8285    0.2250   -1.9524 C.ar    1  UNL1       -0.0277
     11 C           1.8938   -0.4991   -2.8433 C.3     1  UNL1        0.0486
     12 N           0.8382   -1.1461   -2.0475 N.ar    1  UNL1       -0.3383
     13 C           0.7230   -2.4626   -1.7006 C.ar    1  UNL1        0.0346
     14 C           1.4903   -3.5118   -2.3280 C.3     1  UNL1        0.0040
     15 C           2.4754   -4.3866   -1.7429 C.3     1  UNL1        0.0673
     16 C           2.9792   -5.2865   -2.9629 C.3     1  UNL1       -0.0493
     17 C           2.0021   -5.4485   -0.7665 C.3     1  UNL1       -0.0493
     18 C           3.7346   -3.8120   -1.2420 C.2     1  UNL1        0.3108
     19 O           4.1633   -3.8924   -0.0679 O.2     1  UNL1       -0.2504
     20 O           4.5201   -3.1079   -2.1744 O.3     1  UNL1       -0.4802
     21 C          -0.3653   -2.5948   -0.8386 C.ar    1  UNL1        0.0370
     22 S          -0.8976   -4.0342    0.0498 S.3     1  UNL1       -0.1169
     23 C          -0.4578   -4.1146    1.7688 C.3     1  UNL1        0.0129
     24 C          -1.4647   -3.1989    2.5213 C.3     1  UNL1       -0.0506
     25 C          -0.6699   -5.4844    2.3584 C.3     1  UNL1       -0.0506
     26 C           0.8878   -3.5102    2.1356 C.3     1  UNL1       -0.0506
     27 C          -0.9244   -1.3197   -0.6744 C.ar    1  UNL1        0.0170
     28 C          -1.9842   -0.8167    0.0497 C.ar    1  UNL1       -0.0097
     29 C          -2.3186    0.5510    0.0561 C.ar    1  UNL1        0.1213
     30 O          -3.3827    0.9785    0.8115 O.3     1  UNL1       -0.4901
     31 C          -3.9150    2.2148    1.0030 C.3     1  UNL1        0.1088
     32 C          -4.5184    2.9354   -0.1398 C.3     1  UNL1        0.0691
     33 C          -5.1713    4.2202    0.4303 C.3     1  UNL1       -0.0037
     34 C          -6.5538    3.7809    0.7670 C.ar    1  UNL1       -0.0241
     35 C          -7.4507    4.3689    1.6056 C.ar    1  UNL1       -0.0567
     36 C          -8.6831    3.7820    1.7822 C.ar    1  UNL1       -0.0614
     37 C          -9.0161    2.6161    1.1262 C.ar    1  UNL1       -0.0600
     38 C          -8.0694    2.0641    0.2897 C.ar    1  UNL1       -0.0400
     39 C          -6.8235    2.6038    0.0722 C.ar    1  UNL1        0.0399
     40 N          -5.6822    2.2562   -0.7271 N.am    1  UNL1       -0.2648
     41 C          -5.6869    1.4395   -1.8704 C.2     1  UNL1        0.2170
     42 C          -6.9278    0.8582   -2.4454 C.3     1  UNL1        0.0127
     43 O          -4.5604    1.2079   -2.4162 O.2     1  UNL1       -0.2755
     44 C          -1.5270    1.3694   -0.7099 C.ar    1  UNL1       -0.0180
     45 C          -0.4681    0.8701   -1.4382 C.ar    1  UNL1       -0.0341
     46 C          -0.1398   -0.4940   -1.4368 C.ar    1  UNL1        0.0509
     47 C           3.2206    1.5122   -2.2899 C.ar    1  UNL1       -0.0562
     48 C           4.0877    2.2425   -1.4973 C.ar    1  UNL1       -0.0507
     49 N           5.8406    3.7119    0.1192 N.ar    1  UNL1       -0.2320
     50 C           6.6587    4.4957    0.8230 C.ar    1  UNL1        0.0731
     51 H           9.0131    5.9937    1.4386 H       1  UNL1        0.0660
     52 H           8.9787    6.6320    3.1020 H       1  UNL1        0.0660
     53 H           7.4584    6.6057    2.0649 H       1  UNL1        0.0660
     54 H           7.1990    2.3118    3.3145 H       1  UNL1        0.0868
     55 H           4.5734   -0.0674    0.9158 H       1  UNL1        0.0625
     56 H           3.0558   -1.2815   -0.4697 H       1  UNL1        0.0621
     57 H           1.4046    0.2250   -3.5493 H       1  UNL1        0.0541
     58 H           2.4214   -1.2085   -3.4659 H       1  UNL1        0.0541
     59 H           1.9488   -3.1425   -3.3223 H       1  UNL1        0.0338
     60 H           0.6541   -4.1903   -2.8114 H       1  UNL1        0.0338
     61 H           3.9019   -5.7918   -2.6438 H       1  UNL1        0.0240
     62 H           3.1991   -4.6142   -3.8060 H       1  UNL1        0.0240
     63 H           2.1813   -5.9903   -3.2294 H       1  UNL1        0.0240
     64 H           1.9805   -5.1487    0.2627 H       1  UNL1        0.0240
     65 H           1.0655   -5.8974   -1.1501 H       1  UNL1        0.0240
     66 H           2.7475   -6.3192   -0.8393 H       1  UNL1        0.0240
     67 H           5.2027   -2.4327   -1.8547 H       1  UNL1        0.2951
     68 H          -1.5117   -3.5534    3.5770 H       1  UNL1        0.0243
     69 H          -2.4231   -3.3491    1.9920 H       1  UNL1        0.0243
     70 H          -1.1005   -2.1789    2.3909 H       1  UNL1        0.0243
     71 H          -1.3347   -5.4512    3.2679 H       1  UNL1        0.0243
     72 H           0.2822   -5.9243    2.7587 H       1  UNL1        0.0243
     73 H          -1.0919   -6.1962    1.6094 H       1  UNL1        0.0243
     74 H           1.3205   -2.8765    1.3670 H       1  UNL1        0.0243
     75 H           1.6100   -4.3184    2.4019 H       1  UNL1        0.0243
     76 H           0.7648   -2.9203    3.0859 H       1  UNL1        0.0243
     77 H          -2.5979   -1.4647    0.6202 H       1  UNL1        0.0661
     78 H          -3.1644    2.9240    1.4636 H       1  UNL1        0.0715
     79 H          -4.6994    2.1358    1.8172 H       1  UNL1        0.0715
     80 H          -3.8591    3.2497   -0.9518 H       1  UNL1        0.0541
     81 H          -4.6851    4.5066    1.3800 H       1  UNL1        0.0333
     82 H          -5.1909    4.9974   -0.3320 H       1  UNL1        0.0333
     83 H          -7.2222    5.2875    2.1399 H       1  UNL1        0.0621
     84 H          -9.4363    4.2213    2.4508 H       1  UNL1        0.0618
     85 H          -9.9927    2.1397    1.2581 H       1  UNL1        0.0618
     86 H          -8.3029    1.1337   -0.2380 H       1  UNL1        0.0636
     87 H          -7.7384    1.6078   -2.4735 H       1  UNL1        0.0323
     88 H          -7.1959   -0.0722   -1.9403 H       1  UNL1        0.0323
     89 H          -6.6914    0.6791   -3.5368 H       1  UNL1        0.0323
     90 H          -1.7354    2.4397   -0.7284 H       1  UNL1        0.0655
     91 H           0.1445    1.5143   -2.0366 H       1  UNL1        0.0639
     92 H           2.8476    1.9555   -3.1861 H       1  UNL1        0.0621
     93 H           4.4005    3.2409   -1.7402 H       1  UNL1        0.0625
     94 H           6.9093    5.4909    0.4699 H       1  UNL1        0.0868
@<TRIPOS>BOND
     1     1     2    1
     2     2     3    1
     3     3     4   ar
     4     4     5   ar
     5     5     6   ar
     6     6     7    1
     7     7     8   ar
     8     8     9   ar
     9     9    10   ar
    10    10    11    1
    11    11    12    1
    12    12    13   ar
    13    13    14    1
    14    14    15    1
    15    15    16    1
    16    15    17    1
    17    15    18    1
    18    18    19    2
    19    18    20    1
    20    13    21   ar
    21    21    22    1
    22    22    23    1
    23    23    24    1
    24    23    25    1
    25    23    26    1
    26    21    27   ar
    27    27    28   ar
    28    28    29   ar
    29    29    30    1
    30    30    31    1
    31    31    32    1
    32    32    33    1
    33    33    34    1
    34    34    35   ar
    35    35    36   ar
    36    36    37   ar
    37    37    38   ar
    38    38    39   ar
    39    39    40    1
    40    40    41   am
    41    41    42    1
    42    41    43    2
    43    29    44   ar
    44    44    45   ar
    45    45    46   ar
    46    10    47   ar
    47    47    48   ar
    48     6    49   ar
    49    49    50   ar
    50    50     3   ar
    51    48     7   ar
    52    46    12   ar
    53    46    27   ar
    54    40    32    1
    55    39    34   ar
    56     1    51    1
    57     1    52    1
    58     1    53    1
    59     4    54    1
    60     8    55    1
    61     9    56    1
    62    11    57    1
    63    11    58    1
    64    14    59    1
    65    14    60    1
    66    16    61    1
    67    16    62    1
    68    16    63    1
    69    17    64    1
    70    17    65    1
    71    17    66    1
    72    20    67    1
    73    24    68    1
    74    24    69    1
    75    24    70    1
    76    25    71    1
    77    25    72    1
    78    25    73    1
    79    26    74    1
    80    26    75    1
    81    26    76    1
    82    28    77    1
    83    31    78    1
    84    31    79    1
    85    32    80    1
    86    33    81    1
    87    33    82    1
    88    35    83    1
    89    36    84    1
    90    37    85    1
    91    38    86    1
    92    42    87    1
    93    42    88    1
    94    42    89    1
    95    44    90    1
    96    45    91    1
    97    47    92    1
    98    48    93    1
    99    50    94    1
