@<TRIPOS>MOLECULE
*****
 37 39 0 0 0
SMALL
GASTEIGER

@<TRIPOS>ATOM
      1 N           1.1351   -2.3930    1.9750 N.pl3   1  UNL1       -0.3565
      2 C           0.0156   -1.6836    1.4925 C.ar    1  UNL1        0.0461
      3 C          -1.2579   -2.1832    1.7160 C.ar    1  UNL1       -0.0387
      4 C          -2.3250   -1.4481    1.2211 C.ar    1  UNL1       -0.0522
      5 C          -2.1489   -0.2675    0.5331 C.ar    1  UNL1       -0.0160
      6 C          -3.3175    0.4495    0.0431 C.ar    1  UNL1       -0.0178
      7 C          -3.3162    1.2131   -1.0939 C.ar    1  UNL1       -0.0540
      8 C          -4.4445    1.8776   -1.5253 C.ar    1  UNL1       -0.0612
      9 C          -5.6268    1.7855   -0.8042 C.ar    1  UNL1       -0.0617
     10 C          -5.6561    1.0231    0.3449 C.ar    1  UNL1       -0.0612
     11 C          -4.5167    0.3714    0.7518 C.ar    1  UNL1       -0.0540
     12 C          -0.8519    0.1834    0.3397 C.ar    1  UNL1       -0.0310
     13 C           0.2439   -0.5098    0.8114 C.ar    1  UNL1        0.0551
     14 N           1.5967   -0.0504    0.6160 N.am    1  UNL1       -0.2799
     15 C           2.3018   -0.4610   -0.5417 C.2     1  UNL1        0.2498
     16 O           1.7003   -1.2156   -1.3486 O.2     1  UNL1       -0.2698
     17 C           3.6895   -0.0257   -0.8009 C.ar    1  UNL1        0.0551
     18 C           4.3563    0.7919    0.0653 C.ar    1  UNL1       -0.0467
     19 C           5.6526    1.1778   -0.2110 C.ar    1  UNL1       -0.0429
     20 C           6.2959    0.7546   -1.3497 C.ar    1  UNL1        0.0276
     21 N           5.5969   -0.0477   -2.1685 N.ar    1  UNL1       -0.2625
     22 C           4.3419   -0.4452   -1.9399 C.ar    1  UNL1        0.0397
     23 H           1.9133   -1.8912    2.4259 H       1  UNL1        0.1424
     24 H           1.1718   -3.4206    1.8741 H       1  UNL1        0.1424
     25 H          -1.3795   -3.1122    2.2583 H       1  UNL1        0.0637
     26 H          -3.3080   -1.8704    1.4151 H       1  UNL1        0.0624
     27 H          -2.3879    1.2749   -1.6445 H       1  UNL1        0.0624
     28 H          -4.4265    2.4842   -2.4370 H       1  UNL1        0.0618
     29 H          -6.5285    2.2905   -1.1101 H       1  UNL1        0.0618
     30 H          -6.5997    0.9660    0.8961 H       1  UNL1        0.0618
     31 H          -4.5165   -0.2314    1.6489 H       1  UNL1        0.0624
     32 H          -0.7000    1.0985   -0.1928 H       1  UNL1        0.0643
     33 H           2.0206    0.5747    1.3366 H       1  UNL1        0.1552
     34 H           3.8991    1.1561    0.9778 H       1  UNL1        0.0626
     35 H           6.2202    1.8294    0.4541 H       1  UNL1        0.0633
     36 H           7.3038    1.0401   -1.5883 H       1  UNL1        0.0829
     37 H           3.8527   -1.0856   -2.6415 H       1  UNL1        0.0837
@<TRIPOS>BOND
     1     1     2    1
     2     2     3   ar
     3     3     4   ar
     4     4     5   ar
     5     5     6    1
     6     6     7   ar
     7     7     8   ar
     8     8     9   ar
     9     9    10   ar
    10    10    11   ar
    11     5    12   ar
    12    12    13   ar
    13    13    14    1
    14    14    15   am
    15    15    16    2
    16    15    17    1
    17    17    18   ar
    18    18    19   ar
    19    19    20   ar
    20    20    21   ar
    21    21    22   ar
    22    13     2   ar
    23    22    17   ar
    24    11     6   ar
    25     1    23    1
    26     1    24    1
    27     3    25    1
    28     4    26    1
    29     7    27    1
    30     8    28    1
    31     9    29    1
    32    10    30    1
    33    11    31    1
    34    12    32    1
    35    14    33    1
    36    18    34    1
    37    19    35    1
    38    20    36    1
    39    22    37    1
