
     RDKit          3D

 37 39  0  0  0  0  0  0  0  0999 V2000
    1.1351   -2.3930    1.9750 N   0  0  0  0  0  0  0  0  0  0  0  0
    0.0156   -1.6836    1.4925 C   0  0  0  0  0  0  0  0  0  0  0  0
   -1.2579   -2.1832    1.7160 C   0  0  0  0  0  0  0  0  0  0  0  0
   -2.3250   -1.4481    1.2211 C   0  0  0  0  0  0  0  0  0  0  0  0
   -2.1489   -0.2675    0.5331 C   0  0  0  0  0  0  0  0  0  0  0  0
   -3.3175    0.4495    0.0431 C   0  0  0  0  0  0  0  0  0  0  0  0
   -3.3162    1.2131   -1.0939 C   0  0  0  0  0  0  0  0  0  0  0  0
   -4.4445    1.8776   -1.5253 C   0  0  0  0  0  0  0  0  0  0  0  0
   -5.6268    1.7855   -0.8042 C   0  0  0  0  0  0  0  0  0  0  0  0
   -5.6561    1.0231    0.3449 C   0  0  0  0  0  0  0  0  0  0  0  0
   -4.5167    0.3714    0.7518 C   0  0  0  0  0  0  0  0  0  0  0  0
   -0.8519    0.1834    0.3397 C   0  0  0  0  0  0  0  0  0  0  0  0
    0.2439   -0.5098    0.8114 C   0  0  0  0  0  0  0  0  0  0  0  0
    1.5967   -0.0504    0.6160 N   0  0  0  0  0  0  0  0  0  0  0  0
    2.3018   -0.4610   -0.5417 C   0  0  0  0  0  0  0  0  0  0  0  0
    1.7003   -1.2156   -1.3486 O   0  0  0  0  0  0  0  0  0  0  0  0
    3.6895   -0.0257   -0.8009 C   0  0  0  0  0  0  0  0  0  0  0  0
    4.3563    0.7919    0.0653 C   0  0  0  0  0  0  0  0  0  0  0  0
    5.6526    1.1778   -0.2110 C   0  0  0  0  0  0  0  0  0  0  0  0
    6.2959    0.7546   -1.3497 C   0  0  0  0  0  0  0  0  0  0  0  0
    5.5969   -0.0477   -2.1685 N   0  0  0  0  0  0  0  0  0  0  0  0
    4.3419   -0.4452   -1.9399 C   0  0  0  0  0  0  0  0  0  0  0  0
    1.9133   -1.8912    2.4259 H   0  0  0  0  0  0  0  0  0  0  0  0
    1.1718   -3.4206    1.8741 H   0  0  0  0  0  0  0  0  0  0  0  0
   -1.3795   -3.1122    2.2583 H   0  0  0  0  0  0  0  0  0  0  0  0
   -3.3080   -1.8704    1.4151 H   0  0  0  0  0  0  0  0  0  0  0  0
   -2.3879    1.2749   -1.6445 H   0  0  0  0  0  0  0  0  0  0  0  0
   -4.4265    2.4842   -2.4370 H   0  0  0  0  0  0  0  0  0  0  0  0
   -6.5285    2.2905   -1.1101 H   0  0  0  0  0  0  0  0  0  0  0  0
   -6.5997    0.9660    0.8961 H   0  0  0  0  0  0  0  0  0  0  0  0
   -4.5165   -0.2314    1.6489 H   0  0  0  0  0  0  0  0  0  0  0  0
   -0.7000    1.0985   -0.1928 H   0  0  0  0  0  0  0  0  0  0  0  0
    2.0206    0.5747    1.3366 H   0  0  0  0  0  0  0  0  0  0  0  0
    3.8991    1.1561    0.9778 H   0  0  0  0  0  0  0  0  0  0  0  0
    6.2202    1.8294    0.4541 H   0  0  0  0  0  0  0  0  0  0  0  0
    7.3038    1.0401   -1.5883 H   0  0  0  0  0  0  0  0  0  0  0  0
    3.8527   -1.0856   -2.6415 H   0  0  0  0  0  0  0  0  0  0  0  0
  1  2  1  0
  2  3  2  0
  3  4  1  0
  4  5  2  0
  5  6  1  0
  6  7  2  0
  7  8  1  0
  8  9  2  0
  9 10  1  0
 10 11  2  0
  5 12  1  0
 12 13  2  0
 13 14  1  0
 14 15  1  0
 15 16  2  0
 15 17  1  0
 17 18  2  0
 18 19  1  0
 19 20  2  0
 20 21  1  0
 21 22  2  0
 13  2  1  0
 22 17  1  0
 11  6  1  0
  1 23  1  0
  1 24  1  0
  3 25  1  0
  4 26  1  0
  7 27  1  0
  8 28  1  0
  9 29  1  0
 10 30  1  0
 11 31  1  0
 12 32  1  0
 14 33  1  0
 18 34  1  0
 19 35  1  0
 20 36  1  0
 22 37  1  0
M  END
$$$$
