
     RDKit          3D

 58 62  0  0  0  0  0  0  0  0999 V2000
    9.3233    3.0137   -0.1281 C   0  0  0  0  0  0  0  0  0  0  0  0
    8.5618    2.1395   -1.0350 C   0  0  0  0  0  0  0  0  0  0  0  0
    9.0353    1.7978   -2.1305 O   0  0  0  0  0  0  0  0  0  0  0  0
    7.2352    1.6798   -0.6221 C   0  0  0  0  0  0  0  0  0  0  0  0
    6.5299    1.9103    0.4876 C   0  0  0  0  0  0  0  0  0  0  0  0
    5.3117    1.3682    0.6405 C   0  0  0  0  0  0  0  0  0  0  0  0
    4.8181    0.5814   -0.3613 C   0  0  0  0  0  0  0  0  0  0  0  0
    3.5632   -0.1474   -0.5292 C   0  0  0  0  0  0  0  0  0  0  0  0
    3.3234   -0.8726   -1.6743 C   0  0  0  0  0  0  0  0  0  0  0  0
    2.1567   -1.5714   -1.8749 C   0  0  0  0  0  0  0  0  0  0  0  0
    1.1902   -1.5517   -0.9055 C   0  0  0  0  0  0  0  0  0  0  0  0
   -0.0434   -2.2451   -1.0393 N   0  0  0  0  0  0  0  0  0  0  0  0
   -1.0140   -2.2119   -0.0131 C   0  0  0  0  0  0  0  0  0  0  0  0
   -1.9584   -1.1915   -0.0072 C   0  0  0  0  0  0  0  0  0  0  0  0
   -1.8651   -0.1120   -1.0371 C   0  0  0  0  0  0  0  0  0  0  0  0
   -2.8948   -1.1601    0.9736 C   0  0  0  0  0  0  0  0  0  0  0  0
   -3.9690   -0.2478    1.0775 N   0  0  0  0  0  0  0  0  0  0  0  0
   -4.4865    0.7197    0.2034 C   0  0  1  0  0  0  0  0  0  0  0  0
   -5.3423    0.0697   -0.9052 C   0  0  0  0  0  0  0  0  0  0  0  0
   -5.5073    1.1555   -1.9427 C   0  0  0  0  0  0  0  0  0  0  0  0
   -5.9345    2.4611   -1.3008 C   0  0  0  0  0  0  0  0  0  0  0  0
   -6.4186    2.2562    0.0497 N   0  0  0  0  0  0  0  0  0  0  0  0
   -5.4949    1.6248    0.9323 C   0  0  0  0  0  0  0  0  0  0  0  0
   -2.8359   -2.1676    1.9200 N   0  0  0  0  0  0  0  0  0  0  0  0
   -1.9331   -3.1373    1.9114 C   0  0  0  0  0  0  0  0  0  0  0  0
   -1.6922   -4.2319    2.7461 C   0  0  0  0  0  0  0  0  0  0  0  0
   -0.6143   -4.8970    2.2407 C   0  0  0  0  0  0  0  0  0  0  0  0
   -0.2292   -4.2259    1.1499 N   0  0  0  0  0  0  0  0  0  0  0  0
   -1.0129   -3.1562    0.9303 N   0  0  0  0  0  0  0  0  0  0  0  0
    1.4091   -0.8331    0.2473 C   0  0  0  0  0  0  0  0  0  0  0  0
    2.5866   -0.1378    0.4313 C   0  0  0  0  0  0  0  0  0  0  0  0
    6.1694    0.6305   -1.5665 S   0  0  0  0  0  0  0  0  0  0  0  0
    9.0190    2.8138    0.9280 H   0  0  0  0  0  0  0  0  0  0  0  0
    8.9950    4.0731   -0.3282 H   0  0  0  0  0  0  0  0  0  0  0  0
   10.4195    2.9218   -0.2549 H   0  0  0  0  0  0  0  0  0  0  0  0
    6.9715    2.5661    1.2928 H   0  0  0  0  0  0  0  0  0  0  0  0
    4.6597    1.5170    1.5457 H   0  0  0  0  0  0  0  0  0  0  0  0
    4.1107   -0.8714   -2.4308 H   0  0  0  0  0  0  0  0  0  0  0  0
    1.9943   -2.1281   -2.7748 H   0  0  0  0  0  0  0  0  0  0  0  0
   -0.2158   -2.7926   -1.9388 H   0  0  0  0  0  0  0  0  0  0  0  0
   -2.6951   -0.0627   -1.7313 H   0  0  0  0  0  0  0  0  0  0  0  0
   -1.6362    0.8412   -0.5231 H   0  0  0  0  0  0  0  0  0  0  0  0
   -0.8970   -0.3107   -1.6270 H   0  0  0  0  0  0  0  0  0  0  0  0
   -4.5132   -0.2900    2.0369 H   0  0  0  0  0  0  0  0  0  0  0  0
   -3.7650    1.4087   -0.2511 H   0  0  0  0  0  0  0  0  0  0  0  0
   -6.3129   -0.1969   -0.4290 H   0  0  0  0  0  0  0  0  0  0  0  0
   -4.8573   -0.8091   -1.3355 H   0  0  0  0  0  0  0  0  0  0  0  0
   -4.5113    1.3431   -2.3913 H   0  0  0  0  0  0  0  0  0  0  0  0
   -6.1728    0.8429   -2.7623 H   0  0  0  0  0  0  0  0  0  0  0  0
   -6.8048    2.8348   -1.8898 H   0  0  0  0  0  0  0  0  0  0  0  0
   -5.1630    3.2405   -1.3247 H   0  0  0  0  0  0  0  0  0  0  0  0
   -6.6529    3.2028    0.4295 H   0  0  0  0  0  0  0  0  0  0  0  0
   -6.0538    0.9511    1.6166 H   0  0  0  0  0  0  0  0  0  0  0  0
   -4.8878    2.3032    1.5448 H   0  0  0  0  0  0  0  0  0  0  0  0
   -2.2467   -4.5000    3.6176 H   0  0  0  0  0  0  0  0  0  0  0  0
   -0.1314   -5.8090    2.6292 H   0  0  0  0  0  0  0  0  0  0  0  0
    0.6426   -0.8244    1.0037 H   0  0  0  0  0  0  0  0  0  0  0  0
    2.7371    0.4252    1.3543 H   0  0  0  0  0  0  0  0  0  0  0  0
  1  2  1  0
  2  3  2  0
  2  4  1  0
  4  5  2  0
  5  6  1  0
  6  7  2  0
  7  8  1  0
  8  9  2  0
  9 10  1  0
 10 11  2  0
 11 12  1  0
 12 13  1  0
 13 14  2  0
 14 15  1  0
 14 16  1  0
 16 17  1  0
 17 18  1  0
 18 19  1  0
 19 20  1  0
 20 21  1  0
 21 22  1  0
 22 23  1  0
 16 24  2  0
 24 25  1  0
 25 26  2  0
 26 27  1  0
 27 28  2  0
 28 29  1  0
 11 30  1  0
 30 31  2  0
  7 32  1  0
 32  4  1  0
 31  8  1  0
 29 13  1  0
 23 18  1  0
 29 25  1  0
  1 33  1  0
  1 34  1  0
  1 35  1  0
  5 36  1  0
  6 37  1  0
  9 38  1  0
 10 39  1  0
 12 40  1  0
 15 41  1  0
 15 42  1  0
 15 43  1  0
 17 44  1  0
 18 45  1  6
 19 46  1  0
 19 47  1  0
 20 48  1  0
 20 49  1  0
 21 50  1  0
 21 51  1  0
 22 52  1  0
 23 53  1  0
 23 54  1  0
 26 55  1  0
 27 56  1  0
 30 57  1  0
 31 58  1  0
M  END
$$$$
