@<TRIPOS>MOLECULE
*****
 58 62 0 0 0
SMALL
GASTEIGER

@<TRIPOS>ATOM
      1 C           9.3233    3.0137   -0.1281 C.3     1  UNL1       -0.0009
      2 C           8.5618    2.1395   -1.0350 C.2     1  UNL1        0.1666
      3 O           9.0353    1.7978   -2.1305 O.2     1  UNL1       -0.2918
      4 C           7.2352    1.6798   -0.6221 C.ar    1  UNL1        0.0548
      5 C           6.5299    1.9103    0.4876 C.ar    1  UNL1       -0.0436
      6 C           5.3117    1.3682    0.6405 C.ar    1  UNL1       -0.0463
      7 C           4.8181    0.5814   -0.3613 C.ar    1  UNL1        0.0200
      8 C           3.5632   -0.1474   -0.5292 C.ar    1  UNL1       -0.0112
      9 C           3.3234   -0.8726   -1.6743 C.ar    1  UNL1       -0.0518
     10 C           2.1567   -1.5714   -1.8749 C.ar    1  UNL1       -0.0399
     11 C           1.1902   -1.5517   -0.9055 C.ar    1  UNL1        0.0324
     12 N          -0.0434   -2.2451   -1.0393 N.pl3   1  UNL1       -0.2990
     13 C          -1.0140   -2.2119   -0.0131 C.ar    1  UNL1        0.1329
     14 C          -1.9584   -1.1915   -0.0072 C.ar    1  UNL1        0.0293
     15 C          -1.8651   -0.1120   -1.0371 C.3     1  UNL1       -0.0332
     16 C          -2.8948   -1.1601    0.9736 C.ar    1  UNL1        0.1275
     17 N          -3.9690   -0.2478    1.0775 N.pl3   1  UNL1       -0.3246
     18 C          -4.4865    0.7197    0.2034 C.3     1  UNL1        0.0345
     19 C          -5.3423    0.0697   -0.9052 C.3     1  UNL1       -0.0322
     20 C          -5.5073    1.1555   -1.9427 C.3     1  UNL1       -0.0387
     21 C          -5.9345    2.4611   -1.3008 C.3     1  UNL1       -0.0040
     22 N          -6.4186    2.2562    0.0497 N.3     1  UNL1       -0.3142
     23 C          -5.4949    1.6248    0.9323 C.3     1  UNL1        0.0143
     24 N          -2.8359   -2.1676    1.9200 N.ar    1  UNL1       -0.2129
     25 C          -1.9331   -3.1373    1.9114 C.ar    1  UNL1        0.1596
     26 C          -1.6922   -4.2319    2.7461 C.ar    1  UNL1        0.0025
     27 C          -0.6143   -4.8970    2.2407 C.ar    1  UNL1        0.0520
     28 N          -0.2292   -4.2259    1.1499 N.ar    1  UNL1       -0.1717
     29 N          -1.0129   -3.1562    0.9303 N.ar    1  UNL1       -0.2000
     30 C           1.4091   -0.8331    0.2473 C.ar    1  UNL1       -0.0399
     31 C           2.5866   -0.1378    0.4313 C.ar    1  UNL1       -0.0518
     32 S           6.1694    0.6305   -1.5665 S.2     1  UNL1       -0.0854
     33 H           9.0190    2.8138    0.9280 H       1  UNL1        0.0309
     34 H           8.9950    4.0731   -0.3282 H       1  UNL1        0.0309
     35 H          10.4195    2.9218   -0.2549 H       1  UNL1        0.0309
     36 H           6.9715    2.5661    1.2928 H       1  UNL1        0.0630
     37 H           4.6597    1.5170    1.5457 H       1  UNL1        0.0629
     38 H           4.1107   -0.8714   -2.4308 H       1  UNL1        0.0624
     39 H           1.9943   -2.1281   -2.7748 H       1  UNL1        0.0636
     40 H          -0.2158   -2.7926   -1.9388 H       1  UNL1        0.1536
     41 H          -2.6951   -0.0627   -1.7313 H       1  UNL1        0.0280
     42 H          -1.6362    0.8412   -0.5231 H       1  UNL1        0.0280
     43 H          -0.8970   -0.3107   -1.6270 H       1  UNL1        0.0280
     44 H          -4.5132   -0.2900    2.0369 H       1  UNL1        0.1478
     45 H          -3.7650    1.4087   -0.2511 H       1  UNL1        0.0510
     46 H          -6.3129   -0.1969   -0.4290 H       1  UNL1        0.0284
     47 H          -4.8573   -0.8091   -1.3355 H       1  UNL1        0.0284
     48 H          -4.5113    1.3431   -2.3913 H       1  UNL1        0.0278
     49 H          -6.1728    0.8429   -2.7623 H       1  UNL1        0.0278
     50 H          -6.8048    2.8348   -1.8898 H       1  UNL1        0.0424
     51 H          -5.1630    3.2405   -1.3247 H       1  UNL1        0.0424
     52 H          -6.6529    3.2028    0.4295 H       1  UNL1        0.1220
     53 H          -6.0538    0.9511    1.6166 H       1  UNL1        0.0442
     54 H          -4.8878    2.3032    1.5448 H       1  UNL1        0.0442
     55 H          -2.2467   -4.5000    3.6176 H       1  UNL1        0.0670
     56 H          -0.1314   -5.8090    2.6292 H       1  UNL1        0.0848
     57 H           0.6426   -0.8244    1.0037 H       1  UNL1        0.0636
     58 H           2.7371    0.4252    1.3543 H       1  UNL1        0.0624
@<TRIPOS>BOND
     1     1     2    1
     2     2     3    2
     3     2     4    1
     4     4     5   ar
     5     5     6   ar
     6     6     7   ar
     7     7     8    1
     8     8     9   ar
     9     9    10   ar
    10    10    11   ar
    11    11    12    1
    12    12    13    1
    13    13    14   ar
    14    14    15    1
    15    14    16   ar
    16    16    17    1
    17    17    18    1
    18    18    19    1
    19    19    20    1
    20    20    21    1
    21    21    22    1
    22    22    23    1
    23    16    24   ar
    24    24    25   ar
    25    25    26   ar
    26    26    27   ar
    27    27    28   ar
    28    28    29   ar
    29    11    30   ar
    30    30    31   ar
    31     7    32   ar
    32    32     4   ar
    33    31     8   ar
    34    29    13   ar
    35    23    18    1
    36    29    25   ar
    37     1    33    1
    38     1    34    1
    39     1    35    1
    40     5    36    1
    41     6    37    1
    42     9    38    1
    43    10    39    1
    44    12    40    1
    45    15    41    1
    46    15    42    1
    47    15    43    1
    48    17    44    1
    49    18    45    1
    50    19    46    1
    51    19    47    1
    52    20    48    1
    53    20    49    1
    54    21    50    1
    55    21    51    1
    56    22    52    1
    57    23    53    1
    58    23    54    1
    59    26    55    1
    60    27    56    1
    61    30    57    1
    62    31    58    1
