@<TRIPOS>MOLECULE
*****
 52 57 0 0 0
SMALL
GASTEIGER

@<TRIPOS>ATOM
      1 C           7.1285   -1.9788   -2.1471 C.ar    1  UNL1       -0.0597
      2 C           6.0176   -2.4333   -1.4908 C.ar    1  UNL1       -0.0611
      3 C           5.4079   -1.6070   -0.5626 C.ar    1  UNL1       -0.0520
      4 C           5.8779   -0.3455   -0.2759 C.ar    1  UNL1        0.0082
      5 C           5.2460    0.4494    0.6536 C.ar    1  UNL1       -0.0022
      6 C           4.0496    0.0029    1.3840 C.ar    1  UNL1        0.0467
      7 C           3.9875   -0.6640    2.5816 C.ar    1  UNL1        0.0597
      8 N           2.7001   -0.8659    2.8655 N.ar    1  UNL1       -0.1727
      9 N           1.9704   -0.3514    1.8935 N.ar    1  UNL1       -0.2206
     10 C           0.6191   -0.2856    1.6910 C.ar    1  UNL1        0.0406
     11 C           0.0555    0.3084    0.5857 C.ar    1  UNL1        0.0199
     12 C          -1.4094    0.3563    0.4068 C.ar    1  UNL1        0.0033
     13 C          -1.9269    0.3341   -0.8783 C.ar    1  UNL1       -0.0492
     14 C          -3.2823    0.3760   -1.0927 C.ar    1  UNL1       -0.0211
     15 C          -4.1222    0.4406   -0.0137 C.ar    1  UNL1        0.1213
     16 N          -5.5369    0.4862   -0.1767 N.pl3   1  UNL1       -0.3128
     17 C          -6.1522    0.4738   -1.4889 C.3     1  UNL1        0.0261
     18 C          -7.6576    0.3210   -1.2452 C.3     1  UNL1        0.0117
     19 N          -7.9328   -0.8044   -0.3665 N.3     1  UNL1       -0.3130
     20 C          -7.3713   -0.6413    0.9447 C.3     1  UNL1        0.0117
     21 C          -6.4171    0.5464    0.9739 C.3     1  UNL1        0.0261
     22 N          -3.5995    0.4608    1.2137 N.ar    1  UNL1       -0.2397
     23 C          -2.2785    0.4215    1.4737 C.ar    1  UNL1        0.0375
     24 C           0.8952    0.8610   -0.3577 C.ar    1  UNL1        0.0392
     25 N           2.2242    0.7941   -0.1547 N.ar    1  UNL1       -0.2350
     26 C           2.7554    0.1975    0.9532 C.ar    1  UNL1        0.1632
     27 C           5.7613    1.6979    0.8969 C.ar    1  UNL1       -0.0351
     28 C           6.8815    2.1446    0.2287 C.ar    1  UNL1        0.0288
     29 N           7.4521    1.3196   -0.6672 N.ar    1  UNL1       -0.2549
     30 C           6.9987    0.0898   -0.9505 C.ar    1  UNL1        0.0715
     31 C           7.6381   -0.7170   -1.8922 C.ar    1  UNL1       -0.0357
     32 H           7.6427   -2.5954   -2.8877 H       1  UNL1        0.0618
     33 H           5.6181   -3.4230   -1.6911 H       1  UNL1        0.0618
     34 H           4.5396   -1.9497   -0.0429 H       1  UNL1        0.0624
     35 H           4.8632   -0.9643    3.1768 H       1  UNL1        0.0855
     36 H          -0.0358   -0.7199    2.4326 H       1  UNL1        0.0837
     37 H          -1.2308    0.2823   -1.7169 H       1  UNL1        0.0625
     38 H          -3.7047    0.3593   -2.0998 H       1  UNL1        0.0652
     39 H          -5.8366   -0.3711   -2.1079 H       1  UNL1        0.0477
     40 H          -6.0309    1.4584   -1.9850 H       1  UNL1        0.0477
     41 H          -8.0040    1.2359   -0.7160 H       1  UNL1        0.0439
     42 H          -8.1618    0.1440   -2.2035 H       1  UNL1        0.0439
     43 H          -7.5526   -1.6829   -0.7859 H       1  UNL1        0.1220
     44 H          -6.8149   -1.5524    1.2540 H       1  UNL1        0.0439
     45 H          -8.1782   -0.4290    1.6705 H       1  UNL1        0.0439
     46 H          -5.8026    0.4373    1.8934 H       1  UNL1        0.0477
     47 H          -6.9767    1.4867    1.0283 H       1  UNL1        0.0477
     48 H          -1.8927    0.4398    2.4849 H       1  UNL1        0.0836
     49 H           0.5156    1.3370   -1.2390 H       1  UNL1        0.0837
     50 H           5.2682    2.3239    1.6253 H       1  UNL1        0.0639
     51 H           7.2789    3.1415    0.4340 H       1  UNL1        0.0830
     52 H           8.5163   -0.3461   -2.4052 H       1  UNL1        0.0639
@<TRIPOS>BOND
     1     1     2   ar
     2     2     3   ar
     3     3     4   ar
     4     4     5   ar
     5     5     6    1
     6     6     7   ar
     7     7     8   ar
     8     8     9   ar
     9     9    10   ar
    10    10    11   ar
    11    11    12    1
    12    12    13   ar
    13    13    14   ar
    14    14    15   ar
    15    15    16    1
    16    16    17    1
    17    17    18    1
    18    18    19    1
    19    19    20    1
    20    20    21    1
    21    15    22   ar
    22    22    23   ar
    23    11    24   ar
    24    24    25   ar
    25    25    26   ar
    26     5    27   ar
    27    27    28   ar
    28    28    29   ar
    29    29    30   ar
    30    30    31   ar
    31    31     1   ar
    32    30     4   ar
    33    26     6   ar
    34    26     9   ar
    35    23    12   ar
    36    21    16    1
    37     1    32    1
    38     2    33    1
    39     3    34    1
    40     7    35    1
    41    10    36    1
    42    13    37    1
    43    14    38    1
    44    17    39    1
    45    17    40    1
    46    18    41    1
    47    18    42    1
    48    19    43    1
    49    20    44    1
    50    20    45    1
    51    21    46    1
    52    21    47    1
    53    23    48    1
    54    24    49    1
    55    27    50    1
    56    28    51    1
    57    31    52    1
