@<TRIPOS>MOLECULE
*****
 25 26 0 0 0
SMALL
GASTEIGER

@<TRIPOS>ATOM
      1 N          -4.5213   -0.6742    0.5516 N.pl3   1  UNL1       -0.3579
      2 C          -3.1619   -0.2403    0.5443 C.ar    1  UNL1        0.0275
      3 C          -2.3249   -0.5426    1.6075 C.ar    1  UNL1       -0.0194
      4 C          -1.0056   -0.0887    1.5390 C.ar    1  UNL1        0.0805
      5 CL          0.1456   -0.4125    2.8291 Cl      1  UNL1       -0.0801
      6 C          -0.6331    0.6276    0.4169 C.ar    1  UNL1        0.1284
      7 N           0.6967    1.1250    0.2732 N.pl3   1  UNL1       -0.2037
      8 C           1.7754    0.4227   -0.3370 C.cat   1  UNL1        0.3695
      9 N           1.5776   -0.5270   -1.1659 N.2     1  UNL1       -0.1140
     10 C           2.8342   -1.0748   -1.6408 C.3     1  UNL1        0.1328
     11 C           3.8912   -0.3263   -0.8931 C.3     1  UNL1        0.0920
     12 N           3.1580    0.6707   -0.1175 N.pl3   1  UNL1       -0.2350
     13 C          -1.4653    0.9306   -0.6447 C.ar    1  UNL1        0.0805
     14 CL         -0.9485    1.8358   -2.0354 Cl      1  UNL1       -0.0801
     15 C          -2.7788    0.4775   -0.5742 C.ar    1  UNL1       -0.0194
     16 H          -5.3034   -0.1247    1.0100 H       1  UNL1        0.1423
     17 H          -5.1742   -1.4304    0.2438 H       1  UNL1        0.1423
     18 H          -2.6615   -1.1061    2.4644 H       1  UNL1        0.0652
     19 H           0.8365    2.0863    0.6638 H       1  UNL1        0.2513
     20 H           2.9149   -0.8240   -2.7356 H       1  UNL1        0.0723
     21 H           2.9321   -2.1606   -1.4615 H       1  UNL1        0.0723
     22 H           4.5879    0.2098   -1.5830 H       1  UNL1        0.0665
     23 H           4.5020   -0.9603   -0.2201 H       1  UNL1        0.0665
     24 H           3.5820    1.4158    0.4786 H       1  UNL1        0.2445
     25 H          -3.4556    0.6906   -1.3752 H       1  UNL1        0.0652
@<TRIPOS>BOND
     1     1     2    1
     2     2     3   ar
     3     3     4   ar
     4     4     5    1
     5     4     6   ar
     6     6     7    1
     7     7     8    1
     8     8     9    2
     9     9    10    1
    10    10    11    1
    11    11    12    1
    12     6    13   ar
    13    13    14    1
    14    13    15   ar
    15    15     2   ar
    16    12     8    1
    17     1    16    1
    18     1    17    1
    19     3    18    1
    20     7    19    1
    21    10    20    1
    22    10    21    1
    23    11    22    1
    24    11    23    1
    25    12    24    1
    26    15    25    1
