@<TRIPOS>MOLECULE
*****
 30 31 0 0 0
SMALL
GASTEIGER

@<TRIPOS>ATOM
      1 N4         -4.9404    0.5521   -1.6632 N.pl3   1    C1       -0.3430
      2 C4         -3.6460    0.5640   -1.0703 C.ar    1    C1        0.1230
      3 N3         -2.6604    0.6270   -1.9870 N.ar    1    C1       -0.1783
      4 C2         -1.3481    0.6478   -1.6078 C.ar    1    C1        0.3522
      5 O2         -0.4038    0.7061   -2.4348 O.2     1    C1       -0.2444
      6 N1         -1.1052    0.6020   -0.2785 N.ar    1    C1       -0.2700
      7 C6         -2.0552    0.5383    0.6805 C.ar    1    C1        0.0152
      8 C5         -3.3792    0.5178    0.2847 C.ar    1    C1       -0.0056
      9 C1*         0.3059    0.6250    0.1107 C.3     1    C1        0.1680
     10 O4*         1.1279    0.2685   -0.9354 O.3     1    C1       -0.3456
     11 C4*         2.3724    0.1580   -0.3183 C.3     1    C1        0.1126
     12 C5*         3.3435   -0.6396   -1.1640 C.3     1    C1        0.0730
     13 O5*         2.8772   -1.9298   -1.3923 O.3     1    C1       -0.3924
     14 C3*         2.0925   -0.6936    0.9154 C.3     1    C1        0.1135
     15 O3*         2.7367   -0.1503    2.0310 O.3     1    C1       -0.3864
     16 C2*         0.6181   -0.4698    1.1244 C.3     1    C1        0.1286
     17 O2*         0.3144   -0.0703    2.4256 O.3     1    C1       -0.3847
     18 H41        -5.7405   -0.0993   -1.4088 H       1    C1        0.1437
     19 H42        -5.8630    0.1002   -1.6583 H       1    C1        0.1437
     20 H6         -1.8417    0.5029    1.7236 H       1    C1        0.0812
     21 H5         -4.2246    0.4687    0.9456 H       1    C1        0.0666
     22 H1*         0.5200    1.6132    0.5352 H       1    C1        0.0867
     23 H4*         2.8053    1.1234   -0.0049 H       1    C1        0.0647
     24 H5*1        3.5374   -0.1303   -2.1324 H       1    C1        0.0584
     25 H5*2        4.2908   -0.7308   -0.5977 H       1    C1        0.0584
     26 H5*         3.4465   -2.6138   -0.9739 H       1    C1        0.2095
     27 H3*         2.3108   -1.7541    0.7632 H       1    C1        0.0647
     28 H3*         3.4621    0.4706    1.8129 H       1    C1        0.2100
     29 H2*         0.0405   -1.3687    0.8251 H       1    C1        0.0665
     30 H2*         1.0060    0.5649    2.7353 H       1    C1        0.2101
@<TRIPOS>BOND
     1     1     2    1
     2     2     3   ar
     3     3     4   ar
     4     4     5    2
     5     4     6   ar
     6     6     7   ar
     7     7     8   ar
     8     6     9    1
     9     9    10    1
    10    10    11    1
    11    11    12    1
    12    12    13    1
    13    11    14    1
    14    14    15    1
    15    14    16    1
    16    16    17    1
    17     8     2   ar
    18    16     9    1
    19     1    18    1
    20     1    19    1
    21     7    20    1
    22     8    21    1
    23     9    22    1
    24    11    23    1
    25    12    24    1
    26    12    25    1
    27    13    26    1
    28    14    27    1
    29    15    28    1
    30    16    29    1
    31    17    30    1
