@<TRIPOS>MOLECULE
*****
 25 26 0 0 0
SMALL
GASTEIGER

@<TRIPOS>ATOM
      1 O           4.4244   -0.5276   -0.3052 O.3     1  UNL1       -0.4806
      2 C           3.5377   -0.6013    0.7588 C.2     1  UNL1        0.3050
      3 O           4.2786   -1.1115    1.6467 O.2     1  UNL1       -0.2510
      4 C           2.1064   -0.2283    0.9446 C.3     1  UNL1        0.0488
      5 C           1.5764    0.2995   -0.3402 C.3     1  UNL1       -0.0156
      6 C           0.1778    0.7169   -0.3430 C.ar    1  UNL1       -0.0218
      7 C          -0.2825    2.0375   -0.3019 C.ar    1  UNL1        0.0059
      8 N          -1.6042    2.1019   -0.3131 N.ar    1  UNL1       -0.3604
      9 C          -2.0361    0.8408   -0.3617 C.ar    1  UNL1        0.0467
     10 C          -3.3036    0.2895   -0.3945 C.ar    1  UNL1       -0.0378
     11 C          -3.5894   -1.0495   -0.4445 C.ar    1  UNL1       -0.0598
     12 C          -2.4895   -1.8944   -0.4621 C.ar    1  UNL1       -0.0611
     13 C          -1.1860   -1.3996   -0.4315 C.ar    1  UNL1       -0.0523
     14 C          -0.9706   -0.0478   -0.3817 C.ar    1  UNL1        0.0028
     15 H           5.2013    0.1475   -0.2674 H       1  UNL1        0.2951
     16 H           1.5986   -1.1904    1.1784 H       1  UNL1        0.0381
     17 H           2.1042    0.5035    1.7752 H       1  UNL1        0.0381
     18 H           1.7685   -0.4836   -1.1192 H       1  UNL1        0.0319
     19 H           2.2047    1.1593   -0.6510 H       1  UNL1        0.0319
     20 H           0.3934    2.8938   -0.2663 H       1  UNL1        0.0810
     21 H          -2.1679    2.9983   -0.2886 H       1  UNL1        0.1653
     22 H          -4.1411    0.9690   -0.3780 H       1  UNL1        0.0638
     23 H          -4.6060   -1.3866   -0.4671 H       1  UNL1        0.0618
     24 H          -2.6677   -2.9756   -0.5023 H       1  UNL1        0.0618
     25 H          -0.3274   -2.0613   -0.4464 H       1  UNL1        0.0624
@<TRIPOS>BOND
     1     1     2    1
     2     2     3    2
     3     2     4    1
     4     4     5    1
     5     5     6    1
     6     6     7   ar
     7     7     8   ar
     8     8     9   ar
     9     9    10   ar
    10    10    11   ar
    11    11    12   ar
    12    12    13   ar
    13    13    14   ar
    14    14     6   ar
    15    14     9   ar
    16     1    15    1
    17     4    16    1
    18     4    17    1
    19     5    18    1
    20     5    19    1
    21     7    20    1
    22     8    21    1
    23    10    22    1
    24    11    23    1
    25    12    24    1
    26    13    25    1
