
     RDKit          3D

 25 26  0  0  0  0  0  0  0  0999 V2000
    4.4244   -0.5276   -0.3052 O   0  0  0  0  0  0  0  0  0  0  0  0
    3.5377   -0.6013    0.7588 C   0  0  0  0  0  0  0  0  0  0  0  0
    4.2786   -1.1115    1.6467 O   0  0  0  0  0  0  0  0  0  0  0  0
    2.1064   -0.2283    0.9446 C   0  0  0  0  0  0  0  0  0  0  0  0
    1.5764    0.2995   -0.3402 C   0  0  0  0  0  0  0  0  0  0  0  0
    0.1778    0.7169   -0.3430 C   0  0  0  0  0  0  0  0  0  0  0  0
   -0.2825    2.0375   -0.3019 C   0  0  0  0  0  0  0  0  0  0  0  0
   -1.6042    2.1019   -0.3131 N   0  0  0  0  0  0  0  0  0  0  0  0
   -2.0361    0.8408   -0.3617 C   0  0  0  0  0  0  0  0  0  0  0  0
   -3.3036    0.2895   -0.3945 C   0  0  0  0  0  0  0  0  0  0  0  0
   -3.5894   -1.0495   -0.4445 C   0  0  0  0  0  0  0  0  0  0  0  0
   -2.4895   -1.8944   -0.4621 C   0  0  0  0  0  0  0  0  0  0  0  0
   -1.1860   -1.3996   -0.4315 C   0  0  0  0  0  0  0  0  0  0  0  0
   -0.9706   -0.0478   -0.3817 C   0  0  0  0  0  0  0  0  0  0  0  0
    5.2013    0.1475   -0.2674 H   0  0  0  0  0  0  0  0  0  0  0  0
    1.5986   -1.1904    1.1784 H   0  0  0  0  0  0  0  0  0  0  0  0
    2.1042    0.5035    1.7752 H   0  0  0  0  0  0  0  0  0  0  0  0
    1.7685   -0.4836   -1.1192 H   0  0  0  0  0  0  0  0  0  0  0  0
    2.2047    1.1593   -0.6510 H   0  0  0  0  0  0  0  0  0  0  0  0
    0.3934    2.8938   -0.2663 H   0  0  0  0  0  0  0  0  0  0  0  0
   -2.1679    2.9983   -0.2886 H   0  0  0  0  0  0  0  0  0  0  0  0
   -4.1411    0.9690   -0.3780 H   0  0  0  0  0  0  0  0  0  0  0  0
   -4.6060   -1.3866   -0.4671 H   0  0  0  0  0  0  0  0  0  0  0  0
   -2.6677   -2.9756   -0.5023 H   0  0  0  0  0  0  0  0  0  0  0  0
   -0.3274   -2.0613   -0.4464 H   0  0  0  0  0  0  0  0  0  0  0  0
  1  2  1  0
  2  3  2  0
  2  4  1  0
  4  5  1  0
  5  6  1  0
  6  7  2  0
  7  8  1  0
  8  9  1  0
  9 10  2  0
 10 11  1  0
 11 12  2  0
 12 13  1  0
 13 14  2  0
 14  6  1  0
 14  9  1  0
  1 15  1  0
  4 16  1  0
  4 17  1  0
  5 18  1  0
  5 19  1  0
  7 20  1  0
  8 21  1  0
 10 22  1  0
 11 23  1  0
 12 24  1  0
 13 25  1  0
M  END
$$$$
