@<TRIPOS>MOLECULE
*****
 66 69 0 0 0
SMALL
GASTEIGER

@<TRIPOS>ATOM
      1 C           0.2186   -1.7771    1.8551 C.3     1  UNL1       -0.0421
      2 C           0.4782   -0.4439    1.2533 C.3     1  UNL1        0.0515
      3 C           1.8835   -0.2792    0.7839 C.ar    1  UNL1       -0.0271
      4 C           2.8879   -0.3083    1.7660 C.ar    1  UNL1       -0.0562
      5 C           4.2178   -0.1462    1.4349 C.ar    1  UNL1       -0.0537
      6 C           4.6190    0.0521    0.1325 C.ar    1  UNL1       -0.0165
      7 C           6.0469    0.2146   -0.1545 C.ar    1  UNL1       -0.0015
      8 C           6.5088    0.9846   -1.1872 C.ar    1  UNL1       -0.0475
      9 C           7.8440    1.1207   -1.4367 C.ar    1  UNL1        0.0036
     10 C           8.7404    0.4646   -0.6243 C.ar    1  UNL1        0.2511
     11 O           9.9599    0.6014   -0.8656 O.2     1  UNL1       -0.2677
     12 N           8.2728   -0.2942    0.3929 N.ar    1  UNL1       -0.3177
     13 C           9.2654   -0.9570    1.2035 C.3     1  UNL1        0.0147
     14 C           6.9591   -0.4353    0.6479 C.ar    1  UNL1        0.0153
     15 C           3.6312    0.0798   -0.8157 C.ar    1  UNL1       -0.0537
     16 C           2.2704   -0.0854   -0.4853 C.ar    1  UNL1       -0.0562
     17 N          -0.5200    0.0841    0.3978 N.am    1  UNL1       -0.2605
     18 C          -1.1719    1.3801    0.6244 C.3     1  UNL1        0.0224
     19 C          -2.6836    1.2989    0.4942 C.3     1  UNL1        0.0075
     20 C          -3.1757    0.4491   -0.5925 C.3     1  UNL1        0.1428
     21 C          -4.1019    1.1889   -1.4894 C.3     1  UNL1        0.0095
     22 C          -5.3481    1.7494   -0.9901 C.3     1  UNL1        0.0557
     23 C          -5.3405    2.7595    0.0923 C.3     1  UNL1       -0.0468
     24 C          -6.4169    0.7184   -0.6015 C.3     1  UNL1       -0.0468
     25 C          -5.9754    2.4480   -2.1591 C.1     1  UNL1        0.0688
     26 N          -6.4702    2.9791   -3.0831 N.1     1  UNL1       -0.1960
     27 C          -3.8254   -0.8249   -0.2057 C.ar    1  UNL1       -0.0039
     28 C          -4.0124   -1.2534    1.0861 C.ar    1  UNL1       -0.0521
     29 C          -4.6271   -2.4730    1.3283 C.ar    1  UNL1       -0.0261
     30 C          -5.0528   -3.2584    0.2849 C.ar    1  UNL1        0.1234
     31 F          -5.6609   -4.4736    0.4816 F       1  UNL1       -0.2055
     32 C          -4.8767   -2.8495   -1.0042 C.ar    1  UNL1       -0.0261
     33 C          -4.2620   -1.6330   -1.2385 C.ar    1  UNL1       -0.0521
     34 O          -2.0572    0.0721   -1.3980 O.3     1  UNL1       -0.4388
     35 C          -0.9735   -0.5667   -0.7802 C.2     1  UNL1        0.4042
     36 O          -0.4237   -1.6073   -1.1834 O.2     1  UNL1       -0.2262
     37 H          -0.5786   -1.6379    2.6431 H       1  UNL1        0.0251
     38 H           1.1450   -2.0551    2.4214 H       1  UNL1        0.0251
     39 H          -0.1050   -2.5566    1.1606 H       1  UNL1        0.0251
     40 H           0.4635    0.3053    2.1585 H       1  UNL1        0.0549
     41 H           2.5598   -0.4622    2.7875 H       1  UNL1        0.0621
     42 H           4.9638   -0.1748    2.2277 H       1  UNL1        0.0624
     43 H           5.8131    1.4984   -1.8292 H       1  UNL1        0.0626
     44 H           8.1863    1.7413   -2.2690 H       1  UNL1        0.0672
     45 H           9.9070   -0.1836    1.7189 H       1  UNL1        0.0457
     46 H           8.8122   -1.5656    2.0072 H       1  UNL1        0.0457
     47 H           9.9282   -1.6104    0.5798 H       1  UNL1        0.0457
     48 H           6.6340   -1.0679    1.4898 H       1  UNL1        0.0816
     49 H           3.9201    0.2340   -1.8459 H       1  UNL1        0.0624
     50 H           1.5623   -0.0259   -1.3023 H       1  UNL1        0.0621
     51 H          -0.8940    1.8274    1.5737 H       1  UNL1        0.0467
     52 H          -0.8029    2.0104   -0.2456 H       1  UNL1        0.0467
     53 H          -2.9424    2.3784    0.2205 H       1  UNL1        0.0322
     54 H          -3.0836    1.1908    1.4960 H       1  UNL1        0.0322
     55 H          -3.4937    2.0506   -1.9208 H       1  UNL1        0.0322
     56 H          -4.3301    0.5677   -2.3796 H       1  UNL1        0.0322
     57 H          -5.1164    2.3943    1.1066 H       1  UNL1        0.0245
     58 H          -4.8395    3.7298   -0.1667 H       1  UNL1        0.0245
     59 H          -6.4303    3.0987    0.1883 H       1  UNL1        0.0245
     60 H          -6.2805    0.3266    0.4113 H       1  UNL1        0.0245
     61 H          -7.3588    1.3477   -0.5287 H       1  UNL1        0.0245
     62 H          -6.6293   -0.0007   -1.3926 H       1  UNL1        0.0245
     63 H          -3.6775   -0.6404    1.9106 H       1  UNL1        0.0622
     64 H          -4.7864   -2.8338    2.3470 H       1  UNL1        0.0646
     65 H          -5.2196   -3.4781   -1.8428 H       1  UNL1        0.0646
     66 H          -4.1543   -1.3876   -2.2961 H       1  UNL1        0.0622
@<TRIPOS>BOND
     1     1     2    1
     2     2     3    1
     3     3     4   ar
     4     4     5   ar
     5     5     6   ar
     6     6     7    1
     7     7     8   ar
     8     8     9   ar
     9     9    10   ar
    10    10    11    2
    11    10    12   ar
    12    12    13    1
    13    12    14   ar
    14     6    15   ar
    15    15    16   ar
    16     2    17    1
    17    17    18    1
    18    18    19    1
    19    19    20    1
    20    20    21    1
    21    21    22    1
    22    22    23    1
    23    22    24    1
    24    22    25    1
    25    25    26    3
    26    20    27    1
    27    27    28   ar
    28    28    29   ar
    29    29    30   ar
    30    30    31    1
    31    30    32   ar
    32    32    33   ar
    33    20    34    1
    34    34    35    1
    35    35    36    2
    36    16     3   ar
    37    35    17   am
    38    14     7   ar
    39    33    27   ar
    40     1    37    1
    41     1    38    1
    42     1    39    1
    43     2    40    1
    44     4    41    1
    45     5    42    1
    46     8    43    1
    47     9    44    1
    48    13    45    1
    49    13    46    1
    50    13    47    1
    51    14    48    1
    52    15    49    1
    53    16    50    1
    54    18    51    1
    55    18    52    1
    56    19    53    1
    57    19    54    1
    58    21    55    1
    59    21    56    1
    60    23    57    1
    61    23    58    1
    62    23    59    1
    63    24    60    1
    64    24    61    1
    65    24    62    1
    66    28    63    1
    67    29    64    1
    68    32    65    1
    69    33    66    1
