@<TRIPOS>MOLECULE
*****
 45 46 0 0 0
SMALL
GASTEIGER

@<TRIPOS>ATOM
      1 O           1.2283    0.7444   -1.1621 O.2     1  UNL1       -0.2755
      2 C           1.1328    1.4764   -0.0599 C.2     1  UNL1        0.2178
      3 N           1.7813    0.7479    0.9049 N.am    1  UNL1       -0.3021
      4 CA          2.3447   -0.6099    0.8035 C.3     1  UNL1        0.1202
      5 C           3.7894   -0.6583    1.0659 C.2     1  UNL1        0.3253
      6 O           4.4852   -1.6801    1.0340 O.2     1  UNL1       -0.2489
      7 OXT         4.3936    0.5809    1.3755 O.3     1  UNL1       -0.4793
      8 C           1.8489   -1.4836   -0.2939 C.3     1  UNL1       -0.0241
      9 C           0.4072   -1.8629   -0.0422 C.3     1  UNL1       -0.0509
     10 C          -0.2630   -2.6338   -1.1188 C.3     1  UNL1       -0.0527
     11 C          -1.6779   -2.9504   -0.7922 C.3     1  UNL1       -0.0491
     12 C          -2.6920   -1.8630   -0.8915 C.3     1  UNL1       -0.0277
     13 C          -2.4630   -0.6552   -0.0896 C.ar    1  UNL1       -0.0471
     14 C          -2.7902   -0.8856    1.2651 C.ar    1  UNL1       -0.0586
     15 C          -2.5843    0.0029    2.2795 C.ar    1  UNL1       -0.0612
     16 C          -2.0116    1.1874    1.8949 C.ar    1  UNL1       -0.0585
     17 C          -1.6553    1.4887    0.5556 C.ar    1  UNL1       -0.0464
     18 C          -1.8884    0.5742   -0.4269 C.ar    1  UNL1       -0.0554
     19 C          -0.8947    2.7891    0.5231 C.3     1  UNL1       -0.0158
     20 C           0.3996    2.7588   -0.2657 C.3     1  UNL1        0.0482
     21 C           0.2542    3.0625   -1.7322 C.3     1  UNL1        0.0021
     22 S           1.9790    3.1892   -2.3737 S.3     1  UNL1       -0.1775
     23 H           1.9606    1.0965    1.8581 H       1  UNL1        0.1495
     24 HA          1.8910   -1.1840    1.7237 H       1  UNL1        0.0614
     25 HXT         5.3848    0.7341    1.2282 H       1  UNL1        0.2951
     26 H           2.4315   -2.4616   -0.1297 H       1  UNL1        0.0288
     27 H           2.1081   -1.2339   -1.3165 H       1  UNL1        0.0288
     28 H          -0.1159   -1.0216    0.3007 H       1  UNL1        0.0266
     29 H           0.4800   -2.6612    0.8065 H       1  UNL1        0.0266
     30 H          -0.1664   -2.1293   -2.1243 H       1  UNL1        0.0265
     31 H           0.2871   -3.6247   -1.1826 H       1  UNL1        0.0265
     32 H          -1.7031   -3.4021    0.2344 H       1  UNL1        0.0268
     33 H          -1.9593   -3.8244   -1.4619 H       1  UNL1        0.0268
     34 H          -3.6458   -2.3732   -0.4361 H       1  UNL1        0.0313
     35 H          -3.0366   -1.8427   -1.9232 H       1  UNL1        0.0313
     36 H          -3.2473   -1.8519    1.5627 H       1  UNL1        0.0620
     37 H          -2.8528   -0.2109    3.3084 H       1  UNL1        0.0618
     38 H          -1.8444    1.9226    2.7030 H       1  UNL1        0.0620
     39 H          -1.6798    0.7829   -1.5320 H       1  UNL1        0.0623
     40 H          -0.5396    3.0576    1.5669 H       1  UNL1        0.0321
     41 H          -1.4805    3.6584    0.2378 H       1  UNL1        0.0321
     42 H           0.9907    3.6701    0.0774 H       1  UNL1        0.0405
     43 H          -0.2116    2.3258   -2.3539 H       1  UNL1        0.0381
     44 H          -0.1508    4.0908   -1.8249 H       1  UNL1        0.0381
     45 H           1.9762    3.1630   -3.7759 H       1  UNL1        0.1017
@<TRIPOS>BOND
     1     1     2    2
     2     2     3   am
     3     3     4    1
     4     4     5    1
     5     5     6    2
     6     5     7    1
     7     4     8    1
     8     8     9    1
     9     9    10    1
    10    10    11    1
    11    11    12    1
    12    12    13    1
    13    13    14   ar
    14    14    15   ar
    15    15    16   ar
    16    16    17   ar
    17    17    18   ar
    18    17    19    1
    19    19    20    1
    20    20    21    1
    21    21    22    1
    22    20     2    1
    23    18    13   ar
    24     3    23    1
    25     4    24    1
    26     7    25    1
    27     8    26    1
    28     8    27    1
    29     9    28    1
    30     9    29    1
    31    10    30    1
    32    10    31    1
    33    11    32    1
    34    11    33    1
    35    12    34    1
    36    12    35    1
    37    14    36    1
    38    15    37    1
    39    16    38    1
    40    18    39    1
    41    19    40    1
    42    19    41    1
    43    20    42    1
    44    21    43    1
    45    21    44    1
    46    22    45    1
