
     RDKit          3D

 45 46  0  0  0  0  0  0  0  0999 V2000
    1.2283    0.7444   -1.1621 O   0  0  0  0  0  0  0  0  0  0  0  0
    1.1328    1.4764   -0.0599 C   0  0  0  0  0  0  0  0  0  0  0  0
    1.7813    0.7479    0.9049 N   0  0  0  0  0  0  0  0  0  0  0  0
    2.3447   -0.6099    0.8035 C   0  0  2  0  0  0  0  0  0  0  0  0
    3.7894   -0.6583    1.0659 C   0  0  0  0  0  0  0  0  0  0  0  0
    4.4852   -1.6801    1.0340 O   0  0  0  0  0  0  0  0  0  0  0  0
    4.3936    0.5809    1.3755 O   0  0  0  0  0  0  0  0  0  0  0  0
    1.8489   -1.4836   -0.2939 C   0  0  0  0  0  0  0  0  0  0  0  0
    0.4072   -1.8629   -0.0422 C   0  0  0  0  0  0  0  0  0  0  0  0
   -0.2630   -2.6338   -1.1188 C   0  0  0  0  0  0  0  0  0  0  0  0
   -1.6779   -2.9504   -0.7922 C   0  0  0  0  0  0  0  0  0  0  0  0
   -2.6920   -1.8630   -0.8915 C   0  0  0  0  0  0  0  0  0  0  0  0
   -2.4630   -0.6552   -0.0896 C   0  0  0  0  0  0  0  0  0  0  0  0
   -2.7902   -0.8856    1.2651 C   0  0  0  0  0  0  0  0  0  0  0  0
   -2.5843    0.0029    2.2795 C   0  0  0  0  0  0  0  0  0  0  0  0
   -2.0116    1.1874    1.8949 C   0  0  0  0  0  0  0  0  0  0  0  0
   -1.6553    1.4887    0.5556 C   0  0  0  0  0  0  0  0  0  0  0  0
   -1.8884    0.5742   -0.4269 C   0  0  0  0  0  0  0  0  0  0  0  0
   -0.8947    2.7891    0.5231 C   0  0  0  0  0  0  0  0  0  0  0  0
    0.3996    2.7588   -0.2657 C   0  0  2  0  0  0  0  0  0  0  0  0
    0.2542    3.0625   -1.7322 C   0  0  0  0  0  0  0  0  0  0  0  0
    1.9790    3.1892   -2.3737 S   0  0  0  0  0  0  0  0  0  0  0  0
    1.9606    1.0965    1.8581 H   0  0  0  0  0  0  0  0  0  0  0  0
    1.8910   -1.1840    1.7237 H   0  0  0  0  0  0  0  0  0  0  0  0
    5.3848    0.7341    1.2282 H   0  0  0  0  0  0  0  0  0  0  0  0
    2.4315   -2.4616   -0.1297 H   0  0  0  0  0  0  0  0  0  0  0  0
    2.1081   -1.2339   -1.3165 H   0  0  0  0  0  0  0  0  0  0  0  0
   -0.1159   -1.0216    0.3007 H   0  0  0  0  0  0  0  0  0  0  0  0
    0.4800   -2.6612    0.8065 H   0  0  0  0  0  0  0  0  0  0  0  0
   -0.1664   -2.1293   -2.1243 H   0  0  0  0  0  0  0  0  0  0  0  0
    0.2871   -3.6247   -1.1826 H   0  0  0  0  0  0  0  0  0  0  0  0
   -1.7031   -3.4021    0.2344 H   0  0  0  0  0  0  0  0  0  0  0  0
   -1.9593   -3.8244   -1.4619 H   0  0  0  0  0  0  0  0  0  0  0  0
   -3.6458   -2.3732   -0.4361 H   0  0  0  0  0  0  0  0  0  0  0  0
   -3.0366   -1.8427   -1.9232 H   0  0  0  0  0  0  0  0  0  0  0  0
   -3.2473   -1.8519    1.5627 H   0  0  0  0  0  0  0  0  0  0  0  0
   -2.8528   -0.2109    3.3084 H   0  0  0  0  0  0  0  0  0  0  0  0
   -1.8444    1.9226    2.7030 H   0  0  0  0  0  0  0  0  0  0  0  0
   -1.6798    0.7829   -1.5320 H   0  0  0  0  0  0  0  0  0  0  0  0
   -0.5396    3.0576    1.5669 H   0  0  0  0  0  0  0  0  0  0  0  0
   -1.4805    3.6584    0.2378 H   0  0  0  0  0  0  0  0  0  0  0  0
    0.9907    3.6701    0.0774 H   0  0  0  0  0  0  0  0  0  0  0  0
   -0.2116    2.3258   -2.3539 H   0  0  0  0  0  0  0  0  0  0  0  0
   -0.1508    4.0908   -1.8249 H   0  0  0  0  0  0  0  0  0  0  0  0
    1.9762    3.1630   -3.7759 H   0  0  0  0  0  0  0  0  0  0  0  0
  1  2  2  0
  2  3  1  0
  3  4  1  0
  4  5  1  0
  5  6  2  0
  5  7  1  0
  4  8  1  0
  8  9  1  0
  9 10  1  0
 10 11  1  0
 11 12  1  0
 12 13  1  0
 13 14  2  0
 14 15  1  0
 15 16  2  0
 16 17  1  0
 17 18  2  0
 17 19  1  0
 19 20  1  0
 20 21  1  0
 21 22  1  0
 20  2  1  0
 18 13  1  0
  3 23  1  0
  4 24  1  1
  7 25  1  0
  8 26  1  0
  8 27  1  0
  9 28  1  0
  9 29  1  0
 10 30  1  0
 10 31  1  0
 11 32  1  0
 11 33  1  0
 12 34  1  0
 12 35  1  0
 14 36  1  0
 15 37  1  0
 16 38  1  0
 18 39  1  0
 19 40  1  0
 19 41  1  0
 20 42  1  1
 21 43  1  0
 21 44  1  0
 22 45  1  0
M  END
$$$$
