@<TRIPOS>MOLECULE
*****
 65 69 0 0 0
SMALL
GASTEIGER

@<TRIPOS>ATOM
      1 N          -7.6472   -1.6351    2.4234 N.2     1  UNL1       -0.1041
      2 C          -7.4855   -0.7997    1.4492 C.2     1  UNL1        0.2771
      3 C          -8.7936   -0.3851    0.8822 C.3     1  UNL1        0.0386
      4 N          -6.2937   -0.2610    0.8863 N.pl3   1  UNL1       -0.2248
      5 C          -5.4947   -1.0988    0.0087 C.3     1  UNL1        0.0836
      6 C          -4.0469   -0.8086    0.4132 C.3     1  UNL1        0.0205
      7 C          -3.7130    0.5938   -0.0336 C.3     1  UNL1        0.1070
      8 C          -4.8535    1.5532    0.1377 C.3     1  UNL1        0.0205
      9 C          -5.8599    1.0966    1.1661 C.3     1  UNL1        0.0836
     10 O          -3.3763    0.5136   -1.3846 O.3     1  UNL1       -0.4885
     11 C          -2.1371    0.7774   -1.9466 C.ar    1  UNL1        0.1230
     12 C          -0.9357    1.1722   -1.3943 C.ar    1  UNL1        0.0057
     13 C           0.1474    1.3591   -2.2290 C.ar    1  UNL1        0.0726
     14 C           0.0909    1.1727   -3.5779 C.ar    1  UNL1        0.0895
     15 C          -1.0996    0.7779   -4.1530 C.ar    1  UNL1       -0.0308
     16 C          -2.2156    0.5805   -3.3312 C.ar    1  UNL1       -0.0178
     17 N           1.3382    1.4559   -4.0028 N.ar    1  UNL1       -0.2326
     18 C           2.1414    1.8027   -2.9797 C.ar    1  UNL1        0.1079
     19 C           3.5697    2.1734   -3.0990 C.3     1  UNL1       -0.0062
     20 N           1.3948    1.7458   -1.8386 N.ar    1  UNL1       -0.3232
     21 C           1.8838    2.0429   -0.5400 C.3     1  UNL1        0.0500
     22 C           2.4519    0.9541    0.2405 C.ar    1  UNL1       -0.0271
     23 C           3.8072    0.6365    0.1746 C.ar    1  UNL1       -0.0491
     24 C           4.3553   -0.3940    0.9118 C.ar    1  UNL1       -0.0168
     25 C           3.5335   -1.1388    1.7454 C.ar    1  UNL1       -0.0178
     26 C           2.1870   -0.8568    1.8392 C.ar    1  UNL1       -0.0537
     27 C           1.6593    0.1776    1.0938 C.ar    1  UNL1       -0.0563
     28 C           4.0310   -2.1852    2.5088 C.ar    1  UNL1       -0.0532
     29 C           5.3866   -2.4236    2.3760 C.ar    1  UNL1       -0.0464
     30 C           6.2537   -1.7055    1.5537 C.ar    1  UNL1        0.0614
     31 C           5.6959   -0.6789    0.8220 C.ar    1  UNL1       -0.0393
     32 C           7.6526   -2.1150    1.5558 C.2     1  UNL1        0.2662
     33 N           8.2349   -2.6813    2.7226 N.pl3   1  UNL1       -0.2497
     34 N           8.3737   -1.9665    0.4975 N.2     1  UNL1       -0.2884
     35 H          -6.8263   -2.0083    2.9123 H       1  UNL1        0.3629
     36 H          -8.6952    0.0042   -0.1565 H       1  UNL1        0.0351
     37 H          -9.5119   -1.2440    0.7815 H       1  UNL1        0.0351
     38 H          -9.3089    0.3554    1.5264 H       1  UNL1        0.0351
     39 H          -5.7578   -2.1522    0.0639 H       1  UNL1        0.0727
     40 H          -5.5521   -0.7262   -1.0536 H       1  UNL1        0.0727
     41 H          -3.3920   -1.5629   -0.0286 H       1  UNL1        0.0337
     42 H          -4.0148   -0.9050    1.5172 H       1  UNL1        0.0337
     43 H          -2.8150    0.9141    0.5329 H       1  UNL1        0.0735
     44 H          -4.4380    2.5124    0.5153 H       1  UNL1        0.0337
     45 H          -5.3152    1.7658   -0.8315 H       1  UNL1        0.0337
     46 H          -6.7680    1.7413    0.9964 H       1  UNL1        0.0727
     47 H          -5.5336    1.2520    2.1931 H       1  UNL1        0.0727
     48 H          -1.0145    1.2853   -0.3349 H       1  UNL1        0.0675
     49 H          -1.0891    0.6463   -5.2130 H       1  UNL1        0.0641
     50 H          -3.0751    0.2735   -3.9206 H       1  UNL1        0.0655
     51 H           3.6955    2.6558   -4.0990 H       1  UNL1        0.0307
     52 H           4.2688    1.3261   -3.0867 H       1  UNL1        0.0307
     53 H           3.8468    2.9943   -2.3755 H       1  UNL1        0.0307
     54 H           2.6744    2.8319   -0.6399 H       1  UNL1        0.0542
     55 H           1.0753    2.5246    0.0323 H       1  UNL1        0.0542
     56 H           4.4640    1.2116   -0.4746 H       1  UNL1        0.0627
     57 H           1.5521   -1.4406    2.4904 H       1  UNL1        0.0624
     58 H           0.6058    0.3586    1.2007 H       1  UNL1        0.0621
     59 H           3.4220   -2.7745    3.1584 H       1  UNL1        0.0624
     60 H           5.7869   -3.2493    2.9761 H       1  UNL1        0.0626
     61 H           6.3760   -0.1303    0.1895 H       1  UNL1        0.0632
     62 H           8.6237   -1.7897    3.1197 H       1  UNL1        0.2883
     63 H           8.2356   -3.6823    3.0247 H       1  UNL1        0.2883
     64 H           8.8688   -1.8047   -0.4056 H       1  UNL1        0.3009
     65 H           9.3749   -2.2558    0.4910 H       1  UNL1        0.3009
@<TRIPOS>UNITY_ATOM_ATTR
34 1
charge 1
@<TRIPOS>BOND
     1     1     2    2
     2     2     3    1
     3     2     4    1
     4     4     5    1
     5     5     6    1
     6     6     7    1
     7     7     8    1
     8     8     9    1
     9     7    10    1
    10    10    11    1
    11    11    12   ar
    12    12    13   ar
    13    13    14   ar
    14    14    15   ar
    15    15    16   ar
    16    14    17   ar
    17    17    18   ar
    18    18    19    1
    19    18    20   ar
    20    20    21    1
    21    21    22    1
    22    22    23   ar
    23    23    24   ar
    24    24    25   ar
    25    25    26   ar
    26    26    27   ar
    27    25    28   ar
    28    28    29   ar
    29    29    30   ar
    30    30    31   ar
    31    30    32    1
    32    32    33    1
    33    32    34    2
    34     9     4    1
    35    16    11   ar
    36    27    22   ar
    37    20    13   ar
    38    31    24   ar
    39     1    35    1
    40     3    36    1
    41     3    37    1
    42     3    38    1
    43     5    39    1
    44     5    40    1
    45     6    41    1
    46     6    42    1
    47     7    43    1
    48     8    44    1
    49     8    45    1
    50     9    46    1
    51     9    47    1
    52    12    48    1
    53    15    49    1
    54    16    50    1
    55    19    51    1
    56    19    52    1
    57    19    53    1
    58    21    54    1
    59    21    55    1
    60    23    56    1
    61    26    57    1
    62    27    58    1
    63    28    59    1
    64    29    60    1
    65    31    61    1
    66    33    62    1
    67    33    63    1
    68    34    64    1
    69    34    65    1
