
     RDKit          3D

 65 69  0  0  0  0  0  0  0  0999 V2000
   -7.6472   -1.6351    2.4234 N   0  0  0  0  0  0  0  0  0  0  0  0
   -7.4855   -0.7997    1.4492 C   0  0  0  0  0  0  0  0  0  0  0  0
   -8.7936   -0.3851    0.8822 C   0  0  0  0  0  0  0  0  0  0  0  0
   -6.2937   -0.2610    0.8863 N   0  0  0  0  0  0  0  0  0  0  0  0
   -5.4947   -1.0988    0.0087 C   0  0  0  0  0  0  0  0  0  0  0  0
   -4.0469   -0.8086    0.4132 C   0  0  0  0  0  0  0  0  0  0  0  0
   -3.7130    0.5938   -0.0336 C   0  0  0  0  0  0  0  0  0  0  0  0
   -4.8535    1.5532    0.1377 C   0  0  0  0  0  0  0  0  0  0  0  0
   -5.8599    1.0966    1.1661 C   0  0  0  0  0  0  0  0  0  0  0  0
   -3.3763    0.5136   -1.3846 O   0  0  0  0  0  0  0  0  0  0  0  0
   -2.1371    0.7774   -1.9466 C   0  0  0  0  0  0  0  0  0  0  0  0
   -0.9357    1.1722   -1.3943 C   0  0  0  0  0  0  0  0  0  0  0  0
    0.1474    1.3591   -2.2290 C   0  0  0  0  0  0  0  0  0  0  0  0
    0.0909    1.1727   -3.5779 C   0  0  0  0  0  0  0  0  0  0  0  0
   -1.0996    0.7779   -4.1530 C   0  0  0  0  0  0  0  0  0  0  0  0
   -2.2156    0.5805   -3.3312 C   0  0  0  0  0  0  0  0  0  0  0  0
    1.3382    1.4559   -4.0028 N   0  0  0  0  0  0  0  0  0  0  0  0
    2.1414    1.8027   -2.9797 C   0  0  0  0  0  0  0  0  0  0  0  0
    3.5697    2.1734   -3.0990 C   0  0  0  0  0  0  0  0  0  0  0  0
    1.3948    1.7458   -1.8386 N   0  0  0  0  0  0  0  0  0  0  0  0
    1.8838    2.0429   -0.5400 C   0  0  0  0  0  0  0  0  0  0  0  0
    2.4519    0.9541    0.2405 C   0  0  0  0  0  0  0  0  0  0  0  0
    3.8072    0.6365    0.1746 C   0  0  0  0  0  0  0  0  0  0  0  0
    4.3553   -0.3940    0.9118 C   0  0  0  0  0  0  0  0  0  0  0  0
    3.5335   -1.1388    1.7454 C   0  0  0  0  0  0  0  0  0  0  0  0
    2.1870   -0.8568    1.8392 C   0  0  0  0  0  0  0  0  0  0  0  0
    1.6593    0.1776    1.0938 C   0  0  0  0  0  0  0  0  0  0  0  0
    4.0310   -2.1852    2.5088 C   0  0  0  0  0  0  0  0  0  0  0  0
    5.3866   -2.4236    2.3760 C   0  0  0  0  0  0  0  0  0  0  0  0
    6.2537   -1.7055    1.5537 C   0  0  0  0  0  0  0  0  0  0  0  0
    5.6959   -0.6789    0.8220 C   0  0  0  0  0  0  0  0  0  0  0  0
    7.6526   -2.1150    1.5558 C   0  0  0  0  0  0  0  0  0  0  0  0
    8.2349   -2.6813    2.7226 N   0  0  0  0  0  0  0  0  0  0  0  0
    8.3737   -1.9665    0.4975 N   0  0  0  0  0  4  0  0  0  0  0  0
   -6.8263   -2.0083    2.9123 H   0  0  0  0  0  0  0  0  0  0  0  0
   -8.6952    0.0042   -0.1565 H   0  0  0  0  0  0  0  0  0  0  0  0
   -9.5119   -1.2440    0.7815 H   0  0  0  0  0  0  0  0  0  0  0  0
   -9.3089    0.3554    1.5264 H   0  0  0  0  0  0  0  0  0  0  0  0
   -5.7578   -2.1522    0.0639 H   0  0  0  0  0  0  0  0  0  0  0  0
   -5.5521   -0.7262   -1.0536 H   0  0  0  0  0  0  0  0  0  0  0  0
   -3.3920   -1.5629   -0.0286 H   0  0  0  0  0  0  0  0  0  0  0  0
   -4.0148   -0.9050    1.5172 H   0  0  0  0  0  0  0  0  0  0  0  0
   -2.8150    0.9141    0.5329 H   0  0  0  0  0  0  0  0  0  0  0  0
   -4.4380    2.5124    0.5153 H   0  0  0  0  0  0  0  0  0  0  0  0
   -5.3152    1.7658   -0.8315 H   0  0  0  0  0  0  0  0  0  0  0  0
   -6.7680    1.7413    0.9964 H   0  0  0  0  0  0  0  0  0  0  0  0
   -5.5336    1.2520    2.1931 H   0  0  0  0  0  0  0  0  0  0  0  0
   -1.0145    1.2853   -0.3349 H   0  0  0  0  0  0  0  0  0  0  0  0
   -1.0891    0.6463   -5.2130 H   0  0  0  0  0  0  0  0  0  0  0  0
   -3.0751    0.2735   -3.9206 H   0  0  0  0  0  0  0  0  0  0  0  0
    3.6955    2.6558   -4.0990 H   0  0  0  0  0  0  0  0  0  0  0  0
    4.2688    1.3261   -3.0867 H   0  0  0  0  0  0  0  0  0  0  0  0
    3.8468    2.9943   -2.3755 H   0  0  0  0  0  0  0  0  0  0  0  0
    2.6744    2.8319   -0.6399 H   0  0  0  0  0  0  0  0  0  0  0  0
    1.0753    2.5246    0.0323 H   0  0  0  0  0  0  0  0  0  0  0  0
    4.4640    1.2116   -0.4746 H   0  0  0  0  0  0  0  0  0  0  0  0
    1.5521   -1.4406    2.4904 H   0  0  0  0  0  0  0  0  0  0  0  0
    0.6058    0.3586    1.2007 H   0  0  0  0  0  0  0  0  0  0  0  0
    3.4220   -2.7745    3.1584 H   0  0  0  0  0  0  0  0  0  0  0  0
    5.7869   -3.2493    2.9761 H   0  0  0  0  0  0  0  0  0  0  0  0
    6.3760   -0.1303    0.1895 H   0  0  0  0  0  0  0  0  0  0  0  0
    8.6237   -1.7897    3.1197 H   0  0  0  0  0  0  0  0  0  0  0  0
    8.2356   -3.6823    3.0247 H   0  0  0  0  0  0  0  0  0  0  0  0
    8.8688   -1.8047   -0.4056 H   0  0  0  0  0  0  0  0  0  0  0  0
    9.3749   -2.2558    0.4910 H   0  0  0  0  0  0  0  0  0  0  0  0
  1  2  2  3
  2  3  1  0
  2  4  1  0
  4  5  1  0
  5  6  1  0
  6  7  1  0
  7  8  1  0
  8  9  1  0
  7 10  1  0
 10 11  1  0
 11 12  2  0
 12 13  1  0
 13 14  2  0
 14 15  1  0
 15 16  2  0
 14 17  1  0
 17 18  2  0
 18 19  1  0
 18 20  1  0
 20 21  1  0
 21 22  1  0
 22 23  2  0
 23 24  1  0
 24 25  2  0
 25 26  1  0
 26 27  2  0
 25 28  1  0
 28 29  2  0
 29 30  1  0
 30 31  2  0
 30 32  1  0
 32 33  1  0
 32 34  2  0
  9  4  1  0
 16 11  1  0
 27 22  1  0
 20 13  1  0
 31 24  1  0
  1 35  1  0
  3 36  1  0
  3 37  1  0
  3 38  1  0
  5 39  1  0
  5 40  1  0
  6 41  1  0
  6 42  1  0
  7 43  1  0
  8 44  1  0
  8 45  1  0
  9 46  1  0
  9 47  1  0
 12 48  1  0
 15 49  1  0
 16 50  1  0
 19 51  1  0
 19 52  1  0
 19 53  1  0
 21 54  1  0
 21 55  1  0
 23 56  1  0
 26 57  1  0
 27 58  1  0
 28 59  1  0
 29 60  1  0
 31 61  1  0
 33 62  1  0
 33 63  1  0
 34 64  1  0
 34 65  1  0
M  CHG  1  34   1
M  END
$$$$
