@<TRIPOS>MOLECULE
*****
 46 50 0 0 0
SMALL
GASTEIGER

@<TRIPOS>ATOM
      1 O           2.3298   -1.0466    4.2318 O.2     1  UNL1       -0.2446
      2 C           1.2685   -1.2696    3.5977 C.ar    1  UNL1        0.3489
      3 N           0.0812   -1.6577    4.0637 N.ar    1  UNL1       -0.2260
      4 N          -0.7441   -1.7689    3.0436 N.ar    1  UNL1       -0.1509
      5 C          -0.1088   -1.4540    1.8849 C.ar    1  UNL1        0.1693
      6 C          -0.6717   -1.4535    0.5415 C.ar    1  UNL1        0.0243
      7 C          -0.2260   -2.3110   -0.4406 C.ar    1  UNL1       -0.0327
      8 C          -0.7440   -2.3270   -1.7159 C.ar    1  UNL1        0.0304
      9 N          -1.7438   -1.4500   -2.0105 N.ar    1  UNL1       -0.2405
     10 C          -2.2235   -0.5888   -1.1005 C.ar    1  UNL1        0.1195
     11 N          -3.2679    0.3009   -1.4712 N.pl3   1  UNL1       -0.3262
     12 C          -3.8440    1.2575   -0.5638 C.3     1  UNL1        0.0220
     13 C          -4.9280    2.0687   -1.2156 C.3     1  UNL1       -0.0345
     14 C          -5.9210    1.0095   -0.7934 C.3     1  UNL1       -0.0497
     15 C          -4.9313    0.6156    0.3035 C.3     1  UNL1       -0.0345
     16 C          -1.6875   -0.5863    0.1854 C.ar    1  UNL1       -0.0112
     17 N           1.1495   -1.1437    2.2472 N.ar    1  UNL1       -0.2437
     18 C           2.1823   -0.7483    1.3514 C.ar    1  UNL1        0.0535
     19 C           2.9719   -1.6737    0.6990 C.ar    1  UNL1       -0.0370
     20 C           3.9759   -1.2993   -0.1715 C.ar    1  UNL1       -0.0521
     21 C           4.2332    0.0288   -0.4272 C.ar    1  UNL1       -0.0178
     22 C           5.2445    0.3893   -1.3036 C.ar    1  UNL1       -0.0540
     23 C           5.4916    1.7316   -1.5510 C.ar    1  UNL1       -0.0612
     24 C           4.7159    2.6809   -0.9112 C.ar    1  UNL1       -0.0612
     25 C           3.7144    2.2962   -0.0425 C.ar    1  UNL1       -0.0540
     26 C           3.4535    0.9669    0.2163 C.ar    1  UNL1       -0.0159
     27 C           2.4512    0.5849    1.0856 C.ar    1  UNL1       -0.0299
     28 H          -0.1472   -1.8405    5.0701 H       1  UNL1        0.1937
     29 H           0.5668   -3.0104   -0.2166 H       1  UNL1        0.0640
     30 H          -0.4093   -2.9853   -2.4881 H       1  UNL1        0.0830
     31 H          -3.6372    0.2626   -2.4445 H       1  UNL1        0.1477
     32 H          -3.1380    1.8196    0.0703 H       1  UNL1        0.0498
     33 H          -5.1608    3.0375   -0.7202 H       1  UNL1        0.0283
     34 H          -4.8049    2.1554   -2.3174 H       1  UNL1        0.0283
     35 H          -6.8759    1.3978   -0.3861 H       1  UNL1        0.0266
     36 H          -6.0273    0.2161   -1.5665 H       1  UNL1        0.0266
     37 H          -5.1118    1.1281    1.2531 H       1  UNL1        0.0283
     38 H          -4.8205   -0.4639    0.4483 H       1  UNL1        0.0283
     39 H          -2.0862    0.1150    0.9072 H       1  UNL1        0.0659
     40 H           2.8014   -2.7251    0.8731 H       1  UNL1        0.0638
     41 H           4.5970   -2.0445   -0.6842 H       1  UNL1        0.0624
     42 H           5.8613   -0.3468   -1.8129 H       1  UNL1        0.0624
     43 H           6.2784    2.0356   -2.2334 H       1  UNL1        0.0618
     44 H           4.9350    3.7204   -1.1265 H       1  UNL1        0.0618
     45 H           3.1275    3.0645    0.4402 H       1  UNL1        0.0624
     46 H           1.8301    1.3120    1.5988 H       1  UNL1        0.0644
@<TRIPOS>BOND
     1     1     2    2
     2     2     3   ar
     3     3     4   ar
     4     4     5   ar
     5     5     6    1
     6     6     7   ar
     7     7     8   ar
     8     8     9   ar
     9     9    10   ar
    10    10    11    1
    11    11    12    1
    12    12    13    1
    13    13    14    1
    14    14    15    1
    15    10    16   ar
    16     5    17   ar
    17    17    18    1
    18    18    19   ar
    19    19    20   ar
    20    20    21   ar
    21    21    22   ar
    22    22    23   ar
    23    23    24   ar
    24    24    25   ar
    25    25    26   ar
    26    26    27   ar
    27    17     2   ar
    28    27    18   ar
    29    16     6   ar
    30    26    21   ar
    31    15    12    1
    32     3    28    1
    33     7    29    1
    34     8    30    1
    35    11    31    1
    36    12    32    1
    37    13    33    1
    38    13    34    1
    39    14    35    1
    40    14    36    1
    41    15    37    1
    42    15    38    1
    43    16    39    1
    44    19    40    1
    45    20    41    1
    46    22    42    1
    47    23    43    1
    48    24    44    1
    49    25    45    1
    50    27    46    1
