@<TRIPOS>MOLECULE
*****
 41 44 0 0 0
SMALL
GASTEIGER

@<TRIPOS>ATOM
      1 O          -1.9702    3.0609   -0.7183 O.2     1  UNL1       -0.2506
      2 C          -2.9969    3.0255    0.0348 C.2     1  UNL1        0.3107
      3 O          -3.4528    4.2591    0.4844 O.3     1  UNL1       -0.4803
      4 C          -3.6579    1.7580    0.4051 C.3     1  UNL1        0.0892
      5 C          -2.9060    0.6441   -0.2516 C.ar    1  UNL1        0.0802
      6 N          -1.8308    0.8568   -1.0241 N.ar    1  UNL1       -0.1717
      7 N          -1.1509   -0.1124   -1.6144 N.ar    1  UNL1       -0.2223
      8 C          -0.0029    0.1042   -2.4406 C.3     1  UNL1        0.0937
      9 C           1.2793    0.0933   -1.6960 C.ar    1  UNL1        0.1009
     10 N           2.1960   -0.4791   -1.2950 N.ar    1  UNL1       -0.2421
     11 C           3.2318   -0.0620   -0.5885 C.ar    1  UNL1        0.0791
     12 C           4.3484   -0.7903   -0.1074 C.ar    1  UNL1       -0.0236
     13 C           5.3228   -0.1463    0.6171 C.ar    1  UNL1        0.0569
     14 C           6.5198   -0.9073    1.1374 C.3     1  UNL1        0.4175
     15 F           6.2515   -2.2584    1.2024 F       1  UNL1       -0.1659
     16 F           6.8023   -0.3999    2.3915 F       1  UNL1       -0.1659
     17 F           7.5835   -0.6176    0.3063 F       1  UNL1       -0.1659
     18 C           5.2978    1.1950    0.9218 C.ar    1  UNL1       -0.0489
     19 C           4.1999    1.9304    0.4534 C.ar    1  UNL1       -0.0454
     20 C           3.2505    1.2573   -0.2634 C.ar    1  UNL1        0.0393
     21 S           1.6835    1.8150   -1.0491 S.2     1  UNL1       -0.0703
     22 C          -1.5794   -1.3747   -1.4151 C.ar    1  UNL1        0.2754
     23 O          -0.9619   -2.3250   -1.9576 O.2     1  UNL1       -0.2655
     24 C          -2.6747   -1.6724   -0.6356 C.ar    1  UNL1        0.0498
     25 C          -3.1377   -2.9464   -0.4119 C.ar    1  UNL1       -0.0487
     26 C          -4.2325   -3.2368    0.3679 C.ar    1  UNL1       -0.0610
     27 C          -4.9206   -2.1801    0.9723 C.ar    1  UNL1       -0.0611
     28 C          -4.4751   -0.8941    0.7627 C.ar    1  UNL1       -0.0521
     29 C          -3.3791   -0.6334   -0.0208 C.ar    1  UNL1        0.0108
     30 H          -2.8233    5.0080    0.7582 H       1  UNL1        0.2951
     31 H          -3.6984    1.6132    1.5083 H       1  UNL1        0.0442
     32 H          -4.7163    1.7859    0.0673 H       1  UNL1        0.0442
     33 H           0.1040   -0.7072   -3.2194 H       1  UNL1        0.0580
     34 H          -0.1814    1.0200   -3.0352 H       1  UNL1        0.0580
     35 H           4.4699   -1.8390   -0.2860 H       1  UNL1        0.0645
     36 H           6.0611    1.6740    1.4833 H       1  UNL1        0.0623
     37 H           4.0972    3.0060    0.6493 H       1  UNL1        0.0629
     38 H          -2.5912   -3.7530   -0.8889 H       1  UNL1        0.0625
     39 H          -4.5713   -4.2492    0.5242 H       1  UNL1        0.0618
     40 H          -5.7713   -2.4312    1.5759 H       1  UNL1        0.0618
     41 H          -5.0168   -0.0909    1.2358 H       1  UNL1        0.0624
@<TRIPOS>BOND
     1     1     2    2
     2     2     3    1
     3     2     4    1
     4     4     5    1
     5     5     6   ar
     6     6     7   ar
     7     7     8    1
     8     8     9    1
     9     9    10   ar
    10    10    11   ar
    11    11    12   ar
    12    12    13   ar
    13    13    14    1
    14    14    15    1
    15    14    16    1
    16    14    17    1
    17    13    18   ar
    18    18    19   ar
    19    19    20   ar
    20    20    21   ar
    21     7    22   ar
    22    22    23    2
    23    22    24   ar
    24    24    25   ar
    25    25    26   ar
    26    26    27   ar
    27    27    28   ar
    28    28    29   ar
    29    29     5   ar
    30    21     9   ar
    31    29    24   ar
    32    20    11   ar
    33     3    30    1
    34     4    31    1
    35     4    32    1
    36     8    33    1
    37     8    34    1
    38    12    35    1
    39    18    36    1
    40    19    37    1
    41    25    38    1
    42    26    39    1
    43    27    40    1
    44    28    41    1
