@<TRIPOS>MOLECULE
*****
 43 42 0 0 0
SMALL
GASTEIGER

@<TRIPOS>ATOM
      1 C          -6.9990   -1.0236   -1.6449 C.3     1  UNL1       -0.0416
      2 C          -5.5074   -1.0176   -1.2654 C.3     1  UNL1        0.0449
      3 O          -5.4264   -1.6467   -0.0563 O.3     1  UNL1       -0.3778
      4 C          -4.1940   -1.7877    0.5063 C.3     1  UNL1        0.0710
      5 C          -3.4372   -0.5417    0.8051 C.3     1  UNL1        0.0711
      6 O          -3.1667    0.2442   -0.2808 O.3     1  UNL1       -0.3752
      7 C          -2.4722    1.4023   -0.0406 C.3     1  UNL1        0.0711
      8 C          -1.1006    1.1784    0.5773 C.3     1  UNL1        0.0711
      9 O          -0.5098    2.4146    0.7666 O.3     1  UNL1       -0.3752
     10 C           0.7339    2.4107    1.3402 C.3     1  UNL1        0.0711
     11 C           1.7741    1.6511    0.5353 C.3     1  UNL1        0.0711
     12 O           2.9628    1.7460    1.2367 O.3     1  UNL1       -0.3752
     13 C           3.9989    1.1117    0.5786 C.3     1  UNL1        0.0711
     14 C           3.8015   -0.3590    0.3569 C.3     1  UNL1        0.0710
     15 O           4.8268   -1.0006   -0.2962 O.3     1  UNL1       -0.3778
     16 C           6.0290   -0.9419    0.3481 C.3     1  UNL1        0.0449
     17 C           7.0749   -1.7124   -0.4731 C.3     1  UNL1       -0.0416
     18 H          -7.5127   -0.5603   -0.7613 H       1  UNL1        0.0252
     19 H          -7.1333   -0.2701   -2.4570 H       1  UNL1        0.0252
     20 H          -7.3646   -2.0149   -1.9083 H       1  UNL1        0.0252
     21 H          -5.2420    0.0590   -1.2712 H       1  UNL1        0.0557
     22 H          -4.9733   -1.4900   -2.1017 H       1  UNL1        0.0557
     23 H          -3.5085   -2.4495   -0.0953 H       1  UNL1        0.0583
     24 H          -4.3398   -2.3791    1.4559 H       1  UNL1        0.0583
     25 H          -2.4391   -0.8570    1.2179 H       1  UNL1        0.0583
     26 H          -3.9079    0.0098    1.6503 H       1  UNL1        0.0583
     27 H          -3.0519    1.9671    0.7346 H       1  UNL1        0.0583
     28 H          -2.4193    1.9977   -0.9536 H       1  UNL1        0.0583
     29 H          -0.4862    0.5072   -0.0561 H       1  UNL1        0.0583
     30 H          -1.2090    0.7241    1.5717 H       1  UNL1        0.0583
     31 H           0.7326    1.9555    2.3666 H       1  UNL1        0.0583
     32 H           1.0754    3.4513    1.4693 H       1  UNL1        0.0583
     33 H           1.8523    2.0947   -0.4661 H       1  UNL1        0.0583
     34 H           1.4069    0.5943    0.5117 H       1  UNL1        0.0583
     35 H           4.2002    1.6019   -0.4209 H       1  UNL1        0.0583
     36 H           4.9544    1.2719    1.1503 H       1  UNL1        0.0583
     37 H           3.7140   -0.8519    1.3674 H       1  UNL1        0.0583
     38 H           2.8377   -0.5900   -0.1480 H       1  UNL1        0.0583
     39 H           5.9752   -1.3713    1.3585 H       1  UNL1        0.0557
     40 H           6.4271    0.1047    0.4978 H       1  UNL1        0.0557
     41 H           6.6842   -1.8359   -1.4975 H       1  UNL1        0.0252
     42 H           8.0080   -1.1132   -0.5509 H       1  UNL1        0.0252
     43 H           7.3309   -2.6838   -0.0128 H       1  UNL1        0.0252
@<TRIPOS>BOND
     1     1     2    1
     2     2     3    1
     3     3     4    1
     4     4     5    1
     5     5     6    1
     6     6     7    1
     7     7     8    1
     8     8     9    1
     9     9    10    1
    10    10    11    1
    11    11    12    1
    12    12    13    1
    13    13    14    1
    14    14    15    1
    15    15    16    1
    16    16    17    1
    17     1    18    1
    18     1    19    1
    19     1    20    1
    20     2    21    1
    21     2    22    1
    22     4    23    1
    23     4    24    1
    24     5    25    1
    25     5    26    1
    26     7    27    1
    27     7    28    1
    28     8    29    1
    29     8    30    1
    30    10    31    1
    31    10    32    1
    32    11    33    1
    33    11    34    1
    34    13    35    1
    35    13    36    1
    36    14    37    1
    37    14    38    1
    38    16    39    1
    39    16    40    1
    40    17    41    1
    41    17    42    1
    42    17    43    1
