
     RDKit          3D

 43 42  0  0  0  0  0  0  0  0999 V2000
   -6.9990   -1.0236   -1.6449 C   0  0  0  0  0  0  0  0  0  0  0  0
   -5.5074   -1.0176   -1.2654 C   0  0  0  0  0  0  0  0  0  0  0  0
   -5.4264   -1.6467   -0.0563 O   0  0  0  0  0  0  0  0  0  0  0  0
   -4.1940   -1.7877    0.5063 C   0  0  0  0  0  0  0  0  0  0  0  0
   -3.4372   -0.5417    0.8051 C   0  0  0  0  0  0  0  0  0  0  0  0
   -3.1667    0.2442   -0.2808 O   0  0  0  0  0  0  0  0  0  0  0  0
   -2.4722    1.4023   -0.0406 C   0  0  0  0  0  0  0  0  0  0  0  0
   -1.1006    1.1784    0.5773 C   0  0  0  0  0  0  0  0  0  0  0  0
   -0.5098    2.4146    0.7666 O   0  0  0  0  0  0  0  0  0  0  0  0
    0.7339    2.4107    1.3402 C   0  0  0  0  0  0  0  0  0  0  0  0
    1.7741    1.6511    0.5353 C   0  0  0  0  0  0  0  0  0  0  0  0
    2.9628    1.7460    1.2367 O   0  0  0  0  0  0  0  0  0  0  0  0
    3.9989    1.1117    0.5786 C   0  0  0  0  0  0  0  0  0  0  0  0
    3.8015   -0.3590    0.3569 C   0  0  0  0  0  0  0  0  0  0  0  0
    4.8268   -1.0006   -0.2962 O   0  0  0  0  0  0  0  0  0  0  0  0
    6.0290   -0.9419    0.3481 C   0  0  0  0  0  0  0  0  0  0  0  0
    7.0749   -1.7124   -0.4731 C   0  0  0  0  0  0  0  0  0  0  0  0
   -7.5127   -0.5603   -0.7613 H   0  0  0  0  0  0  0  0  0  0  0  0
   -7.1333   -0.2701   -2.4570 H   0  0  0  0  0  0  0  0  0  0  0  0
   -7.3646   -2.0149   -1.9083 H   0  0  0  0  0  0  0  0  0  0  0  0
   -5.2420    0.0590   -1.2712 H   0  0  0  0  0  0  0  0  0  0  0  0
   -4.9733   -1.4900   -2.1017 H   0  0  0  0  0  0  0  0  0  0  0  0
   -3.5085   -2.4495   -0.0953 H   0  0  0  0  0  0  0  0  0  0  0  0
   -4.3398   -2.3791    1.4559 H   0  0  0  0  0  0  0  0  0  0  0  0
   -2.4391   -0.8570    1.2179 H   0  0  0  0  0  0  0  0  0  0  0  0
   -3.9079    0.0098    1.6503 H   0  0  0  0  0  0  0  0  0  0  0  0
   -3.0519    1.9671    0.7346 H   0  0  0  0  0  0  0  0  0  0  0  0
   -2.4193    1.9977   -0.9536 H   0  0  0  0  0  0  0  0  0  0  0  0
   -0.4862    0.5072   -0.0561 H   0  0  0  0  0  0  0  0  0  0  0  0
   -1.2090    0.7241    1.5717 H   0  0  0  0  0  0  0  0  0  0  0  0
    0.7326    1.9555    2.3666 H   0  0  0  0  0  0  0  0  0  0  0  0
    1.0754    3.4513    1.4693 H   0  0  0  0  0  0  0  0  0  0  0  0
    1.8523    2.0947   -0.4661 H   0  0  0  0  0  0  0  0  0  0  0  0
    1.4069    0.5943    0.5117 H   0  0  0  0  0  0  0  0  0  0  0  0
    4.2002    1.6019   -0.4209 H   0  0  0  0  0  0  0  0  0  0  0  0
    4.9544    1.2719    1.1503 H   0  0  0  0  0  0  0  0  0  0  0  0
    3.7140   -0.8519    1.3674 H   0  0  0  0  0  0  0  0  0  0  0  0
    2.8377   -0.5900   -0.1480 H   0  0  0  0  0  0  0  0  0  0  0  0
    5.9752   -1.3713    1.3585 H   0  0  0  0  0  0  0  0  0  0  0  0
    6.4271    0.1047    0.4978 H   0  0  0  0  0  0  0  0  0  0  0  0
    6.6842   -1.8359   -1.4975 H   0  0  0  0  0  0  0  0  0  0  0  0
    8.0080   -1.1132   -0.5509 H   0  0  0  0  0  0  0  0  0  0  0  0
    7.3309   -2.6838   -0.0128 H   0  0  0  0  0  0  0  0  0  0  0  0
  1  2  1  0
  2  3  1  0
  3  4  1  0
  4  5  1  0
  5  6  1  0
  6  7  1  0
  7  8  1  0
  8  9  1  0
  9 10  1  0
 10 11  1  0
 11 12  1  0
 12 13  1  0
 13 14  1  0
 14 15  1  0
 15 16  1  0
 16 17  1  0
  1 18  1  0
  1 19  1  0
  1 20  1  0
  2 21  1  0
  2 22  1  0
  4 23  1  0
  4 24  1  0
  5 25  1  0
  5 26  1  0
  7 27  1  0
  7 28  1  0
  8 29  1  0
  8 30  1  0
 10 31  1  0
 10 32  1  0
 11 33  1  0
 11 34  1  0
 13 35  1  0
 13 36  1  0
 14 37  1  0
 14 38  1  0
 16 39  1  0
 16 40  1  0
 17 41  1  0
 17 42  1  0
 17 43  1  0
M  END
$$$$
