@<TRIPOS>MOLECULE
*****
 24 26 0 0 0
SMALL
GASTEIGER

@<TRIPOS>ATOM
      1 C          -1.9261    2.6915    0.1161 C.3     1  UNL1        0.0791
      2 O          -1.4662    1.6898   -0.7342 O.3     1  UNL1       -0.4884
      3 C          -0.7560    0.5649   -0.4045 C.ar    1  UNL1        0.2061
      4 C           0.6345    0.5411   -0.3762 C.ar    1  UNL1        0.1841
      5 O           1.2954    1.6357   -0.6760 O.2     1  UNL1       -0.4183
      6 C           2.6175    1.6659   -0.6641 C.ar    1  UNL1        0.3373
      7 O           3.3088    2.6933   -0.9445 O.2     1  UNL1       -0.2452
      8 C           3.3698    0.5561   -0.3380 C.ar    1  UNL1        0.0236
      9 C           2.7284   -0.6387   -0.0094 C.ar    1  UNL1       -0.0442
     10 C           1.3562   -0.6082   -0.0394 C.ar    1  UNL1        0.0221
     11 C           0.6722   -1.7715    0.2796 C.ar    1  UNL1       -0.0401
     12 C          -0.7050   -1.7480    0.2516 C.ar    1  UNL1        0.0246
     13 C          -1.4115   -0.6061   -0.0829 C.ar    1  UNL1        0.1799
     14 O          -2.6886   -0.8453   -0.0349 O.2     1  UNL1       -0.4591
     15 C          -2.8699   -2.0965    0.3168 C.ar    1  UNL1        0.0933
     16 C          -1.6429   -2.7401    0.5181 C.ar    1  UNL1       -0.0160
     17 H          -1.3242    3.6341    0.0023 H       1  UNL1        0.0660
     18 H          -2.9817    3.0023   -0.1187 H       1  UNL1        0.0660
     19 H          -1.9220    2.4400    1.1941 H       1  UNL1        0.0660
     20 H           4.4526    0.5267   -0.3129 H       1  UNL1        0.0689
     21 H           3.2761   -1.5514    0.2576 H       1  UNL1        0.0627
     22 H           1.2071   -2.6791    0.5451 H       1  UNL1        0.0632
     23 H          -3.8082   -2.6146    0.4490 H       1  UNL1        0.1030
     24 H          -1.4164   -3.7418    0.8054 H       1  UNL1        0.0655
@<TRIPOS>BOND
     1     1     2    1
     2     2     3    1
     3     3     4   ar
     4     4     5   ar
     5     5     6   ar
     6     6     7    2
     7     6     8   ar
     8     8     9   ar
     9     9    10   ar
    10    10    11   ar
    11    11    12   ar
    12    12    13   ar
    13    13    14   ar
    14    14    15   ar
    15    15    16   ar
    16    13     3   ar
    17    10     4   ar
    18    16    12   ar
    19     1    17    1
    20     1    18    1
    21     1    19    1
    22     8    20    1
    23     9    21    1
    24    11    22    1
    25    15    23    1
    26    16    24    1
