
     RDKit          3D

 33 35  0  0  0  0  0  0  0  0999 V2000
    1.2389    0.2294   -2.7581 O   0  0  0  0  0  0  0  0  0  0  0  0
    0.6892    0.1213   -1.6237 C   0  0  0  0  0  0  0  0  0  0  0  0
    1.4724    0.4733   -0.4422 C   0  0  0  0  0  0  0  0  0  0  0  0
    2.7206    0.8933   -0.5512 C   0  0  0  0  0  0  0  0  0  0  0  0
    3.5331    1.2529    0.5951 C   0  0  0  0  0  0  0  0  0  0  0  0
    3.1148    1.2022    1.9036 C   0  0  0  0  0  0  0  0  0  0  0  0
    3.9494    1.5612    2.9353 C   0  0  0  0  0  0  0  0  0  0  0  0
    5.2331    1.9842    2.6980 C   0  0  0  0  0  0  0  0  0  0  0  0
    5.6093    2.0219    1.4096 N   0  0  0  0  0  0  0  0  0  0  0  0
    4.8468    1.6873    0.3739 C   0  0  0  0  0  0  0  0  0  0  0  0
   -0.6763   -0.3383   -1.5068 C   0  0  0  0  0  0  0  0  0  0  0  0
   -1.3822   -0.6630   -2.6784 C   0  0  0  0  0  0  0  0  0  0  0  0
   -2.6795   -1.1010   -2.5853 C   0  0  0  0  0  0  0  0  0  0  0  0
   -3.3016   -1.2271   -1.3524 C   0  0  0  0  0  0  0  0  0  0  0  0
   -4.6118   -1.6705   -1.2731 C   0  0  0  0  0  0  0  0  0  0  0  0
   -5.2426   -1.8006   -0.0547 C   0  0  0  0  0  0  0  0  0  0  0  0
   -4.5375   -1.4792    1.0737 C   0  0  0  0  0  0  0  0  0  0  0  0
   -3.2207   -1.0311    1.0294 C   0  0  0  0  0  0  0  0  0  0  0  0
   -2.6061   -0.9078   -0.2069 C   0  0  0  0  0  0  0  0  0  0  0  0
   -1.2766   -0.4571   -0.2772 C   0  0  0  0  0  0  0  0  0  0  0  0
    1.0698    0.4060    0.5559 H   0  0  0  0  0  0  0  0  0  0  0  0
    3.1643    0.9759   -1.5335 H   0  0  0  0  0  0  0  0  0  0  0  0
    2.0904    0.8679    2.1380 H   0  0  0  0  0  0  0  0  0  0  0  0
    3.6042    1.5151    3.9533 H   0  0  0  0  0  0  0  0  0  0  0  0
    5.9143    2.2751    3.5090 H   0  0  0  0  0  0  0  0  0  0  0  0
    5.2305    1.7463   -0.6507 H   0  0  0  0  0  0  0  0  0  0  0  0
   -0.8724   -0.5564   -3.6416 H   0  0  0  0  0  0  0  0  0  0  0  0
   -3.2426   -1.3582   -3.4939 H   0  0  0  0  0  0  0  0  0  0  0  0
   -5.1356   -1.9161   -2.2081 H   0  0  0  0  0  0  0  0  0  0  0  0
   -6.2563   -2.1426    0.0217 H   0  0  0  0  0  0  0  0  0  0  0  0
   -4.9988   -1.5676    2.0598 H   0  0  0  0  0  0  0  0  0  0  0  0
   -2.6628   -0.7771    1.9183 H   0  0  0  0  0  0  0  0  0  0  0  0
   -0.7779   -0.2198    0.6636 H   0  0  0  0  0  0  0  0  0  0  0  0
  1  2  2  0
  2  3  1  0
  3  4  2  0
  4  5  1  0
  5  6  2  0
  6  7  1  0
  7  8  2  0
  8  9  1  0
  9 10  2  0
  2 11  1  0
 11 12  2  0
 12 13  1  0
 13 14  2  0
 14 15  1  0
 15 16  2  0
 16 17  1  0
 17 18  2  0
 18 19  1  0
 19 20  2  0
 10  5  1  0
 20 11  1  0
 19 14  1  0
  3 21  1  0
  4 22  1  0
  6 23  1  0
  7 24  1  0
  8 25  1  0
 10 26  1  0
 12 27  1  0
 13 28  1  0
 15 29  1  0
 16 30  1  0
 17 31  1  0
 18 32  1  0
 20 33  1  0
M  END
$$$$
