@<TRIPOS>MOLECULE
*****
 33 35 0 0 0
SMALL
GASTEIGER

@<TRIPOS>ATOM
      1 O           1.2389    0.2294   -2.7581 O.2     1  UNL1       -0.2873
      2 C           0.6892    0.1213   -1.6237 C.2     1  UNL1        0.1861
      3 C           1.4724    0.4733   -0.4422 C.2     1  UNL1       -0.0137
      4 C           2.7206    0.8933   -0.5512 C.2     1  UNL1       -0.0495
      5 C           3.5331    1.2529    0.5951 C.ar    1  UNL1       -0.0068
      6 C           3.1148    1.2022    1.9036 C.ar    1  UNL1       -0.0517
      7 C           3.9494    1.5612    2.9353 C.ar    1  UNL1       -0.0430
      8 C           5.2331    1.9842    2.6980 C.ar    1  UNL1        0.0276
      9 N           5.6093    2.0219    1.4096 N.ar    1  UNL1       -0.2627
     10 C           4.8468    1.6873    0.3739 C.ar    1  UNL1        0.0347
     11 C          -0.6763   -0.3383   -1.5068 C.ar    1  UNL1        0.0223
     12 C          -1.3822   -0.6630   -2.6784 C.ar    1  UNL1       -0.0503
     13 C          -2.6795   -1.1010   -2.5853 C.ar    1  UNL1       -0.0534
     14 C          -3.3016   -1.2271   -1.3524 C.ar    1  UNL1       -0.0178
     15 C          -4.6118   -1.6705   -1.2731 C.ar    1  UNL1       -0.0540
     16 C          -5.2426   -1.8006   -0.0547 C.ar    1  UNL1       -0.0612
     17 C          -4.5375   -1.4792    1.0737 C.ar    1  UNL1       -0.0612
     18 C          -3.2207   -1.0311    1.0294 C.ar    1  UNL1       -0.0540
     19 C          -2.6061   -0.9078   -0.2069 C.ar    1  UNL1       -0.0172
     20 C          -1.2766   -0.4571   -0.2772 C.ar    1  UNL1       -0.0432
     21 H           1.0698    0.4060    0.5559 H       1  UNL1        0.0656
     22 H           3.1643    0.9759   -1.5335 H       1  UNL1        0.0625
     23 H           2.0904    0.8679    2.1380 H       1  UNL1        0.0624
     24 H           3.6042    1.5151    3.9533 H       1  UNL1        0.0633
     25 H           5.9143    2.2751    3.5090 H       1  UNL1        0.0829
     26 H           5.2305    1.7463   -0.6507 H       1  UNL1        0.0835
     27 H          -0.8724   -0.5564   -3.6416 H       1  UNL1        0.0625
     28 H          -3.2426   -1.3582   -3.4939 H       1  UNL1        0.0624
     29 H          -5.1356   -1.9161   -2.2081 H       1  UNL1        0.0624
     30 H          -6.2563   -2.1426    0.0217 H       1  UNL1        0.0618
     31 H          -4.9988   -1.5676    2.0598 H       1  UNL1        0.0618
     32 H          -2.6628   -0.7771    1.9183 H       1  UNL1        0.0624
     33 H          -0.7779   -0.2198    0.6636 H       1  UNL1        0.0631
@<TRIPOS>BOND
     1     1     2    2
     2     2     3    1
     3     3     4    2
     4     4     5    1
     5     5     6   ar
     6     6     7   ar
     7     7     8   ar
     8     8     9   ar
     9     9    10   ar
    10     2    11    1
    11    11    12   ar
    12    12    13   ar
    13    13    14   ar
    14    14    15   ar
    15    15    16   ar
    16    16    17   ar
    17    17    18   ar
    18    18    19   ar
    19    19    20   ar
    20    10     5   ar
    21    20    11   ar
    22    19    14   ar
    23     3    21    1
    24     4    22    1
    25     6    23    1
    26     7    24    1
    27     8    25    1
    28    10    26    1
    29    12    27    1
    30    13    28    1
    31    15    29    1
    32    16    30    1
    33    17    31    1
    34    18    32    1
    35    20    33    1
