
     RDKit          3D

 54 56  0  0  0  0  0  0  0  0999 V2000
   -3.0227    0.1063    0.1499 C   0  0  2  0  0  0  0  0  0  0  0  0
   -3.2541    0.9072    1.4097 C   0  0  0  0  0  0  0  0  0  0  0  0
   -2.5370    0.4569    2.5069 O   0  0  0  0  0  0  0  0  0  0  0  0
   -3.3664   -1.3327    0.2192 C   0  0  0  0  0  0  0  0  0  0  0  0
   -3.0946   -2.0802   -1.0715 C   0  0  0  0  0  0  0  0  0  0  0  0
   -4.9173   -1.4769    0.3773 C   0  0  0  0  0  0  0  0  0  0  0  0
   -1.9565    0.5506   -0.6898 N   0  0  0  0  0  0  0  0  0  0  0  0
   -2.1352    1.4592   -1.7145 C   0  0  0  0  0  0  0  0  0  0  0  0
   -1.2504    1.9856   -2.5991 C   0  0  0  0  0  0  0  0  0  0  0  0
   -1.6398    2.9450   -3.6240 C   0  0  0  0  0  0  0  0  0  0  0  0
   -0.6486    3.4129   -4.4739 O   0  0  0  0  0  0  0  0  0  0  0  0
   -2.7949    3.3616   -3.7765 O   0  0  0  0  0  0  0  0  0  0  0  0
    0.0478    1.5472   -2.4613 C   0  0  0  0  0  0  0  0  0  0  0  0
    0.9398    1.9764   -3.2326 O   0  0  0  0  0  0  0  0  0  0  0  0
    0.3616    0.6392   -1.4767 C   0  0  0  0  0  0  0  0  0  0  0  0
   -0.6484    0.1951   -0.6528 C   0  0  0  0  0  0  0  0  0  0  0  0
   -0.2663   -0.6987    0.2998 C   0  0  0  0  0  0  0  0  0  0  0  0
    1.0059   -1.1406    0.4539 C   0  0  0  0  0  0  0  0  0  0  0  0
    1.3594   -2.0378    1.4123 O   0  0  0  0  0  0  0  0  0  0  0  0
    0.4097   -2.5541    2.3024 C   0  0  0  0  0  0  0  0  0  0  0  0
    2.0422   -0.7274   -0.3395 C   0  0  0  0  0  0  0  0  0  0  0  0
    3.4930   -1.0241   -0.3599 C   0  0  0  0  0  0  0  0  0  0  0  0
    4.2566   -0.2398    0.6118 C   0  0  0  0  0  0  0  0  0  0  0  0
    4.4979   -0.3506    1.9454 C   0  0  0  0  0  0  0  0  0  0  0  0
    3.9774   -1.4391    2.5502 F   0  0  0  0  0  0  0  0  0  0  0  0
    5.2265    0.5108    2.7157 C   0  0  0  0  0  0  0  0  0  0  0  0
    5.4251    0.1987    4.4203 Cl  0  0  0  0  0  0  0  0  0  0  0  0
    5.7909    1.6095    2.1334 C   0  0  0  0  0  0  0  0  0  0  0  0
    5.6297    1.8445    0.7994 C   0  0  0  0  0  0  0  0  0  0  0  0
    4.8711    0.9123    0.0958 C   0  0  0  0  0  0  0  0  0  0  0  0
    1.6523    0.1985   -1.3287 C   0  0  0  0  0  0  0  0  0  0  0  0
   -3.9411    0.4824   -0.4720 H   0  0  0  0  0  0  0  0  0  0  0  0
   -3.1343    1.9966    1.2394 H   0  0  0  0  0  0  0  0  0  0  0  0
   -4.3263    0.8359    1.7438 H   0  0  0  0  0  0  0  0  0  0  0  0
   -2.8381   -0.4641    2.7175 H   0  0  0  0  0  0  0  0  0  0  0  0
   -3.0579   -1.9021    1.1126 H   0  0  0  0  0  0  0  0  0  0  0  0
   -2.1871   -1.7295   -1.6038 H   0  0  0  0  0  0  0  0  0  0  0  0
   -3.1010   -3.1749   -0.8882 H   0  0  0  0  0  0  0  0  0  0  0  0
   -3.9165   -1.9095   -1.8264 H   0  0  0  0  0  0  0  0  0  0  0  0
   -5.1199   -2.5439    0.2241 H   0  0  0  0  0  0  0  0  0  0  0  0
   -5.3283   -0.8838   -0.4528 H   0  0  0  0  0  0  0  0  0  0  0  0
   -5.2053   -1.0787    1.3589 H   0  0  0  0  0  0  0  0  0  0  0  0
   -3.1634    1.8413   -1.8623 H   0  0  0  0  0  0  0  0  0  0  0  0
   -0.7981    4.2374   -5.0255 H   0  0  0  0  0  0  0  0  0  0  0  0
   -0.9747   -1.0869    0.9728 H   0  0  0  0  0  0  0  0  0  0  0  0
   -0.4518   -3.0362    1.7936 H   0  0  0  0  0  0  0  0  0  0  0  0
    0.8973   -3.3467    2.9128 H   0  0  0  0  0  0  0  0  0  0  0  0
    0.0340   -1.7320    2.9763 H   0  0  0  0  0  0  0  0  0  0  0  0
    3.9190   -0.8447   -1.3729 H   0  0  0  0  0  0  0  0  0  0  0  0
    3.6615   -2.1330   -0.2129 H   0  0  0  0  0  0  0  0  0  0  0  0
    6.3630    2.2784    2.7594 H   0  0  0  0  0  0  0  0  0  0  0  0
    6.0635    2.7031    0.3121 H   0  0  0  0  0  0  0  0  0  0  0  0
    4.7796    1.1609   -0.9759 H   0  0  0  0  0  0  0  0  0  0  0  0
    2.3710    0.6137   -2.0333 H   0  0  0  0  0  0  0  0  0  0  0  0
  1  2  1  0
  2  3  1  0
  1  4  1  0
  4  5  1  0
  4  6  1  0
  1  7  1  0
  7  8  1  0
  8  9  2  0
  9 10  1  0
 10 11  1  0
 10 12  2  0
  9 13  1  0
 13 14  2  0
 13 15  1  0
 15 16  2  0
 16 17  1  0
 17 18  2  0
 18 19  1  0
 19 20  1  0
 18 21  1  0
 21 22  1  0
 22 23  1  0
 23 24  2  0
 24 25  1  0
 24 26  1  0
 26 27  1  0
 26 28  2  0
 28 29  1  0
 29 30  2  0
 21 31  2  0
 16  7  1  0
 30 23  1  0
 31 15  1  0
  1 32  1  6
  2 33  1  0
  2 34  1  0
  3 35  1  0
  4 36  1  0
  5 37  1  0
  5 38  1  0
  5 39  1  0
  6 40  1  0
  6 41  1  0
  6 42  1  0
  8 43  1  0
 11 44  1  0
 17 45  1  0
 20 46  1  0
 20 47  1  0
 20 48  1  0
 22 49  1  0
 22 50  1  0
 28 51  1  0
 29 52  1  0
 30 53  1  0
 31 54  1  0
M  END
$$$$
