@<TRIPOS>MOLECULE
*****
 45 47 0 0 0
SMALL
GASTEIGER

@<TRIPOS>ATOM
      1 C           6.5708    0.7147    0.3516 C.3     1  UNL1       -0.0495
      2 C           5.1211    1.1276    0.3529 C.3     1  UNL1        0.0091
      3 N           4.2253   -0.0006    0.2306 N.am    1  UNL1       -0.3103
      4 C           2.8174    0.2326    0.2061 C.2     1  UNL1        0.2648
      5 O           2.4635    1.4564    0.2957 O.2     1  UNL1       -0.2684
      6 C           1.8806   -0.8594    0.0871 C.ar    1  UNL1        0.1551
      7 N           2.1807   -2.1845    0.0197 N.ar    1  UNL1       -0.1680
      8 N           1.0609   -2.8859   -0.0897 N.ar    1  UNL1       -0.2755
      9 C           0.0178   -2.0454   -0.0962 C.ar    1  UNL1        0.0777
     10 C           0.5094   -0.7579    0.0141 C.ar    1  UNL1        0.0397
     11 C          -0.2256    0.5066    0.0492 C.ar    1  UNL1       -0.0134
     12 C          -1.0728    0.9929    0.9970 C.ar    1  UNL1       -0.0504
     13 C          -1.6628    2.2161    0.7985 C.ar    1  UNL1       -0.0194
     14 C          -1.4832    3.0284   -0.2886 C.ar    1  UNL1        0.1201
     15 O          -2.0589    4.2613   -0.5208 O.3     1  UNL1       -0.4951
     16 C          -2.9476    4.9438    0.3024 C.3     1  UNL1        0.0788
     17 C          -0.6121    2.5287   -1.2631 C.ar    1  UNL1       -0.0194
     18 C          -0.0006    1.2901   -1.0870 C.ar    1  UNL1       -0.0504
     19 C          -1.3846   -2.4228   -0.2015 C.ar    1  UNL1        0.0434
     20 C          -1.7040   -2.6773   -1.5370 C.ar    1  UNL1       -0.0272
     21 C          -3.0059   -3.0584   -1.8858 C.ar    1  UNL1        0.0831
     22 CL         -3.4829   -3.3957   -3.5494 Cl      1  UNL1       -0.0797
     23 C          -3.9600   -3.1766   -0.8895 C.ar    1  UNL1        0.1386
     24 O          -5.2595   -3.5515   -1.2010 O.3     1  UNL1       -0.5052
     25 C          -3.6432   -2.9237    0.4423 C.ar    1  UNL1        0.0234
     26 C          -2.3589   -2.5506    0.7640 C.ar    1  UNL1        0.1296
     27 O          -1.8995   -2.2688    2.0403 O.3     1  UNL1       -0.5060
     28 H           6.8087   -0.0686   -0.4005 H       1  UNL1        0.0245
     29 H           6.8260    0.2976    1.3438 H       1  UNL1        0.0245
     30 H           7.2136    1.5968    0.1202 H       1  UNL1        0.0245
     31 H           4.9639    1.9050   -0.4221 H       1  UNL1        0.0459
     32 H           4.9265    1.6114    1.3524 H       1  UNL1        0.0459
     33 H           4.6354   -0.9592    0.1632 H       1  UNL1        0.1490
     34 H           0.9744   -3.9296   -0.1614 H       1  UNL1        0.1889
     35 H          -1.2148    0.3607    1.8542 H       1  UNL1        0.0625
     36 H          -2.3291    2.5717    1.5712 H       1  UNL1        0.0654
     37 H          -2.4931    5.9574    0.4907 H       1  UNL1        0.0660
     38 H          -3.0215    4.4544    1.2846 H       1  UNL1        0.0660
     39 H          -3.9734    5.0381   -0.1106 H       1  UNL1        0.0660
     40 H          -0.4312    3.1281   -2.1456 H       1  UNL1        0.0654
     41 H           0.6553    1.0014   -1.9057 H       1  UNL1        0.0625
     42 H          -1.0561   -2.6220   -2.4013 H       1  UNL1        0.0641
     43 H          -5.7284   -4.2218   -0.5976 H       1  UNL1        0.2922
     44 H          -4.3515   -3.0013    1.2592 H       1  UNL1        0.0691
     45 H          -2.4899   -1.6601    2.6230 H       1  UNL1        0.2922
@<TRIPOS>BOND
     1     1     2    1
     2     2     3    1
     3     3     4   am
     4     4     5    2
     5     4     6    1
     6     6     7   ar
     7     7     8   ar
     8     8     9   ar
     9     9    10   ar
    10    10    11    1
    11    11    12   ar
    12    12    13   ar
    13    13    14   ar
    14    14    15    1
    15    15    16    1
    16    14    17   ar
    17    17    18   ar
    18     9    19    1
    19    19    20   ar
    20    20    21   ar
    21    21    22    1
    22    21    23   ar
    23    23    24    1
    24    23    25   ar
    25    25    26   ar
    26    26    27    1
    27    10     6   ar
    28    18    11   ar
    29    26    19   ar
    30     1    28    1
    31     1    29    1
    32     1    30    1
    33     2    31    1
    34     2    32    1
    35     3    33    1
    36     8    34    1
    37    12    35    1
    38    13    36    1
    39    16    37    1
    40    16    38    1
    41    16    39    1
    42    17    40    1
    43    18    41    1
    44    20    42    1
    45    24    43    1
    46    25    44    1
    47    27    45    1
