@<TRIPOS>MOLECULE
*****
 47 51 0 0 0
SMALL
GASTEIGER

@<TRIPOS>ATOM
      1 C           6.9192   -2.3122   -0.0498 C.3     1  UNL1        0.0833
      2 O           5.8466   -1.4265    0.1391 O.3     1  UNL1       -0.4535
      3 C           4.5667   -1.6240   -0.3651 C.2     1  UNL1        0.4027
      4 O           4.3868   -2.6770   -1.0315 O.2     1  UNL1       -0.2263
      5 N           3.5063   -0.7173   -0.1622 N.am    1  UNL1       -0.2634
      6 C           2.1134   -0.6261   -0.5364 C.3     1  UNL1        0.0402
      7 C           1.8936    0.1242    0.7368 C.3     1  UNL1        0.0676
      8 N           0.9302    1.1563    0.7569 N.ar    1  UNL1       -0.3222
      9 C           1.1673    2.3999    1.2157 C.ar    1  UNL1        0.0975
     10 N           0.0167    3.1253    1.0802 N.ar    1  UNL1       -0.2351
     11 C          -0.9434    2.3424    0.5381 C.ar    1  UNL1        0.0982
     12 C          -2.3129    2.7149    0.2277 C.ar    1  UNL1        0.0027
     13 C          -3.3548    2.1025    0.8742 C.ar    1  UNL1       -0.0498
     14 C          -4.6400    2.4757    0.5594 C.ar    1  UNL1       -0.0258
     15 C          -4.8832    3.4468   -0.3878 C.ar    1  UNL1        0.1234
     16 F          -6.1620    3.8256   -0.7095 F       1  UNL1       -0.2055
     17 C          -3.8306    4.0747   -1.0501 C.ar    1  UNL1       -0.0258
     18 C          -2.5645    3.6864   -0.7196 C.ar    1  UNL1       -0.0498
     19 C          -0.3320    1.1255    0.3530 C.ar    1  UNL1        0.0969
     20 C          -0.9840   -0.0403   -0.2168 C.ar    1  UNL1        0.1103
     21 C          -1.3693    0.0251   -1.5417 C.ar    1  UNL1       -0.0290
     22 C          -1.9997   -1.0931   -2.1004 C.ar    1  UNL1       -0.0153
     23 C          -2.2156   -2.2150   -1.3167 C.ar    1  UNL1        0.1555
     24 N          -2.7984   -3.3819   -1.6492 N.ar    1  UNL1       -0.2333
     25 C          -2.7820   -4.1767   -0.5438 C.ar    1  UNL1        0.0659
     26 C          -2.1798   -3.4507    0.4346 C.ar    1  UNL1        0.1618
     27 C          -1.9270   -3.8659    1.7997 C.1     1  UNL1        0.1208
     28 N          -1.7302   -4.1972    2.8898 N.1     1  UNL1       -0.1892
     29 N          -1.8212   -2.2202   -0.0398 N.ar    1  UNL1       -0.2023
     30 N          -1.2298   -1.1716    0.4819 N.ar    1  UNL1       -0.1623
     31 C           3.3387    0.5442    0.5185 C.3     1  UNL1        0.0402
     32 H           7.7939   -1.8002   -0.5216 H       1  UNL1        0.0661
     33 H           7.2955   -2.7580    0.8862 H       1  UNL1        0.0661
     34 H           6.5894   -3.1348   -0.7067 H       1  UNL1        0.0661
     35 H           1.5861   -1.5758   -0.6634 H       1  UNL1        0.0486
     36 H           2.0443   -0.0387   -1.4719 H       1  UNL1        0.0486
     37 H           1.8572   -0.5808    1.5943 H       1  UNL1        0.0559
     38 H           2.0620    2.8361    1.6301 H       1  UNL1        0.1029
     39 H          -3.1962    1.3247    1.6356 H       1  UNL1        0.0625
     40 H          -5.4988    2.0072    1.0573 H       1  UNL1        0.0646
     41 H          -4.0567    4.8295   -1.7868 H       1  UNL1        0.0646
     42 H          -1.7112    4.1482   -1.2109 H       1  UNL1        0.0625
     43 H          -1.1940    0.9082   -2.1353 H       1  UNL1        0.0641
     44 H          -2.2987   -1.0317   -3.1427 H       1  UNL1        0.0655
     45 H          -3.1846   -5.1861   -0.4992 H       1  UNL1        0.0859
     46 H           3.3528    1.4047   -0.1797 H       1  UNL1        0.0486
     47 H           3.9338    0.6737    1.4389 H       1  UNL1        0.0486
@<TRIPOS>BOND
     1     1     2    1
     2     2     3    1
     3     3     4    2
     4     3     5   am
     5     5     6    1
     6     6     7    1
     7     7     8    1
     8     8     9   ar
     9     9    10   ar
    10    10    11   ar
    11    11    12    1
    12    12    13   ar
    13    13    14   ar
    14    14    15   ar
    15    15    16    1
    16    15    17   ar
    17    17    18   ar
    18    11    19   ar
    19    19    20    1
    20    20    21   ar
    21    21    22   ar
    22    22    23   ar
    23    23    24   ar
    24    24    25   ar
    25    25    26   ar
    26    26    27    1
    27    27    28    3
    28    26    29   ar
    29    29    30   ar
    30     7    31    1
    31    31     5    1
    32    19     8   ar
    33    30    20   ar
    34    18    12   ar
    35    29    23   ar
    36     1    32    1
    37     1    33    1
    38     1    34    1
    39     6    35    1
    40     6    36    1
    41     7    37    1
    42     9    38    1
    43    13    39    1
    44    14    40    1
    45    17    41    1
    46    18    42    1
    47    21    43    1
    48    22    44    1
    49    25    45    1
    50    31    46    1
    51    31    47    1
