
     RDKit          3D

 47 51  0  0  0  0  0  0  0  0999 V2000
    6.9192   -2.3122   -0.0498 C   0  0  0  0  0  0  0  0  0  0  0  0
    5.8466   -1.4265    0.1391 O   0  0  0  0  0  0  0  0  0  0  0  0
    4.5667   -1.6240   -0.3651 C   0  0  0  0  0  0  0  0  0  0  0  0
    4.3868   -2.6770   -1.0315 O   0  0  0  0  0  0  0  0  0  0  0  0
    3.5063   -0.7173   -0.1622 N   0  0  0  0  0  0  0  0  0  0  0  0
    2.1134   -0.6261   -0.5364 C   0  0  0  0  0  0  0  0  0  0  0  0
    1.8936    0.1242    0.7368 C   0  0  0  0  0  0  0  0  0  0  0  0
    0.9302    1.1563    0.7569 N   0  0  0  0  0  0  0  0  0  0  0  0
    1.1673    2.3999    1.2157 C   0  0  0  0  0  0  0  0  0  0  0  0
    0.0167    3.1253    1.0802 N   0  0  0  0  0  0  0  0  0  0  0  0
   -0.9434    2.3424    0.5381 C   0  0  0  0  0  0  0  0  0  0  0  0
   -2.3129    2.7149    0.2277 C   0  0  0  0  0  0  0  0  0  0  0  0
   -3.3548    2.1025    0.8742 C   0  0  0  0  0  0  0  0  0  0  0  0
   -4.6400    2.4757    0.5594 C   0  0  0  0  0  0  0  0  0  0  0  0
   -4.8832    3.4468   -0.3878 C   0  0  0  0  0  0  0  0  0  0  0  0
   -6.1620    3.8256   -0.7095 F   0  0  0  0  0  0  0  0  0  0  0  0
   -3.8306    4.0747   -1.0501 C   0  0  0  0  0  0  0  0  0  0  0  0
   -2.5645    3.6864   -0.7196 C   0  0  0  0  0  0  0  0  0  0  0  0
   -0.3320    1.1255    0.3530 C   0  0  0  0  0  0  0  0  0  0  0  0
   -0.9840   -0.0403   -0.2168 C   0  0  0  0  0  0  0  0  0  0  0  0
   -1.3693    0.0251   -1.5417 C   0  0  0  0  0  0  0  0  0  0  0  0
   -1.9997   -1.0931   -2.1004 C   0  0  0  0  0  0  0  0  0  0  0  0
   -2.2156   -2.2150   -1.3167 C   0  0  0  0  0  0  0  0  0  0  0  0
   -2.7984   -3.3819   -1.6492 N   0  0  0  0  0  0  0  0  0  0  0  0
   -2.7820   -4.1767   -0.5438 C   0  0  0  0  0  0  0  0  0  0  0  0
   -2.1798   -3.4507    0.4346 C   0  0  0  0  0  0  0  0  0  0  0  0
   -1.9270   -3.8659    1.7997 C   0  0  0  0  0  0  0  0  0  0  0  0
   -1.7302   -4.1972    2.8898 N   0  0  0  0  0  0  0  0  0  0  0  0
   -1.8212   -2.2202   -0.0398 N   0  0  0  0  0  0  0  0  0  0  0  0
   -1.2298   -1.1716    0.4819 N   0  0  0  0  0  0  0  0  0  0  0  0
    3.3387    0.5442    0.5185 C   0  0  0  0  0  0  0  0  0  0  0  0
    7.7939   -1.8002   -0.5216 H   0  0  0  0  0  0  0  0  0  0  0  0
    7.2955   -2.7580    0.8862 H   0  0  0  0  0  0  0  0  0  0  0  0
    6.5894   -3.1348   -0.7067 H   0  0  0  0  0  0  0  0  0  0  0  0
    1.5861   -1.5758   -0.6634 H   0  0  0  0  0  0  0  0  0  0  0  0
    2.0443   -0.0387   -1.4719 H   0  0  0  0  0  0  0  0  0  0  0  0
    1.8572   -0.5808    1.5943 H   0  0  0  0  0  0  0  0  0  0  0  0
    2.0620    2.8361    1.6301 H   0  0  0  0  0  0  0  0  0  0  0  0
   -3.1962    1.3247    1.6356 H   0  0  0  0  0  0  0  0  0  0  0  0
   -5.4988    2.0072    1.0573 H   0  0  0  0  0  0  0  0  0  0  0  0
   -4.0567    4.8295   -1.7868 H   0  0  0  0  0  0  0  0  0  0  0  0
   -1.7112    4.1482   -1.2109 H   0  0  0  0  0  0  0  0  0  0  0  0
   -1.1940    0.9082   -2.1353 H   0  0  0  0  0  0  0  0  0  0  0  0
   -2.2987   -1.0317   -3.1427 H   0  0  0  0  0  0  0  0  0  0  0  0
   -3.1846   -5.1861   -0.4992 H   0  0  0  0  0  0  0  0  0  0  0  0
    3.3528    1.4047   -0.1797 H   0  0  0  0  0  0  0  0  0  0  0  0
    3.9338    0.6737    1.4389 H   0  0  0  0  0  0  0  0  0  0  0  0
  1  2  1  0
  2  3  1  0
  3  4  2  0
  3  5  1  0
  5  6  1  0
  6  7  1  0
  7  8  1  0
  8  9  1  0
  9 10  2  0
 10 11  1  0
 11 12  1  0
 12 13  2  0
 13 14  1  0
 14 15  2  0
 15 16  1  0
 15 17  1  0
 17 18  2  0
 11 19  2  0
 19 20  1  0
 20 21  1  0
 21 22  2  0
 22 23  1  0
 23 24  2  0
 24 25  1  0
 25 26  2  0
 26 27  1  0
 27 28  3  0
 26 29  1  0
 29 30  1  0
  7 31  1  0
 31  5  1  0
 19  8  1  0
 30 20  2  0
 18 12  1  0
 29 23  1  0
  1 32  1  0
  1 33  1  0
  1 34  1  0
  6 35  1  0
  6 36  1  0
  7 37  1  0
  9 38  1  0
 13 39  1  0
 14 40  1  0
 17 41  1  0
 18 42  1  0
 21 43  1  0
 22 44  1  0
 25 45  1  0
 31 46  1  0
 31 47  1  0
M  END
$$$$
