
     RDKit          3D

 38 41  0  0  0  0  0  0  0  0999 V2000
    0.0184    0.3339    1.5181 O   0  0  0  0  0  0  0  0  0  0  0  0
    0.2699   -0.8071    1.0886 C   0  0  0  0  0  0  0  0  0  0  0  0
   -0.7888   -1.6262    0.4985 C   0  0  0  0  0  0  0  0  0  0  0  0
   -2.0721   -0.9960    0.4752 N   0  0  0  0  0  0  0  0  0  0  0  0
   -2.9683   -1.1409    1.4918 C   0  0  0  0  0  0  0  0  0  0  0  0
   -2.6577   -1.8533    2.4823 O   0  0  0  0  0  0  0  0  0  0  0  0
   -4.2052   -0.5338    1.4740 C   0  0  0  0  0  0  0  0  0  0  0  0
   -4.5617    0.2538    0.3901 C   0  0  0  0  0  0  0  0  0  0  0  0
   -3.6626    0.4025   -0.6349 C   0  0  0  0  0  0  0  0  0  0  0  0
   -4.0117    1.1892   -1.7152 C   0  0  0  0  0  0  0  0  0  0  0  0
   -3.1552    1.3725   -2.7562 C   0  0  0  0  0  0  0  0  0  0  0  0
   -3.4759    2.1349   -3.8182 F   0  0  0  0  0  0  0  0  0  0  0  0
   -1.9227    0.7646   -2.7315 C   0  0  0  0  0  0  0  0  0  0  0  0
   -1.0617    0.9446   -3.7701 F   0  0  0  0  0  0  0  0  0  0  0  0
   -1.5851   -0.0185   -1.6480 C   0  0  0  0  0  0  0  0  0  0  0  0
   -2.4192   -0.2340   -0.5706 C   0  0  0  0  0  0  0  0  0  0  0  0
    1.5970   -1.2943    1.1827 N   0  0  0  0  0  0  0  0  0  0  0  0
    2.6379   -0.5262    1.7471 C   0  0  0  0  0  0  0  0  0  0  0  0
    2.9770   -0.4917    3.5070 S   0  0  0  0  0  0  0  0  0  0  0  0
    4.3596    0.6524    3.4114 C   0  0  0  0  0  0  0  0  0  0  0  0
    4.4564    0.9187    2.0492 C   0  0  0  0  0  0  0  0  0  0  0  0
    5.8576    2.1489    1.4537 Br  0  0  0  0  0  0  0  0  0  0  0  0
    3.5841    0.3172    1.2312 C   0  0  0  0  0  0  0  0  0  0  0  0
    3.6218    0.5038   -0.2611 C   0  0  0  0  0  0  0  0  0  0  0  0
    4.4720    1.2958   -0.9341 N   0  0  0  0  0  0  0  0  0  0  0  0
    4.2539    1.2172   -2.2145 N   0  0  0  0  0  0  0  0  0  0  0  0
    3.2412    0.3597   -2.4156 C   0  0  0  0  0  0  0  0  0  0  0  0
    2.8659   -0.0705   -1.1811 N   0  0  0  0  0  0  0  0  0  0  0  0
   -0.4329   -2.0102   -0.4821 H   0  0  0  0  0  0  0  0  0  0  0  0
   -0.9127   -2.5141    1.2089 H   0  0  0  0  0  0  0  0  0  0  0  0
   -4.9232   -0.6339    2.2603 H   0  0  0  0  0  0  0  0  0  0  0  0
   -5.5164    0.7503    0.3268 H   0  0  0  0  0  0  0  0  0  0  0  0
   -4.9848    1.6560   -1.7116 H   0  0  0  0  0  0  0  0  0  0  0  0
   -0.5979   -0.4637   -1.6904 H   0  0  0  0  0  0  0  0  0  0  0  0
    1.8395   -2.2468    0.8316 H   0  0  0  0  0  0  0  0  0  0  0  0
    4.9539    1.0172    4.2895 H   0  0  0  0  0  0  0  0  0  0  0  0
    2.7990    0.0582   -3.3537 H   0  0  0  0  0  0  0  0  0  0  0  0
    2.1109   -0.7449   -1.0290 H   0  0  0  0  0  0  0  0  0  0  0  0
  1  2  2  0
  2  3  1  0
  3  4  1  0
  4  5  1  0
  5  6  2  0
  5  7  1  0
  7  8  2  0
  8  9  1  0
  9 10  2  0
 10 11  1  0
 11 12  1  0
 11 13  2  0
 13 14  1  0
 13 15  1  0
 15 16  2  0
  2 17  1  0
 17 18  1  0
 18 19  1  0
 19 20  1  0
 20 21  2  0
 21 22  1  0
 21 23  1  0
 23 24  1  0
 24 25  2  0
 25 26  1  0
 26 27  2  0
 27 28  1  0
 16  4  1  0
 23 18  2  0
 28 24  1  0
 16  9  1  0
  3 29  1  0
  3 30  1  0
  7 31  1  0
  8 32  1  0
 10 33  1  0
 15 34  1  0
 17 35  1  0
 20 36  1  0
 27 37  1  0
 28 38  1  0
M  END
$$$$
