@<TRIPOS>MOLECULE
*****
 38 41 0 0 0
SMALL
GASTEIGER

@<TRIPOS>ATOM
      1 O           0.0184    0.3339    1.5181 O.2     1  UNL1       -0.2735
      2 C           0.2699   -0.8071    1.0886 C.2     1  UNL1        0.2375
      3 C          -0.7888   -1.6262    0.4985 C.3     1  UNL1        0.1032
      4 N          -2.0721   -0.9960    0.4752 N.ar    1  UNL1       -0.2992
      5 C          -2.9683   -1.1409    1.4918 C.ar    1  UNL1        0.2522
      6 O          -2.6577   -1.8533    2.4823 O.2     1  UNL1       -0.2677
      7 C          -4.2052   -0.5338    1.4740 C.ar    1  UNL1        0.0036
      8 C          -4.5617    0.2538    0.3901 C.ar    1  UNL1       -0.0474
      9 C          -3.6626    0.4025   -0.6349 C.ar    1  UNL1        0.0016
     10 C          -4.0117    1.1892   -1.7152 C.ar    1  UNL1       -0.0145
     11 C          -3.1552    1.3725   -2.7562 C.ar    1  UNL1        0.1591
     12 F          -3.4759    2.1349   -3.8182 F       1  UNL1       -0.2025
     13 C          -1.9227    0.7646   -2.7315 C.ar    1  UNL1        0.1604
     14 F          -1.0617    0.9446   -3.7701 F       1  UNL1       -0.2024
     15 C          -1.5851   -0.0185   -1.6480 C.ar    1  UNL1        0.0006
     16 C          -2.4192   -0.2340   -0.5706 C.ar    1  UNL1        0.0554
     17 N           1.5970   -1.2943    1.1827 N.am    1  UNL1       -0.2779
     18 C           2.6379   -0.5262    1.7471 C.ar    1  UNL1        0.0836
     19 S           2.9770   -0.4917    3.5070 S.2     1  UNL1       -0.0801
     20 C           4.3596    0.6524    3.4114 C.ar    1  UNL1       -0.0078
     21 C           4.4564    0.9187    2.0492 C.ar    1  UNL1        0.0374
     22 BR          5.8576    2.1489    1.4537 Br      1  UNL1       -0.0490
     23 C           3.5841    0.3172    1.2312 C.ar    1  UNL1        0.0614
     24 C           3.6218    0.5038   -0.2611 C.ar    1  UNL1        0.1648
     25 N           4.4720    1.2958   -0.9341 N.ar    1  UNL1       -0.1295
     26 N           4.2539    1.2172   -2.2145 N.ar    1  UNL1       -0.1377
     27 C           3.2412    0.3597   -2.4156 C.ar    1  UNL1        0.1175
     28 N           2.8659   -0.0705   -1.1811 N.ar    1  UNL1       -0.3276
     29 H          -0.4329   -2.0102   -0.4821 H       1  UNL1        0.0589
     30 H          -0.9127   -2.5141    1.2089 H       1  UNL1        0.0589
     31 H          -4.9232   -0.6339    2.2603 H       1  UNL1        0.0672
     32 H          -5.5164    0.7503    0.3268 H       1  UNL1        0.0626
     33 H          -4.9848    1.6560   -1.7116 H       1  UNL1        0.0654
     34 H          -0.5979   -0.4637   -1.6904 H       1  UNL1        0.0668
     35 H           1.8395   -2.2468    0.8316 H       1  UNL1        0.1554
     36 H           4.9539    1.0172    4.2895 H       1  UNL1        0.0705
     37 H           2.7990    0.0582   -3.3537 H       1  UNL1        0.1046
     38 H           2.1109   -0.7449   -1.0290 H       1  UNL1        0.1683
@<TRIPOS>BOND
     1     1     2    2
     2     2     3    1
     3     3     4    1
     4     4     5   ar
     5     5     6    2
     6     5     7   ar
     7     7     8   ar
     8     8     9   ar
     9     9    10   ar
    10    10    11   ar
    11    11    12    1
    12    11    13   ar
    13    13    14    1
    14    13    15   ar
    15    15    16   ar
    16     2    17   am
    17    17    18    1
    18    18    19   ar
    19    19    20   ar
    20    20    21   ar
    21    21    22    1
    22    21    23   ar
    23    23    24    1
    24    24    25   ar
    25    25    26   ar
    26    26    27   ar
    27    27    28   ar
    28    16     4   ar
    29    23    18   ar
    30    28    24   ar
    31    16     9   ar
    32     3    29    1
    33     3    30    1
    34     7    31    1
    35     8    32    1
    36    10    33    1
    37    15    34    1
    38    17    35    1
    39    20    36    1
    40    27    37    1
    41    28    38    1
