@<TRIPOS>MOLECULE
*****
 64 67 0 0 0
SMALL
GASTEIGER

@<TRIPOS>ATOM
      1 C           9.0721   -2.9198    1.8550 C.3     1  UNL1       -0.0209
      2 C           7.9086   -2.2144    1.2539 C.ar    1  UNL1        0.0563
      3 C           6.7619   -2.9303    0.9781 C.ar    1  UNL1        0.0493
      4 N           5.6871   -2.3316    0.4347 N.ar    1  UNL1       -0.2517
      5 C           5.6860   -1.0108    0.1381 C.ar    1  UNL1        0.0890
      6 C           4.4897   -0.3865   -0.4569 C.ar    1  UNL1        0.0018
      7 C           3.3659   -1.1599   -0.7100 C.ar    1  UNL1       -0.0522
      8 C           2.2325   -0.6051   -1.2666 C.ar    1  UNL1       -0.0562
      9 C           2.1516    0.7296   -1.5986 C.ar    1  UNL1       -0.0271
     10 C           0.8983    1.2644   -2.1969 C.3     1  UNL1        0.0515
     11 C           0.8849    2.7986   -2.1141 C.3     1  UNL1       -0.0421
     12 N          -0.2760    0.8191   -1.5356 N.am    1  UNL1       -0.2605
     13 C          -1.3276    0.1707   -2.3152 C.3     1  UNL1        0.0224
     14 C          -2.6170    0.8339   -1.9094 C.3     1  UNL1        0.0076
     15 C          -2.9165    0.3771   -0.4634 C.3     1  UNL1        0.1440
     16 C          -3.5491   -0.9536   -0.5208 C.3     1  UNL1        0.0199
     17 C          -3.8971   -1.6274    0.7480 C.3     1  UNL1        0.0645
     18 C          -4.5288   -2.9888    0.3800 C.3     1  UNL1       -0.0362
     19 C          -4.8954   -0.9399    1.6300 C.3     1  UNL1       -0.0362
     20 O          -2.7632   -1.9516    1.5050 O.3     1  UNL1       -0.3890
     21 C          -3.8617    1.4083    0.0376 C.ar    1  UNL1       -0.0040
     22 C          -3.4116    2.4123    0.8969 C.ar    1  UNL1       -0.0548
     23 C          -4.3235    3.3614    1.2886 C.ar    1  UNL1       -0.0614
     24 C          -5.6268    3.3492    0.8701 C.ar    1  UNL1       -0.0617
     25 C          -6.0754    2.3657    0.0257 C.ar    1  UNL1       -0.0614
     26 C          -5.1645    1.3853   -0.3888 C.ar    1  UNL1       -0.0548
     27 O          -1.7202    0.3847    0.3126 O.3     1  UNL1       -0.4387
     28 C          -0.5414    0.9458   -0.1481 C.2     1  UNL1        0.4042
     29 O           0.2990    1.5500    0.5597 O.2     1  UNL1       -0.2262
     30 C           3.2650    1.4995   -1.3484 C.ar    1  UNL1       -0.0562
     31 C           4.4208    0.9451   -0.7835 C.ar    1  UNL1       -0.0522
     32 C           6.8368   -0.3118    0.4193 C.ar    1  UNL1        0.0538
     33 N           7.9229   -0.9076    0.9662 N.ar    1  UNL1       -0.2565
     34 H           9.9950   -2.5573    1.3611 H       1  UNL1        0.0293
     35 H           9.1314   -2.7475    2.9493 H       1  UNL1        0.0293
     36 H           9.0003   -4.0111    1.6914 H       1  UNL1        0.0293
     37 H           6.7331   -3.9873    1.2039 H       1  UNL1        0.0848
     38 H           3.4462   -2.2127   -0.4417 H       1  UNL1        0.0624
     39 H           1.3727   -1.2371   -1.4513 H       1  UNL1        0.0621
     40 H           0.8258    1.0325   -3.2771 H       1  UNL1        0.0549
     41 H           1.5217    3.1608   -2.9299 H       1  UNL1        0.0251
     42 H           1.3356    3.1107   -1.1472 H       1  UNL1        0.0251
     43 H          -0.1525    3.1787   -2.1340 H       1  UNL1        0.0251
     44 H          -1.3087   -0.9010   -2.1179 H       1  UNL1        0.0467
     45 H          -1.1751    0.3230   -3.4035 H       1  UNL1        0.0467
     46 H          -2.4780    1.9283   -1.8537 H       1  UNL1        0.0322
     47 H          -3.4495    0.5112   -2.5380 H       1  UNL1        0.0322
     48 H          -2.8806   -1.6965   -1.0888 H       1  UNL1        0.0335
     49 H          -4.4779   -0.9770   -1.1657 H       1  UNL1        0.0335
     50 H          -4.5874   -3.6519    1.2450 H       1  UNL1        0.0257
     51 H          -5.5595   -2.7733    0.0409 H       1  UNL1        0.0257
     52 H          -3.9875   -3.4218   -0.4810 H       1  UNL1        0.0257
     53 H          -5.0852   -1.5663    2.5646 H       1  UNL1        0.0257
     54 H          -4.5316    0.0239    2.0267 H       1  UNL1        0.0257
     55 H          -5.9027   -0.8425    1.1901 H       1  UNL1        0.0257
     56 H          -2.2417   -2.5999    0.9870 H       1  UNL1        0.2101
     57 H          -2.3905    2.3682    1.1866 H       1  UNL1        0.0622
     58 H          -3.9812    4.1529    1.9622 H       1  UNL1        0.0618
     59 H          -6.3019    4.1434    1.2255 H       1  UNL1        0.0618
     60 H          -7.1032    2.3683   -0.2955 H       1  UNL1        0.0618
     61 H          -5.5900    0.6400   -1.0607 H       1  UNL1        0.0622
     62 H           3.2435    2.5529   -1.5945 H       1  UNL1        0.0621
     63 H           5.2823    1.5875   -0.6002 H       1  UNL1        0.0624
     64 H           6.9100    0.7393    0.2114 H       1  UNL1        0.0851
@<TRIPOS>BOND
     1     1     2    1
     2     2     3   ar
     3     3     4   ar
     4     4     5   ar
     5     5     6    1
     6     6     7   ar
     7     7     8   ar
     8     8     9   ar
     9     9    10    1
    10    10    11    1
    11    10    12    1
    12    12    13    1
    13    13    14    1
    14    14    15    1
    15    15    16    1
    16    16    17    1
    17    17    18    1
    18    17    19    1
    19    17    20    1
    20    15    21    1
    21    21    22   ar
    22    22    23   ar
    23    23    24   ar
    24    24    25   ar
    25    25    26   ar
    26    15    27    1
    27    27    28    1
    28    28    29    2
    29     9    30   ar
    30    30    31   ar
    31     5    32   ar
    32    32    33   ar
    33    33     2   ar
    34    31     6   ar
    35    28    12   am
    36    26    21   ar
    37     1    34    1
    38     1    35    1
    39     1    36    1
    40     3    37    1
    41     7    38    1
    42     8    39    1
    43    10    40    1
    44    11    41    1
    45    11    42    1
    46    11    43    1
    47    13    44    1
    48    13    45    1
    49    14    46    1
    50    14    47    1
    51    16    48    1
    52    16    49    1
    53    18    50    1
    54    18    51    1
    55    18    52    1
    56    19    53    1
    57    19    54    1
    58    19    55    1
    59    20    56    1
    60    22    57    1
    61    23    58    1
    62    24    59    1
    63    25    60    1
    64    26    61    1
    65    30    62    1
    66    31    63    1
    67    32    64    1
