
     RDKit          3D

 64 67  0  0  0  0  0  0  0  0999 V2000
    9.0721   -2.9198    1.8550 C   0  0  0  0  0  0  0  0  0  0  0  0
    7.9086   -2.2144    1.2539 C   0  0  0  0  0  0  0  0  0  0  0  0
    6.7619   -2.9303    0.9781 C   0  0  0  0  0  0  0  0  0  0  0  0
    5.6871   -2.3316    0.4347 N   0  0  0  0  0  0  0  0  0  0  0  0
    5.6860   -1.0108    0.1381 C   0  0  0  0  0  0  0  0  0  0  0  0
    4.4897   -0.3865   -0.4569 C   0  0  0  0  0  0  0  0  0  0  0  0
    3.3659   -1.1599   -0.7100 C   0  0  0  0  0  0  0  0  0  0  0  0
    2.2325   -0.6051   -1.2666 C   0  0  0  0  0  0  0  0  0  0  0  0
    2.1516    0.7296   -1.5986 C   0  0  0  0  0  0  0  0  0  0  0  0
    0.8983    1.2644   -2.1969 C   0  0  2  0  0  0  0  0  0  0  0  0
    0.8849    2.7986   -2.1141 C   0  0  0  0  0  0  0  0  0  0  0  0
   -0.2760    0.8191   -1.5356 N   0  0  0  0  0  0  0  0  0  0  0  0
   -1.3276    0.1707   -2.3152 C   0  0  0  0  0  0  0  0  0  0  0  0
   -2.6170    0.8339   -1.9094 C   0  0  0  0  0  0  0  0  0  0  0  0
   -2.9165    0.3771   -0.4634 C   0  0  2  0  0  0  0  0  0  0  0  0
   -3.5491   -0.9536   -0.5208 C   0  0  0  0  0  0  0  0  0  0  0  0
   -3.8971   -1.6274    0.7480 C   0  0  0  0  0  0  0  0  0  0  0  0
   -4.5288   -2.9888    0.3800 C   0  0  0  0  0  0  0  0  0  0  0  0
   -4.8954   -0.9399    1.6300 C   0  0  0  0  0  0  0  0  0  0  0  0
   -2.7632   -1.9516    1.5050 O   0  0  0  0  0  0  0  0  0  0  0  0
   -3.8617    1.4083    0.0376 C   0  0  0  0  0  0  0  0  0  0  0  0
   -3.4116    2.4123    0.8969 C   0  0  0  0  0  0  0  0  0  0  0  0
   -4.3235    3.3614    1.2886 C   0  0  0  0  0  0  0  0  0  0  0  0
   -5.6268    3.3492    0.8701 C   0  0  0  0  0  0  0  0  0  0  0  0
   -6.0754    2.3657    0.0257 C   0  0  0  0  0  0  0  0  0  0  0  0
   -5.1645    1.3853   -0.3888 C   0  0  0  0  0  0  0  0  0  0  0  0
   -1.7202    0.3847    0.3126 O   0  0  0  0  0  0  0  0  0  0  0  0
   -0.5414    0.9458   -0.1481 C   0  0  0  0  0  0  0  0  0  0  0  0
    0.2990    1.5500    0.5597 O   0  0  0  0  0  0  0  0  0  0  0  0
    3.2650    1.4995   -1.3484 C   0  0  0  0  0  0  0  0  0  0  0  0
    4.4208    0.9451   -0.7835 C   0  0  0  0  0  0  0  0  0  0  0  0
    6.8368   -0.3118    0.4193 C   0  0  0  0  0  0  0  0  0  0  0  0
    7.9229   -0.9076    0.9662 N   0  0  0  0  0  0  0  0  0  0  0  0
    9.9950   -2.5573    1.3611 H   0  0  0  0  0  0  0  0  0  0  0  0
    9.1314   -2.7475    2.9493 H   0  0  0  0  0  0  0  0  0  0  0  0
    9.0003   -4.0111    1.6914 H   0  0  0  0  0  0  0  0  0  0  0  0
    6.7331   -3.9873    1.2039 H   0  0  0  0  0  0  0  0  0  0  0  0
    3.4462   -2.2127   -0.4417 H   0  0  0  0  0  0  0  0  0  0  0  0
    1.3727   -1.2371   -1.4513 H   0  0  0  0  0  0  0  0  0  0  0  0
    0.8258    1.0325   -3.2771 H   0  0  0  0  0  0  0  0  0  0  0  0
    1.5217    3.1608   -2.9299 H   0  0  0  0  0  0  0  0  0  0  0  0
    1.3356    3.1107   -1.1472 H   0  0  0  0  0  0  0  0  0  0  0  0
   -0.1525    3.1787   -2.1340 H   0  0  0  0  0  0  0  0  0  0  0  0
   -1.3087   -0.9010   -2.1179 H   0  0  0  0  0  0  0  0  0  0  0  0
   -1.1751    0.3230   -3.4035 H   0  0  0  0  0  0  0  0  0  0  0  0
   -2.4780    1.9283   -1.8537 H   0  0  0  0  0  0  0  0  0  0  0  0
   -3.4495    0.5112   -2.5380 H   0  0  0  0  0  0  0  0  0  0  0  0
   -2.8806   -1.6965   -1.0888 H   0  0  0  0  0  0  0  0  0  0  0  0
   -4.4779   -0.9770   -1.1657 H   0  0  0  0  0  0  0  0  0  0  0  0
   -4.5874   -3.6519    1.2450 H   0  0  0  0  0  0  0  0  0  0  0  0
   -5.5595   -2.7733    0.0409 H   0  0  0  0  0  0  0  0  0  0  0  0
   -3.9875   -3.4218   -0.4810 H   0  0  0  0  0  0  0  0  0  0  0  0
   -5.0852   -1.5663    2.5646 H   0  0  0  0  0  0  0  0  0  0  0  0
   -4.5316    0.0239    2.0267 H   0  0  0  0  0  0  0  0  0  0  0  0
   -5.9027   -0.8425    1.1901 H   0  0  0  0  0  0  0  0  0  0  0  0
   -2.2417   -2.5999    0.9870 H   0  0  0  0  0  0  0  0  0  0  0  0
   -2.3905    2.3682    1.1866 H   0  0  0  0  0  0  0  0  0  0  0  0
   -3.9812    4.1529    1.9622 H   0  0  0  0  0  0  0  0  0  0  0  0
   -6.3019    4.1434    1.2255 H   0  0  0  0  0  0  0  0  0  0  0  0
   -7.1032    2.3683   -0.2955 H   0  0  0  0  0  0  0  0  0  0  0  0
   -5.5900    0.6400   -1.0607 H   0  0  0  0  0  0  0  0  0  0  0  0
    3.2435    2.5529   -1.5945 H   0  0  0  0  0  0  0  0  0  0  0  0
    5.2823    1.5875   -0.6002 H   0  0  0  0  0  0  0  0  0  0  0  0
    6.9100    0.7393    0.2114 H   0  0  0  0  0  0  0  0  0  0  0  0
  1  2  1  0
  2  3  2  0
  3  4  1  0
  4  5  2  0
  5  6  1  0
  6  7  2  0
  7  8  1  0
  8  9  2  0
  9 10  1  0
 10 11  1  0
 10 12  1  0
 12 13  1  0
 13 14  1  0
 14 15  1  0
 15 16  1  6
 16 17  1  0
 17 18  1  0
 17 19  1  0
 17 20  1  0
 15 21  1  0
 21 22  2  0
 22 23  1  0
 23 24  2  0
 24 25  1  0
 25 26  2  0
 15 27  1  0
 27 28  1  0
 28 29  2  0
  9 30  1  0
 30 31  2  0
  5 32  1  0
 32 33  2  0
 33  2  1  0
 31  6  1  0
 28 12  1  0
 26 21  1  0
  1 34  1  0
  1 35  1  0
  1 36  1  0
  3 37  1  0
  7 38  1  0
  8 39  1  0
 10 40  1  6
 11 41  1  0
 11 42  1  0
 11 43  1  0
 13 44  1  0
 13 45  1  0
 14 46  1  0
 14 47  1  0
 16 48  1  0
 16 49  1  0
 18 50  1  0
 18 51  1  0
 18 52  1  0
 19 53  1  0
 19 54  1  0
 19 55  1  0
 20 56  1  0
 22 57  1  0
 23 58  1  0
 24 59  1  0
 25 60  1  0
 26 61  1  0
 30 62  1  0
 31 63  1  0
 32 64  1  0
M  END
$$$$
