@<TRIPOS>MOLECULE
*****
 61 64 0 0 0
SMALL
GASTEIGER

@<TRIPOS>ATOM
      1 C          -8.5298   -3.0488   -0.7030 C.3     1  UNL1        0.0788
      2 O          -7.9228   -1.7951   -0.8246 O.3     1  UNL1       -0.4951
      3 C          -6.5614   -1.6008   -0.8373 C.ar    1  UNL1        0.1201
      4 C          -6.0235   -0.3428   -0.9592 C.ar    1  UNL1       -0.0193
      5 C          -4.6580   -0.1758   -0.9688 C.ar    1  UNL1       -0.0475
      6 C          -3.7731   -1.2195   -0.8610 C.ar    1  UNL1        0.0226
      7 C          -2.3344   -1.1095   -0.8601 C.2     1  UNL1        0.1955
      8 O          -1.6784   -2.1449   -1.2979 O.2     1  UNL1       -0.2866
      9 C          -1.5274    0.0102   -0.4385 C.ar    1  UNL1        0.0520
     10 C          -0.2760    0.3458   -0.9789 C.ar    1  UNL1        0.0293
     11 C           0.3470   -0.4046   -2.0981 C.3     1  UNL1       -0.0235
     12 N           0.2146    1.4207   -0.3204 N.ar    1  UNL1       -0.3241
     13 C           1.4743    2.0312   -0.6568 C.3     1  UNL1        0.0527
     14 C           2.6517    1.4104    0.0009 C.ar    1  UNL1        0.0109
     15 C           3.4434    0.5054   -0.7098 C.ar    1  UNL1       -0.0123
     16 C           4.5601   -0.1289   -0.1493 C.ar    1  UNL1        0.1222
     17 O           5.3039   -1.0065   -0.8823 O.3     1  UNL1       -0.4779
     18 C           6.4255   -1.6947   -0.4524 C.3     1  UNL1        0.1931
     19 C           6.2210   -3.2001   -0.5725 C.3     1  UNL1       -0.0172
     20 C           7.5664   -1.2757   -1.3121 C.2     1  UNL1        0.3456
     21 O           8.6862   -1.7800   -1.1038 O.2     1  UNL1       -0.2468
     22 O           7.3949   -0.3518   -2.3169 O.3     1  UNL1       -0.4781
     23 C           4.8713    0.1661    1.1550 C.ar    1  UNL1       -0.0172
     24 C           4.1026    1.0639    1.8905 C.ar    1  UNL1       -0.0227
     25 C           2.9961    1.6764    1.2959 C.ar    1  UNL1        0.1285
     26 F           2.2840    2.5634    2.0618 F       1  UNL1       -0.2051
     27 C          -0.6666    1.7936    0.6229 C.ar    1  UNL1        0.1457
     28 N          -0.6589    2.7848    1.5396 N.ar    1  UNL1       -0.1949
     29 C          -1.6421    3.0038    2.4232 C.ar    1  UNL1        0.2163
     30 O          -1.5928    4.0449    3.3557 O.3     1  UNL1       -0.4796
     31 C          -0.4401    4.8813    3.3369 C.3     1  UNL1        0.0804
     32 C          -2.7112    2.1441    2.3638 C.ar    1  UNL1        0.0007
     33 C          -2.7853    1.1173    1.4587 C.ar    1  UNL1       -0.0453
     34 C          -1.7638    0.9136    0.5584 C.ar    1  UNL1        0.0302
     35 C          -4.3491   -2.4810   -0.7389 C.ar    1  UNL1       -0.0475
     36 C          -5.7066   -2.6921   -0.7250 C.ar    1  UNL1       -0.0193
     37 H          -8.3905   -3.6479   -1.6211 H       1  UNL1        0.0660
     38 H          -9.6042   -2.8913   -0.4647 H       1  UNL1        0.0660
     39 H          -8.0570   -3.6367    0.1278 H       1  UNL1        0.0660
     40 H          -6.6915    0.4951   -1.0459 H       1  UNL1        0.0654
     41 H          -4.2203    0.8270   -1.0664 H       1  UNL1        0.0626
     42 H          -0.3896   -0.8685   -2.7572 H       1  UNL1        0.0292
     43 H           0.9414    0.2952   -2.7229 H       1  UNL1        0.0292
     44 H           1.0460   -1.1999   -1.7263 H       1  UNL1        0.0292
     45 H           1.4641    3.1311   -0.4284 H       1  UNL1        0.0543
     46 H           1.6253    1.9733   -1.7622 H       1  UNL1        0.0543
     47 H           3.2082    0.2695   -1.7262 H       1  UNL1        0.0658
     48 H           6.7492   -1.5164    0.5874 H       1  UNL1        0.0849
     49 H           6.9711   -3.6792    0.0798 H       1  UNL1        0.0271
     50 H           5.2238   -3.4337   -0.1770 H       1  UNL1        0.0271
     51 H           6.3566   -3.5553   -1.6169 H       1  UNL1        0.0271
     52 H           8.1744    0.1845   -2.7185 H       1  UNL1        0.2952
     53 H           5.7261   -0.2777    1.6877 H       1  UNL1        0.0655
     54 H           4.3470    1.3012    2.9284 H       1  UNL1        0.0647
     55 H           0.3863    4.2618    3.7684 H       1  UNL1        0.0660
     56 H          -0.5990    5.8209    3.8869 H       1  UNL1        0.0660
     57 H          -0.1888    5.0395    2.2641 H       1  UNL1        0.0660
     58 H          -3.5500    2.2577    3.0507 H       1  UNL1        0.0671
     59 H          -3.6197    0.4299    1.4388 H       1  UNL1        0.0626
     60 H          -3.6994   -3.3259   -0.6515 H       1  UNL1        0.0626
     61 H          -6.1511   -3.6784   -0.6300 H       1  UNL1        0.0654
@<TRIPOS>BOND
     1     1     2    1
     2     2     3    1
     3     3     4   ar
     4     4     5   ar
     5     5     6   ar
     6     6     7    1
     7     7     8    2
     8     7     9    1
     9     9    10   ar
    10    10    11    1
    11    10    12   ar
    12    12    13    1
    13    13    14    1
    14    14    15   ar
    15    15    16   ar
    16    16    17    1
    17    17    18    1
    18    18    19    1
    19    18    20    1
    20    20    21    2
    21    20    22    1
    22    16    23   ar
    23    23    24   ar
    24    24    25   ar
    25    25    26    1
    26    12    27   ar
    27    27    28   ar
    28    28    29   ar
    29    29    30    1
    30    30    31    1
    31    29    32   ar
    32    32    33   ar
    33    33    34   ar
    34     6    35   ar
    35    35    36   ar
    36    36     3   ar
    37    34     9   ar
    38    25    14   ar
    39    34    27   ar
    40     1    37    1
    41     1    38    1
    42     1    39    1
    43     4    40    1
    44     5    41    1
    45    11    42    1
    46    11    43    1
    47    11    44    1
    48    13    45    1
    49    13    46    1
    50    15    47    1
    51    18    48    1
    52    19    49    1
    53    19    50    1
    54    19    51    1
    55    22    52    1
    56    23    53    1
    57    24    54    1
    58    31    55    1
    59    31    56    1
    60    31    57    1
    61    32    58    1
    62    33    59    1
    63    35    60    1
    64    36    61    1
