
     RDKit          3D

 46 49  0  0  0  0  0  0  0  0999 V2000
    2.8945    4.0497   -0.0426 C   0  0  0  0  0  0  0  0  0  0  0  0
    3.6318    2.8588    0.4993 C   0  0  0  0  0  0  0  0  0  0  0  0
    2.7093    1.8125    0.9643 N   0  0  0  0  0  0  0  0  0  0  0  0
    2.2224    0.7991    0.2127 C   0  0  0  0  0  0  0  0  0  0  0  0
    1.3952    0.0249    0.9844 C   0  0  0  0  0  0  0  0  0  0  0  0
    0.6674   -1.1672    0.5527 C   0  0  0  0  0  0  0  0  0  0  0  0
   -0.7866   -0.9501    0.4675 C   0  0  0  0  0  0  0  0  0  0  0  0
   -1.6379   -1.8180    1.1008 C   0  0  0  0  0  0  0  0  0  0  0  0
   -3.0262   -1.6443    1.0466 C   0  0  0  0  0  0  0  0  0  0  0  0
   -3.5348   -0.5815    0.3429 C   0  0  0  0  0  0  0  0  0  0  0  0
   -4.8659   -0.3643    0.2563 F   0  0  0  0  0  0  0  0  0  0  0  0
   -2.6818    0.2887   -0.2922 C   0  0  0  0  0  0  0  0  0  0  0  0
   -3.2578    1.3989   -1.0267 C   0  0  0  0  0  0  0  0  0  0  0  0
   -4.2714    2.1890   -0.5353 C   0  0  0  0  0  0  0  0  0  0  0  0
   -4.8127    3.2175   -1.2052 N   0  0  0  0  0  0  0  0  0  0  0  0
   -4.3404    3.4958   -2.4281 C   0  0  0  0  0  0  0  0  0  0  0  0
   -3.3530    2.7535   -2.9487 N   0  0  0  0  0  0  0  0  0  0  0  0
   -2.7884    1.7035   -2.2850 C   0  0  0  0  0  0  0  0  0  0  0  0
   -1.3202    0.1235   -0.2424 C   0  0  0  0  0  0  0  0  0  0  0  0
    1.1362   -1.6317   -0.7391 N   0  0  0  0  0  0  0  0  0  0  0  0
    1.5878   -2.8350   -0.6805 C   0  0  0  0  0  0  0  0  0  0  0  0
    2.1104   -3.5428   -1.8004 N   0  0  0  0  0  0  0  0  0  0  0  0
    1.5037   -3.3410    0.6379 N   0  0  0  0  0  0  0  0  0  0  0  0
    1.9180   -4.6737    1.0998 C   0  0  0  0  0  0  0  0  0  0  0  0
    0.9423   -2.3197    1.4388 C   0  0  0  0  0  0  0  0  0  0  0  0
    0.7145   -2.3738    2.6855 O   0  0  0  0  0  0  0  0  0  0  0  0
    1.3880    0.5924    2.2332 C   0  0  0  0  0  0  0  0  0  0  0  0
    2.1956    1.6648    2.1636 N   0  0  0  0  0  0  0  0  0  0  0  0
    2.7230    4.7767    0.7847 H   0  0  0  0  0  0  0  0  0  0  0  0
    3.5507    4.5671   -0.7756 H   0  0  0  0  0  0  0  0  0  0  0  0
    1.9493    3.7638   -0.5492 H   0  0  0  0  0  0  0  0  0  0  0  0
    4.2324    2.4186   -0.3274 H   0  0  0  0  0  0  0  0  0  0  0  0
    4.3334    3.1679    1.2938 H   0  0  0  0  0  0  0  0  0  0  0  0
    2.4954    0.6876   -0.8345 H   0  0  0  0  0  0  0  0  0  0  0  0
   -1.3345   -2.6845    1.6757 H   0  0  0  0  0  0  0  0  0  0  0  0
   -3.7102   -2.3190    1.5402 H   0  0  0  0  0  0  0  0  0  0  0  0
   -4.6578    1.9673    0.4554 H   0  0  0  0  0  0  0  0  0  0  0  0
   -4.7274    4.3159   -3.0376 H   0  0  0  0  0  0  0  0  0  0  0  0
   -1.9964    1.1089   -2.7040 H   0  0  0  0  0  0  0  0  0  0  0  0
   -0.6122    0.7703   -0.7178 H   0  0  0  0  0  0  0  0  0  0  0  0
    1.5039   -4.2449   -2.2592 H   0  0  0  0  0  0  0  0  0  0  0  0
    3.0598   -3.3708   -2.1522 H   0  0  0  0  0  0  0  0  0  0  0  0
    1.0140   -5.1960    1.4621 H   0  0  0  0  0  0  0  0  0  0  0  0
    2.3522   -5.2077    0.2452 H   0  0  0  0  0  0  0  0  0  0  0  0
    2.6538   -4.4932    1.9175 H   0  0  0  0  0  0  0  0  0  0  0  0
    0.8307    0.2425    3.1217 H   0  0  0  0  0  0  0  0  0  0  0  0
  1  2  1  0
  2  3  1  0
  3  4  1  0
  4  5  2  0
  5  6  1  0
  6  7  1  0
  7  8  2  0
  8  9  1  0
  9 10  2  0
 10 11  1  0
 10 12  1  0
 12 13  1  0
 13 14  2  0
 14 15  1  0
 15 16  2  0
 16 17  1  0
 17 18  2  0
 12 19  2  0
  6 20  1  0
 20 21  2  0
 21 22  1  0
 21 23  1  0
 23 24  1  0
 23 25  1  0
 25 26  2  0
  5 27  1  0
 27 28  2  0
 28  3  1  0
 25  6  1  0
 19  7  1  0
 18 13  1  0
  1 29  1  0
  1 30  1  0
  1 31  1  0
  2 32  1  0
  2 33  1  0
  4 34  1  0
  8 35  1  0
  9 36  1  0
 14 37  1  0
 16 38  1  0
 18 39  1  0
 19 40  1  0
 22 41  1  0
 22 42  1  0
 24 43  1  0
 24 44  1  0
 24 45  1  0
 27 46  1  0
M  END
$$$$
