@<TRIPOS>MOLECULE
*****
 46 49 0 0 0
SMALL
GASTEIGER

@<TRIPOS>ATOM
      1 C           2.8945    4.0497   -0.0426 C.3     1  UNL1       -0.0455
      2 C           3.6318    2.8588    0.4993 C.3     1  UNL1        0.0387
      3 N           2.7093    1.8125    0.9643 N.ar    1  UNL1       -0.2713
      4 C           2.2224    0.7991    0.2127 C.ar    1  UNL1        0.0332
      5 C           1.3952    0.0249    0.9844 C.ar    1  UNL1        0.0480
      6 C           0.6674   -1.1672    0.5527 C.3     1  UNL1        0.2674
      7 C          -0.7866   -0.9501    0.4675 C.ar    1  UNL1        0.0115
      8 C          -1.6379   -1.8180    1.1008 C.ar    1  UNL1       -0.0513
      9 C          -3.0262   -1.6443    1.0466 C.ar    1  UNL1       -0.0254
     10 C          -3.5348   -0.5815    0.3429 C.ar    1  UNL1        0.1312
     11 F          -4.8659   -0.3643    0.2563 F       1  UNL1       -0.2049
     12 C          -2.6818    0.2887   -0.2922 C.ar    1  UNL1        0.0206
     13 C          -3.2578    1.3989   -1.0267 C.ar    1  UNL1        0.0211
     14 C          -4.2714    2.1890   -0.5353 C.ar    1  UNL1        0.0385
     15 N          -4.8127    3.2175   -1.2052 N.ar    1  UNL1       -0.2431
     16 C          -4.3404    3.4958   -2.4281 C.ar    1  UNL1        0.1159
     17 N          -3.3530    2.7535   -2.9487 N.ar    1  UNL1       -0.2431
     18 C          -2.7884    1.7035   -2.2850 C.ar    1  UNL1        0.0385
     19 C          -1.3202    0.1235   -0.2424 C.ar    1  UNL1       -0.0435
     20 N           1.1362   -1.6317   -0.7391 N.2     1  UNL1       -0.0890
     21 C           1.5878   -2.8350   -0.6805 C.2     1  UNL1        0.3731
     22 N           2.1104   -3.5428   -1.8004 N.pl3   1  UNL1       -0.2512
     23 N           1.5037   -3.3410    0.6379 N.am    1  UNL1       -0.1614
     24 C           1.9180   -4.6737    1.0998 C.3     1  UNL1        0.0573
     25 C           0.9423   -2.3197    1.4388 C.2     1  UNL1        0.3304
     26 O           0.7145   -2.3738    2.6855 O.2     1  UNL1       -0.2520
     27 C           1.3880    0.5924    2.2332 C.ar    1  UNL1        0.0571
     28 N           2.1956    1.6648    2.1636 N.ar    1  UNL1       -0.1792
     29 H           2.7230    4.7767    0.7847 H       1  UNL1        0.0247
     30 H           3.5507    4.5671   -0.7756 H       1  UNL1        0.0247
     31 H           1.9493    3.7638   -0.5492 H       1  UNL1        0.0247
     32 H           4.2324    2.4186   -0.3274 H       1  UNL1        0.0506
     33 H           4.3334    3.1679    1.2938 H       1  UNL1        0.0506
     34 H           2.4954    0.6876   -0.8345 H       1  UNL1        0.0830
     35 H          -1.3345   -2.6845    1.6757 H       1  UNL1        0.0623
     36 H          -3.7102   -2.3190    1.5402 H       1  UNL1        0.0646
     37 H          -4.6578    1.9673    0.4554 H       1  UNL1        0.0837
     38 H          -4.7274    4.3159   -3.0376 H       1  UNL1        0.1047
     39 H          -1.9964    1.1089   -2.7040 H       1  UNL1        0.0837
     40 H          -0.6122    0.7703   -0.7178 H       1  UNL1        0.0629
     41 H           1.5039   -4.2449   -2.2592 H       1  UNL1        0.2412
     42 H           3.0598   -3.3708   -2.1522 H       1  UNL1        0.2412
     43 H           1.0140   -5.1960    1.4621 H       1  UNL1        0.0602
     44 H           2.3522   -5.2077    0.2452 H       1  UNL1        0.0602
     45 H           2.6538   -4.4932    1.9175 H       1  UNL1        0.0602
     46 H           0.8307    0.2425    3.1217 H       1  UNL1        0.0852
@<TRIPOS>BOND
     1     1     2    1
     2     2     3    1
     3     3     4   ar
     4     4     5   ar
     5     5     6    1
     6     6     7    1
     7     7     8   ar
     8     8     9   ar
     9     9    10   ar
    10    10    11    1
    11    10    12   ar
    12    12    13    1
    13    13    14   ar
    14    14    15   ar
    15    15    16   ar
    16    16    17   ar
    17    17    18   ar
    18    12    19   ar
    19     6    20    1
    20    20    21    2
    21    21    22    1
    22    21    23    1
    23    23    24    1
    24    23    25   am
    25    25    26    2
    26     5    27   ar
    27    27    28   ar
    28    28     3   ar
    29    25     6    1
    30    19     7   ar
    31    18    13   ar
    32     1    29    1
    33     1    30    1
    34     1    31    1
    35     2    32    1
    36     2    33    1
    37     4    34    1
    38     8    35    1
    39     9    36    1
    40    14    37    1
    41    16    38    1
    42    18    39    1
    43    19    40    1
    44    22    41    1
    45    22    42    1
    46    24    43    1
    47    24    44    1
    48    24    45    1
    49    27    46    1
