@<TRIPOS>MOLECULE
*****
 50 52 0 0 0
SMALL
GASTEIGER

@<TRIPOS>ATOM
      1 C          -4.4011    2.2565    0.7234 C.3     1  UNL1       -0.0524
      2 C          -4.9949    0.8626    0.5926 C.3     1  UNL1       -0.0039
      3 N          -4.0060   -0.0015    0.0506 N.3     1  UNL1       -0.3013
      4 C          -4.3641   -1.3563   -0.1491 C.3     1  UNL1       -0.0039
      5 C          -4.5750   -2.1653    1.1139 C.3     1  UNL1       -0.0524
      6 C          -2.6732    0.2562    0.5069 C.3     1  UNL1        0.0151
      7 C          -1.6862   -0.7405   -0.0524 C.3     1  UNL1        0.0326
      8 N          -0.3215   -0.4975    0.3353 N.am    1  UNL1       -0.2680
      9 C           0.5858    0.3011   -0.3982 C.ar    1  UNL1        0.0456
     10 C           1.9442    0.4841   -0.2639 C.ar    1  UNL1        0.0234
     11 C           2.6207    1.3227   -1.1161 C.ar    1  UNL1       -0.0324
     12 C           1.9475    2.0087   -2.1365 C.ar    1  UNL1        0.0417
     13 CL          2.8173    3.0640   -3.2088 Cl      1  UNL1       -0.0835
     14 C           0.5884    1.7834   -2.2183 C.ar    1  UNL1       -0.0416
     15 C          -0.1235    0.9496   -1.3820 C.ar    1  UNL1       -0.0383
     16 C           2.7509   -0.1745    0.7615 C.2     1  UNL1        0.0778
     17 N           2.4388   -0.7283    1.8821 N.2     1  UNL1       -0.2733
     18 C           1.1390   -0.8768    2.5009 C.3     1  UNL1        0.1170
     19 C           0.0475   -1.1634    1.5618 C.2     1  UNL1        0.2413
     20 O          -0.6808   -2.1609    1.8957 O.2     1  UNL1       -0.2732
     21 C           4.1891   -0.1855    0.4111 C.ar    1  UNL1        0.0357
     22 C           5.1618    0.6866    0.8568 C.ar    1  UNL1       -0.0498
     23 C           6.4535    0.5088    0.4096 C.ar    1  UNL1       -0.0610
     24 C           6.7580   -0.5117   -0.4567 C.ar    1  UNL1       -0.0590
     25 C           5.7863   -1.3821   -0.9010 C.ar    1  UNL1       -0.0258
     26 C           4.4915   -1.2144   -0.4611 C.ar    1  UNL1        0.1325
     27 F           3.6062   -2.1227   -0.9544 F       1  UNL1       -0.2048
     28 H          -5.2149    2.9988    0.9178 H       1  UNL1        0.0242
     29 H          -3.7169    2.2366    1.6015 H       1  UNL1        0.0242
     30 H          -3.9141    2.5887   -0.1971 H       1  UNL1        0.0242
     31 H          -5.8125    0.9625   -0.1799 H       1  UNL1        0.0424
     32 H          -5.4630    0.5379    1.5248 H       1  UNL1        0.0424
     33 H          -3.6038   -1.8760   -0.7563 H       1  UNL1        0.0424
     34 H          -5.2920   -1.3688   -0.7815 H       1  UNL1        0.0424
     35 H          -3.8840   -3.0320    1.1898 H       1  UNL1        0.0242
     36 H          -5.6000   -2.6392    1.0533 H       1  UNL1        0.0242
     37 H          -4.5333   -1.5353    2.0230 H       1  UNL1        0.0242
     38 H          -2.4198    1.3110    0.3355 H       1  UNL1        0.0442
     39 H          -2.7463    0.1205    1.6443 H       1  UNL1        0.0442
     40 H          -1.7867   -0.7841   -1.1258 H       1  UNL1        0.0481
     41 H          -2.0348   -1.7153    0.4251 H       1  UNL1        0.0481
     42 H           3.6669    1.4189   -0.9568 H       1  UNL1        0.0639
     43 H           0.0838    2.3341   -3.0247 H       1  UNL1        0.0633
     44 H          -1.1814    0.8669   -1.5579 H       1  UNL1        0.0637
     45 H           0.9505    0.1080    3.0118 H       1  UNL1        0.0605
     46 H           1.1720   -1.6095    3.3205 H       1  UNL1        0.0605
     47 H           4.7857    1.4428    1.5344 H       1  UNL1        0.0625
     48 H           7.1644    1.2227    0.7940 H       1  UNL1        0.0618
     49 H           7.7975   -0.6276   -0.7946 H       1  UNL1        0.0618
     50 H           6.0825   -2.1647   -1.5798 H       1  UNL1        0.0646
@<TRIPOS>BOND
     1     1     2    1
     2     2     3    1
     3     3     4    1
     4     4     5    1
     5     3     6    1
     6     6     7    1
     7     7     8    1
     8     8     9    1
     9     9    10   ar
    10    10    11   ar
    11    11    12   ar
    12    12    13    1
    13    12    14   ar
    14    14    15   ar
    15    10    16    1
    16    16    17    2
    17    17    18    1
    18    18    19    1
    19    19    20    2
    20    16    21    1
    21    21    22   ar
    22    22    23   ar
    23    23    24   ar
    24    24    25   ar
    25    25    26   ar
    26    26    27    1
    27    19     8   am
    28    26    21   ar
    29    15     9   ar
    30     1    28    1
    31     1    29    1
    32     1    30    1
    33     2    31    1
    34     2    32    1
    35     4    33    1
    36     4    34    1
    37     5    35    1
    38     5    36    1
    39     5    37    1
    40     6    38    1
    41     6    39    1
    42     7    40    1
    43     7    41    1
    44    11    42    1
    45    14    43    1
    46    15    44    1
    47    18    45    1
    48    18    46    1
    49    22    47    1
    50    23    48    1
    51    24    49    1
    52    25    50    1
