@<TRIPOS>MOLECULE
*****
 61 68 0 0 0
SMALL
GASTEIGER

@<TRIPOS>ATOM
      1 C           4.4201   -1.0674   -1.6906 C.3     1  UNL1       -0.0155
      2 N           4.4233   -0.9528   -0.2756 N.3     1  UNL1       -0.3136
      3 C           3.1953   -0.7427    0.3805 C.3     1  UNL1        0.0423
      4 C           2.1279   -1.7732    0.0239 C.3     1  UNL1        0.0107
      5 C           1.1067   -1.6650    1.1326 C.3     1  UNL1        0.1402
      6 O           1.2404   -0.5648    1.9034 O.3     1  UNL1       -0.3282
      7 C           1.4384    0.6574    1.2566 C.3     1  UNL1        0.1741
      8 C           1.9183    1.5638    2.3989 C.3     1  UNL1       -0.0136
      9 C           2.5541    0.6106    0.2329 C.3     1  UNL1        0.1214
     10 O           2.1172    0.7677   -1.0593 O.3     1  UNL1       -0.3735
     11 C           2.7261    1.8121   -1.7255 C.3     1  UNL1        0.0371
     12 N           0.2055    1.1984    0.7374 N.ar    1  UNL1       -0.3070
     13 C          -0.1189    2.5049    0.5610 C.ar    1  UNL1        0.0527
     14 C           0.6165    3.6497    0.7630 C.ar    1  UNL1       -0.0375
     15 C           0.0222    4.8787    0.4841 C.ar    1  UNL1       -0.0598
     16 C          -1.2694    4.9805    0.0146 C.ar    1  UNL1       -0.0611
     17 C          -2.0078    3.8335   -0.1902 C.ar    1  UNL1       -0.0520
     18 C          -1.4105    2.6254    0.0889 C.ar    1  UNL1        0.0081
     19 C          -1.9058    1.3517   -0.0384 C.ar    1  UNL1        0.0151
     20 C          -3.1185    0.8204   -0.4669 C.ar    1  UNL1       -0.0078
     21 C          -3.3626   -0.5338   -0.5114 C.ar    1  UNL1        0.0518
     22 C          -2.3220   -1.3586   -0.1026 C.ar    1  UNL1        0.0221
     23 C          -2.2135   -2.7295   -0.0366 C.ar    1  UNL1        0.0085
     24 C          -3.0235   -3.7967   -0.3090 C.ar    1  UNL1       -0.0520
     25 C          -2.6038   -5.1265   -0.1321 C.ar    1  UNL1       -0.0611
     26 C          -1.3338   -5.3294    0.3306 C.ar    1  UNL1       -0.0598
     27 C          -0.4866   -4.2648    0.6164 C.ar    1  UNL1       -0.0375
     28 C          -0.9168   -2.9791    0.4365 C.ar    1  UNL1        0.0524
     29 N          -0.2688   -1.8359    0.6490 N.ar    1  UNL1       -0.3115
     30 C          -1.1159   -0.8537    0.3250 C.ar    1  UNL1        0.0774
     31 C          -0.9224    0.5071    0.3536 C.ar    1  UNL1        0.0772
     32 C          -4.7142   -0.7543   -0.9902 C.2     1  UNL1        0.2453
     33 O          -5.3397   -1.8295   -1.1810 O.2     1  UNL1       -0.2702
     34 N          -5.2809    0.5420   -1.2346 N.am    1  UNL1       -0.3072
     35 C          -4.3188    1.5453   -0.9439 C.3     1  UNL1        0.0385
     36 H           4.8979   -2.0191   -2.0518 H       1  UNL1        0.0388
     37 H           3.4105   -0.9485   -2.1670 H       1  UNL1        0.0388
     38 H           5.0582   -0.2682   -2.1202 H       1  UNL1        0.0388
     39 H           5.0208   -1.6864    0.1455 H       1  UNL1        0.1220
     40 H           3.3517   -0.8809    1.5002 H       1  UNL1        0.0489
     41 H           1.6151   -1.4284   -0.9147 H       1  UNL1        0.0325
     42 H           2.5475   -2.7793   -0.0869 H       1  UNL1        0.0325
     43 H           1.2864   -2.5571    1.7891 H       1  UNL1        0.0839
     44 H           2.8767    2.0611    2.1745 H       1  UNL1        0.0277
     45 H           2.2045    0.9184    3.3101 H       1  UNL1        0.0277
     46 H           1.1232    2.1976    2.8023 H       1  UNL1        0.0277
     47 H           3.3383    1.3788    0.4605 H       1  UNL1        0.0660
     48 H           3.8216    1.7412   -1.8139 H       1  UNL1        0.0524
     49 H           2.3986    2.7698   -1.2767 H       1  UNL1        0.0524
     50 H           2.3635    1.8201   -2.7994 H       1  UNL1        0.0524
     51 H           1.6376    3.6043    1.1018 H       1  UNL1        0.0638
     52 H           0.6192    5.7554    0.6521 H       1  UNL1        0.0618
     53 H          -1.7430    5.9186   -0.2052 H       1  UNL1        0.0618
     54 H          -3.0189    3.9157   -0.5571 H       1  UNL1        0.0624
     55 H          -4.0044   -3.6567   -0.6662 H       1  UNL1        0.0624
     56 H          -3.3096   -5.9068   -0.3722 H       1  UNL1        0.0618
     57 H          -0.9846   -6.3412    0.4759 H       1  UNL1        0.0618
     58 H           0.5168   -4.4403    0.9822 H       1  UNL1        0.0638
     59 H          -6.2510    0.7142   -1.5736 H       1  UNL1        0.1493
     60 H          -4.7415    2.2244   -0.1635 H       1  UNL1        0.0512
     61 H          -4.0927    2.2016   -1.8123 H       1  UNL1        0.0512
@<TRIPOS>BOND
     1     1     2    1
     2     2     3    1
     3     3     4    1
     4     4     5    1
     5     5     6    1
     6     6     7    1
     7     7     8    1
     8     7     9    1
     9     9    10    1
    10    10    11    1
    11     7    12    1
    12    12    13   ar
    13    13    14   ar
    14    14    15   ar
    15    15    16   ar
    16    16    17   ar
    17    17    18   ar
    18    18    19   ar
    19    19    20   ar
    20    20    21   ar
    21    21    22   ar
    22    22    23   ar
    23    23    24   ar
    24    24    25   ar
    25    25    26   ar
    26    26    27   ar
    27    27    28   ar
    28    28    29   ar
    29    29    30   ar
    30    30    31   ar
    31    21    32    1
    32    32    33    2
    33    32    34   am
    34    34    35    1
    35     9     3    1
    36    31    12   ar
    37    29     5    1
    38    18    13   ar
    39    31    19   ar
    40    35    20    1
    41    30    22   ar
    42    28    23   ar
    43     1    36    1
    44     1    37    1
    45     1    38    1
    46     2    39    1
    47     3    40    1
    48     4    41    1
    49     4    42    1
    50     5    43    1
    51     8    44    1
    52     8    45    1
    53     8    46    1
    54     9    47    1
    55    11    48    1
    56    11    49    1
    57    11    50    1
    58    14    51    1
    59    15    52    1
    60    16    53    1
    61    17    54    1
    62    24    55    1
    63    25    56    1
    64    26    57    1
    65    27    58    1
    66    34    59    1
    67    35    60    1
    68    35    61    1
