@<TRIPOS>MOLECULE
*****
 45 48 0 0 0
SMALL
GASTEIGER

@<TRIPOS>ATOM
      1 O          -1.8855    2.2916    2.0080 O.2     1  UNL1       -0.5029
      2 C          -2.4952    1.3773    1.1389 C.2     1  UNL1        0.1714
      3 C          -1.6733    0.6064    0.4007 C.2     1  UNL1        0.0481
      4 C          -0.2065    0.6780    0.4629 C.3     1  UNL1       -0.0086
      5 C           0.5272   -0.4308    1.0708 C.3     1  UNL1       -0.0454
      6 C           1.4281   -1.1586    0.0972 C.3     1  UNL1       -0.0457
      7 C           2.3385   -0.2815   -0.6710 C.3     1  UNL1       -0.0158
      8 C           1.8505    1.1607   -0.6901 C.3     1  UNL1       -0.0457
      9 C           0.3344    1.0371   -0.9116 C.3     1  UNL1       -0.0454
     10 C           3.7671   -0.3412   -0.2965 C.ar    1  UNL1       -0.0442
     11 C           4.2553   -0.0179    0.9433 C.ar    1  UNL1       -0.0569
     12 C           5.5848   -0.0688    1.3107 C.ar    1  UNL1       -0.0431
     13 C           6.5180   -0.4739    0.3755 C.ar    1  UNL1        0.0410
     14 CL          8.2113   -0.5497    0.8081 Cl      1  UNL1       -0.0835
     15 C           6.1167   -0.8147   -0.8861 C.ar    1  UNL1       -0.0431
     16 C           4.7766   -0.7402   -1.1813 C.ar    1  UNL1       -0.0569
     17 C          -2.3907   -0.3097   -0.4702 C.2     1  UNL1        0.1937
     18 O          -1.7936   -1.0875   -1.2145 O.2     1  UNL1       -0.2868
     19 C          -3.8423   -0.4039   -0.5545 C.ar    1  UNL1        0.0330
     20 C          -4.5251   -1.2626   -1.3707 C.ar    1  UNL1       -0.0502
     21 C          -5.9125   -1.2914   -1.3927 C.ar    1  UNL1       -0.0610
     22 C          -6.6604   -0.4429   -0.5807 C.ar    1  UNL1       -0.0610
     23 C          -6.0005    0.4359    0.2548 C.ar    1  UNL1       -0.0501
     24 C          -4.6295    0.4256    0.2396 C.ar    1  UNL1        0.0362
     25 C          -3.9473    1.3592    1.1272 C.2     1  UNL1        0.2282
     26 O          -4.5986    2.1240    1.8590 O.2     1  UNL1       -0.2834
     27 H          -1.8676    2.1533    2.9930 H       1  UNL1        0.2923
     28 H          -0.0110    1.6226    1.0628 H       1  UNL1        0.0351
     29 H          -0.0855   -1.1545    1.6495 H       1  UNL1        0.0271
     30 H           1.2446   -0.0420    1.8517 H       1  UNL1        0.0271
     31 H           1.9881   -1.9787    0.6339 H       1  UNL1        0.0271
     32 H           0.8002   -1.7431   -0.6384 H       1  UNL1        0.0271
     33 H           2.3188   -0.5779   -1.7657 H       1  UNL1        0.0349
     34 H           2.2880    1.7275   -1.5296 H       1  UNL1        0.0271
     35 H           2.0027    1.6507    0.2935 H       1  UNL1        0.0271
     36 H          -0.0393    2.0262   -1.2542 H       1  UNL1        0.0271
     37 H           0.0930    0.2748   -1.6748 H       1  UNL1        0.0271
     38 H           3.5990    0.3034    1.7153 H       1  UNL1        0.0621
     39 H           5.9268    0.1986    2.3113 H       1  UNL1        0.0632
     40 H           6.8128   -1.1353   -1.6432 H       1  UNL1        0.0632
     41 H           4.4811   -1.0197   -2.2027 H       1  UNL1        0.0621
     42 H          -3.9460   -1.9245   -2.0041 H       1  UNL1        0.0625
     43 H          -6.4628   -1.9642   -2.0322 H       1  UNL1        0.0618
     44 H          -7.7438   -0.4137   -0.5487 H       1  UNL1        0.0618
     45 H          -6.5465    1.1169    0.9062 H       1  UNL1        0.0625
@<TRIPOS>BOND
     1     1     2    1
     2     2     3    2
     3     3     4    1
     4     4     5    1
     5     5     6    1
     6     6     7    1
     7     7     8    1
     8     8     9    1
     9     7    10    1
    10    10    11   ar
    11    11    12   ar
    12    12    13   ar
    13    13    14    1
    14    13    15   ar
    15    15    16   ar
    16     3    17    1
    17    17    18    2
    18    17    19    1
    19    19    20   ar
    20    20    21   ar
    21    21    22   ar
    22    22    23   ar
    23    23    24   ar
    24    24    25    1
    25    25    26    2
    26    25     2    1
    27     9     4    1
    28    16    10   ar
    29    24    19   ar
    30     1    27    1
    31     4    28    1
    32     5    29    1
    33     5    30    1
    34     6    31    1
    35     6    32    1
    36     7    33    1
    37     8    34    1
    38     8    35    1
    39     9    36    1
    40     9    37    1
    41    11    38    1
    42    12    39    1
    43    15    40    1
    44    16    41    1
    45    20    42    1
    46    21    43    1
    47    22    44    1
    48    23    45    1
