
     RDKit          3D

 45 48  0  0  0  0  0  0  0  0999 V2000
   -1.8855    2.2916    2.0080 O   0  0  0  0  0  0  0  0  0  0  0  0
   -2.4952    1.3773    1.1389 C   0  0  0  0  0  0  0  0  0  0  0  0
   -1.6733    0.6064    0.4007 C   0  0  0  0  0  0  0  0  0  0  0  0
   -0.2065    0.6780    0.4629 C   0  0  1  0  0  0  0  0  0  0  0  0
    0.5272   -0.4308    1.0708 C   0  0  0  0  0  0  0  0  0  0  0  0
    1.4281   -1.1586    0.0972 C   0  0  0  0  0  0  0  0  0  0  0  0
    2.3385   -0.2815   -0.6710 C   0  0  1  0  0  0  0  0  0  0  0  0
    1.8505    1.1607   -0.6901 C   0  0  0  0  0  0  0  0  0  0  0  0
    0.3344    1.0371   -0.9116 C   0  0  0  0  0  0  0  0  0  0  0  0
    3.7671   -0.3412   -0.2965 C   0  0  0  0  0  0  0  0  0  0  0  0
    4.2553   -0.0179    0.9433 C   0  0  0  0  0  0  0  0  0  0  0  0
    5.5848   -0.0688    1.3107 C   0  0  0  0  0  0  0  0  0  0  0  0
    6.5180   -0.4739    0.3755 C   0  0  0  0  0  0  0  0  0  0  0  0
    8.2113   -0.5497    0.8081 Cl  0  0  0  0  0  0  0  0  0  0  0  0
    6.1167   -0.8147   -0.8861 C   0  0  0  0  0  0  0  0  0  0  0  0
    4.7766   -0.7402   -1.1813 C   0  0  0  0  0  0  0  0  0  0  0  0
   -2.3907   -0.3097   -0.4702 C   0  0  0  0  0  0  0  0  0  0  0  0
   -1.7936   -1.0875   -1.2145 O   0  0  0  0  0  0  0  0  0  0  0  0
   -3.8423   -0.4039   -0.5545 C   0  0  0  0  0  0  0  0  0  0  0  0
   -4.5251   -1.2626   -1.3707 C   0  0  0  0  0  0  0  0  0  0  0  0
   -5.9125   -1.2914   -1.3927 C   0  0  0  0  0  0  0  0  0  0  0  0
   -6.6604   -0.4429   -0.5807 C   0  0  0  0  0  0  0  0  0  0  0  0
   -6.0005    0.4359    0.2548 C   0  0  0  0  0  0  0  0  0  0  0  0
   -4.6295    0.4256    0.2396 C   0  0  0  0  0  0  0  0  0  0  0  0
   -3.9473    1.3592    1.1272 C   0  0  0  0  0  0  0  0  0  0  0  0
   -4.5986    2.1240    1.8590 O   0  0  0  0  0  0  0  0  0  0  0  0
   -1.8676    2.1533    2.9930 H   0  0  0  0  0  0  0  0  0  0  0  0
   -0.0110    1.6226    1.0628 H   0  0  0  0  0  0  0  0  0  0  0  0
   -0.0855   -1.1545    1.6495 H   0  0  0  0  0  0  0  0  0  0  0  0
    1.2446   -0.0420    1.8517 H   0  0  0  0  0  0  0  0  0  0  0  0
    1.9881   -1.9787    0.6339 H   0  0  0  0  0  0  0  0  0  0  0  0
    0.8002   -1.7431   -0.6384 H   0  0  0  0  0  0  0  0  0  0  0  0
    2.3188   -0.5779   -1.7657 H   0  0  0  0  0  0  0  0  0  0  0  0
    2.2880    1.7275   -1.5296 H   0  0  0  0  0  0  0  0  0  0  0  0
    2.0027    1.6507    0.2935 H   0  0  0  0  0  0  0  0  0  0  0  0
   -0.0393    2.0262   -1.2542 H   0  0  0  0  0  0  0  0  0  0  0  0
    0.0930    0.2748   -1.6748 H   0  0  0  0  0  0  0  0  0  0  0  0
    3.5990    0.3034    1.7153 H   0  0  0  0  0  0  0  0  0  0  0  0
    5.9268    0.1986    2.3113 H   0  0  0  0  0  0  0  0  0  0  0  0
    6.8128   -1.1353   -1.6432 H   0  0  0  0  0  0  0  0  0  0  0  0
    4.4811   -1.0197   -2.2027 H   0  0  0  0  0  0  0  0  0  0  0  0
   -3.9460   -1.9245   -2.0041 H   0  0  0  0  0  0  0  0  0  0  0  0
   -6.4628   -1.9642   -2.0322 H   0  0  0  0  0  0  0  0  0  0  0  0
   -7.7438   -0.4137   -0.5487 H   0  0  0  0  0  0  0  0  0  0  0  0
   -6.5465    1.1169    0.9062 H   0  0  0  0  0  0  0  0  0  0  0  0
  1  2  1  0
  2  3  2  0
  3  4  1  0
  4  5  1  0
  5  6  1  0
  6  7  1  0
  7  8  1  0
  8  9  1  0
  7 10  1  0
 10 11  2  0
 11 12  1  0
 12 13  2  0
 13 14  1  0
 13 15  1  0
 15 16  2  0
  3 17  1  0
 17 18  2  0
 17 19  1  0
 19 20  2  0
 20 21  1  0
 21 22  2  0
 22 23  1  0
 23 24  2  0
 24 25  1  0
 25 26  2  0
 25  2  1  0
  9  4  1  0
 16 10  1  0
 24 19  1  0
  1 27  1  0
  4 28  1  1
  5 29  1  0
  5 30  1  0
  6 31  1  0
  6 32  1  0
  7 33  1  6
  8 34  1  0
  8 35  1  0
  9 36  1  0
  9 37  1  0
 11 38  1  0
 12 39  1  0
 15 40  1  0
 16 41  1  0
 20 42  1  0
 21 43  1  0
 22 44  1  0
 23 45  1  0
M  END
$$$$
