
     RDKit          3D

 89 93  0  0  0  0  0  0  0  0999 V2000
   -5.0331    3.6533    2.4926 C   0  0  0  0  0  0  0  0  0  0  0  0
   -3.5328    3.7847    2.3703 C   0  0  0  0  0  0  0  0  0  0  0  0
   -3.0205    2.9584    1.1745 C   0  0  0  0  0  0  0  0  0  0  0  0
   -3.3557    1.5265    1.3481 C   0  0  0  0  0  0  0  0  0  0  0  0
   -2.9635    0.5709    0.3077 C   0  0  1  0  0  0  0  0  0  0  0  0
   -3.5211    0.8367   -1.0778 C   0  0  0  0  0  0  0  0  0  0  0  0
   -3.6145   -0.4778   -1.7294 N   0  0  0  0  0  0  0  0  0  0  0  0
   -4.7161   -0.8788   -2.5345 C   0  0  0  0  0  0  0  0  0  0  0  0
   -5.8652   -1.5003   -1.7924 C   0  0  0  0  0  0  0  0  0  0  0  0
   -6.4603   -0.5202   -0.7739 C   0  0  0  0  0  0  0  0  0  0  0  0
   -7.7434   -1.1631   -0.2838 C   0  0  0  0  0  0  0  0  0  0  0  0
   -7.3471   -2.2920    0.4620 O   0  0  0  0  0  0  0  0  0  0  0  0
   -6.7569   -3.2476   -0.3613 C   0  0  0  0  0  0  0  0  0  0  0  0
   -5.4781   -2.7227   -1.0144 C   0  0  0  0  0  0  0  0  0  0  0  0
   -2.5156   -1.3347   -1.4736 C   0  0  0  0  0  0  0  0  0  0  0  0
   -2.5269   -2.5489   -1.8033 O   0  0  0  0  0  0  0  0  0  0  0  0
   -1.4055   -0.8030   -0.8418 O   0  0  0  0  0  0  0  0  0  0  0  0
   -1.5355    0.2145    0.1791 C   0  0  0  0  0  0  0  0  0  0  0  0
   -0.6497    1.3718   -0.2085 C   0  0  0  0  0  0  0  0  0  0  0  0
    0.5336    0.6837   -0.9419 C   0  0  0  0  0  0  0  0  0  0  0  0
    1.0950   -0.2621   -0.0608 N   0  0  0  0  0  0  0  0  0  0  0  0
    2.3287   -0.8514   -0.3962 C   0  0  0  0  0  0  0  0  0  0  0  0
    2.1228   -1.7050   -1.6411 C   0  0  0  0  0  0  0  0  0  0  0  0
    2.9034   -1.7024    0.6833 C   0  0  0  0  0  0  0  0  0  0  0  0
    4.3260   -2.1287    0.4266 C   0  0  0  0  0  0  0  0  0  0  0  0
    5.1705   -1.0454   -0.0165 N   0  0  0  0  0  0  0  0  0  0  0  0
    6.3947   -0.7941    0.6412 C   0  0  0  0  0  0  0  0  0  0  0  0
    6.7567   -1.5207    1.6260 O   0  0  0  0  0  0  0  0  0  0  0  0
    7.3267    0.2691    0.2792 C   0  0  0  0  0  0  0  0  0  0  0  0
    8.5123   -0.0971   -0.3692 C   0  0  0  0  0  0  0  0  0  0  0  0
    8.7941   -1.5265   -0.6674 C   0  0  0  0  0  0  0  0  0  0  0  0
    9.3697    0.8636   -0.7062 N   0  0  0  0  0  0  0  0  0  0  0  0
    9.1269    2.1577   -0.4422 C   0  0  0  0  0  0  0  0  0  0  0  0
    7.9897    2.5217    0.1819 N   0  0  0  0  0  0  0  0  0  0  0  0
    7.0975    1.5930    0.5399 C   0  0  0  0  0  0  0  0  0  0  0  0
    5.8617    2.0022    1.2264 C   0  0  0  0  0  0  0  0  0  0  0  0
    4.6754   -0.2778   -1.1359 C   0  0  0  0  0  0  0  0  0  0  0  0
    3.3029    0.2394   -0.8347 C   0  0  0  0  0  0  0  0  0  0  0  0
    0.6096   -0.3704    1.2548 C   0  0  0  0  0  0  0  0  0  0  0  0
   -0.8976   -0.4011    1.3981 C   0  0  0  0  0  0  0  0  0  0  0  0
   -5.4381    4.6491    2.7654 H   0  0  0  0  0  0  0  0  0  0  0  0
   -5.3280    2.9807    3.3459 H   0  0  0  0  0  0  0  0  0  0  0  0
   -5.5044    3.3545    1.5419 H   0  0  0  0  0  0  0  0  0  0  0  0
   -3.1740    4.8031    2.2574 H   0  0  0  0  0  0  0  0  0  0  0  0
   -3.0945    3.3277    3.2778 H   0  0  0  0  0  0  0  0  0  0  0  0
   -3.3942    3.4135    0.2510 H   0  0  0  0  0  0  0  0  0  0  0  0
   -1.9299    3.1129    1.1970 H   0  0  0  0  0  0  0  0  0  0  0  0
   -4.4806    1.4857    1.5195 H   0  0  0  0  0  0  0  0  0  0  0  0
   -2.9593    1.1300    2.3309 H   0  0  0  0  0  0  0  0  0  0  0  0
   -3.4804   -0.4271    0.5967 H   0  0  0  0  0  0  0  0  0  0  0  0
   -4.4455    1.4061   -1.0988 H   0  0  0  0  0  0  0  0  0  0  0  0
   -2.7731    1.3924   -1.6928 H   0  0  0  0  0  0  0  0  0  0  0  0
   -5.0980   -0.0308   -3.1041 H   0  0  0  0  0  0  0  0  0  0  0  0
   -4.3472   -1.6549   -3.2544 H   0  0  0  0  0  0  0  0  0  0  0  0
   -6.6721   -1.7705   -2.4940 H   0  0  0  0  0  0  0  0  0  0  0  0
   -5.8019   -0.4931    0.1170 H   0  0  0  0  0  0  0  0  0  0  0  0
   -6.6438    0.4733   -1.2276 H   0  0  0  0  0  0  0  0  0  0  0  0
   -8.1851   -0.4430    0.4420 H   0  0  0  0  0  0  0  0  0  0  0  0
   -8.4171   -1.4097   -1.1103 H   0  0  0  0  0  0  0  0  0  0  0  0
   -7.4749   -3.6039   -1.1298 H   0  0  0  0  0  0  0  0  0  0  0  0
   -6.4747   -4.0903    0.2858 H   0  0  0  0  0  0  0  0  0  0  0  0
   -4.8185   -2.3828   -0.1792 H   0  0  0  0  0  0  0  0  0  0  0  0
   -5.0617   -3.5441   -1.6086 H   0  0  0  0  0  0  0  0  0  0  0  0
   -1.1111    2.1363   -0.8180 H   0  0  0  0  0  0  0  0  0  0  0  0
   -0.1313    1.7640    0.7222 H   0  0  0  0  0  0  0  0  0  0  0  0
    1.1828    1.5341   -1.2136 H   0  0  0  0  0  0  0  0  0  0  0  0
    0.0564    0.1744   -1.8017 H   0  0  0  0  0  0  0  0  0  0  0  0
    1.3376   -1.3039   -2.3057 H   0  0  0  0  0  0  0  0  0  0  0  0
    3.0549   -1.9148   -2.1893 H   0  0  0  0  0  0  0  0  0  0  0  0
    1.7303   -2.6911   -1.2904 H   0  0  0  0  0  0  0  0  0  0  0  0
    2.9429   -1.1432    1.6561 H   0  0  0  0  0  0  0  0  0  0  0  0
    2.3020   -2.6387    0.7646 H   0  0  0  0  0  0  0  0  0  0  0  0
    4.4151   -2.9625   -0.2997 H   0  0  0  0  0  0  0  0  0  0  0  0
    4.7166   -2.5360    1.3982 H   0  0  0  0  0  0  0  0  0  0  0  0
    8.4382   -2.2074    0.1227 H   0  0  0  0  0  0  0  0  0  0  0  0
    9.9052   -1.6382   -0.7262 H   0  0  0  0  0  0  0  0  0  0  0  0
    8.3956   -1.7690   -1.6686 H   0  0  0  0  0  0  0  0  0  0  0  0
    9.8622    2.8802   -0.7398 H   0  0  0  0  0  0  0  0  0  0  0  0
    6.1023    2.7789    1.9878 H   0  0  0  0  0  0  0  0  0  0  0  0
    5.3309    1.1339    1.6532 H   0  0  0  0  0  0  0  0  0  0  0  0
    5.1958    2.4654    0.4386 H   0  0  0  0  0  0  0  0  0  0  0  0
    4.7541   -0.8343   -2.0899 H   0  0  0  0  0  0  0  0  0  0  0  0
    5.3400    0.6181   -1.2448 H   0  0  0  0  0  0  0  0  0  0  0  0
    3.3875    0.9626   -0.0104 H   0  0  0  0  0  0  0  0  0  0  0  0
    2.9179    0.6658   -1.7870 H   0  0  0  0  0  0  0  0  0  0  0  0
    1.0482    0.4135    1.9444 H   0  0  0  0  0  0  0  0  0  0  0  0
    0.9369   -1.3619    1.6653 H   0  0  0  0  0  0  0  0  0  0  0  0
   -1.1658    0.1397    2.3298 H   0  0  0  0  0  0  0  0  0  0  0  0
   -1.3067   -1.4204    1.5108 H   0  0  0  0  0  0  0  0  0  0  0  0
  1  2  1  0
  2  3  1  0
  3  4  1  0
  4  5  1  0
  5  6  1  0
  6  7  1  0
  7  8  1  0
  8  9  1  0
  9 10  1  0
 10 11  1  0
 11 12  1  0
 12 13  1  0
 13 14  1  0
  7 15  1  0
 15 16  2  0
 15 17  1  0
 17 18  1  0
 18 19  1  0
 19 20  1  0
 20 21  1  0
 21 22  1  0
 22 23  1  0
 22 24  1  0
 24 25  1  0
 25 26  1  0
 26 27  1  0
 27 28  2  0
 27 29  1  0
 29 30  2  0
 30 31  1  0
 30 32  1  0
 32 33  2  0
 33 34  1  0
 34 35  2  0
 35 36  1  0
 26 37  1  0
 37 38  1  0
 21 39  1  0
 39 40  1  0
 18  5  1  0
 38 22  1  0
 14  9  1  0
 40 18  1  0
 35 29  1  0
  1 41  1  0
  1 42  1  0
  1 43  1  0
  2 44  1  0
  2 45  1  0
  3 46  1  0
  3 47  1  0
  4 48  1  0
  4 49  1  0
  5 50  1  1
  6 51  1  0
  6 52  1  0
  8 53  1  0
  8 54  1  0
  9 55  1  0
 10 56  1  0
 10 57  1  0
 11 58  1  0
 11 59  1  0
 13 60  1  0
 13 61  1  0
 14 62  1  0
 14 63  1  0
 19 64  1  0
 19 65  1  0
 20 66  1  0
 20 67  1  0
 23 68  1  0
 23 69  1  0
 23 70  1  0
 24 71  1  0
 24 72  1  0
 25 73  1  0
 25 74  1  0
 31 75  1  0
 31 76  1  0
 31 77  1  0
 33 78  1  0
 36 79  1  0
 36 80  1  0
 36 81  1  0
 37 82  1  0
 37 83  1  0
 38 84  1  0
 38 85  1  0
 39 86  1  0
 39 87  1  0
 40 88  1  0
 40 89  1  0
M  END
$$$$
