@<TRIPOS>MOLECULE
*****
 89 93 0 0 0
SMALL
GASTEIGER

@<TRIPOS>ATOM
      1 C          -5.0331    3.6533    2.4926 C.3     1  UNL1       -0.0653
      2 C          -3.5328    3.7847    2.3703 C.3     1  UNL1       -0.0559
      3 C          -3.0205    2.9584    1.1745 C.3     1  UNL1       -0.0529
      4 C          -3.3557    1.5265    1.3481 C.3     1  UNL1       -0.0451
      5 C          -2.9635    0.5709    0.3077 C.3     1  UNL1        0.0150
      6 C          -3.5211    0.8367   -1.0778 C.3     1  UNL1        0.0243
      7 N          -3.6145   -0.4778   -1.7294 N.am    1  UNL1       -0.2668
      8 C          -4.7161   -0.8788   -2.5345 C.3     1  UNL1        0.0208
      9 C          -5.8652   -1.5003   -1.7924 C.3     1  UNL1       -0.0210
     10 C          -6.4603   -0.5202   -0.7739 C.3     1  UNL1       -0.0251
     11 C          -7.7434   -1.1631   -0.2838 C.3     1  UNL1        0.0480
     12 O          -7.3471   -2.2920    0.4620 O.3     1  UNL1       -0.3797
     13 C          -6.7569   -3.2476   -0.3613 C.3     1  UNL1        0.0480
     14 C          -5.4781   -2.7227   -1.0144 C.3     1  UNL1       -0.0251
     15 C          -2.5156   -1.3347   -1.4736 C.2     1  UNL1        0.4034
     16 O          -2.5269   -2.5489   -1.8033 O.2     1  UNL1       -0.2262
     17 O          -1.4055   -0.8030   -0.8418 O.3     1  UNL1       -0.4433
     18 C          -1.5355    0.2145    0.1791 C.3     1  UNL1        0.1217
     19 C          -0.6497    1.3718   -0.2085 C.3     1  UNL1        0.0004
     20 C           0.5336    0.6837   -0.9419 C.3     1  UNL1        0.0030
     21 N           1.0950   -0.2621   -0.0608 N.3     1  UNL1       -0.2966
     22 C           2.3287   -0.8514   -0.3962 C.3     1  UNL1        0.0220
     23 C           2.1228   -1.7050   -1.6411 C.3     1  UNL1       -0.0465
     24 C           2.9034   -1.7024    0.6833 C.3     1  UNL1       -0.0188
     25 C           4.3260   -2.1287    0.4266 C.3     1  UNL1        0.0166
     26 N           5.1705   -1.0454   -0.0165 N.am    1  UNL1       -0.2973
     27 C           6.3947   -0.7941    0.6412 C.2     1  UNL1        0.2501
     28 O           6.7567   -1.5207    1.6260 O.2     1  UNL1       -0.2699
     29 C           7.3267    0.2691    0.2792 C.ar    1  UNL1        0.0788
     30 C           8.5123   -0.0971   -0.3692 C.ar    1  UNL1        0.0538
     31 C           8.7941   -1.5265   -0.6674 C.3     1  UNL1       -0.0215
     32 N           9.3697    0.8636   -0.7062 N.ar    1  UNL1       -0.2398
     33 C           9.1269    2.1577   -0.4422 C.ar    1  UNL1        0.1165
     34 N           7.9897    2.5217    0.1819 N.ar    1  UNL1       -0.2398
     35 C           7.0975    1.5930    0.5399 C.ar    1  UNL1        0.0538
     36 C           5.8617    2.0022    1.2264 C.3     1  UNL1       -0.0215
     37 C           4.6754   -0.2778   -1.1359 C.3     1  UNL1        0.0166
     38 C           3.3029    0.2394   -0.8347 C.3     1  UNL1       -0.0188
     39 C           0.6096   -0.3704    1.2548 C.3     1  UNL1        0.0030
     40 C          -0.8976   -0.4011    1.3981 C.3     1  UNL1        0.0004
     41 H          -5.4381    4.6491    2.7654 H       1  UNL1        0.0230
     42 H          -5.3280    2.9807    3.3459 H       1  UNL1        0.0230
     43 H          -5.5044    3.3545    1.5419 H       1  UNL1        0.0230
     44 H          -3.1740    4.8031    2.2574 H       1  UNL1        0.0263
     45 H          -3.0945    3.3277    3.2778 H       1  UNL1        0.0263
     46 H          -3.3942    3.4135    0.2510 H       1  UNL1        0.0265
     47 H          -1.9299    3.1129    1.1970 H       1  UNL1        0.0265
     48 H          -4.4806    1.4857    1.5195 H       1  UNL1        0.0270
     49 H          -2.9593    1.1300    2.3309 H       1  UNL1        0.0270
     50 H          -3.4804   -0.4271    0.5967 H       1  UNL1        0.0355
     51 H          -4.4455    1.4061   -1.0988 H       1  UNL1        0.0469
     52 H          -2.7731    1.3924   -1.6928 H       1  UNL1        0.0469
     53 H          -5.0980   -0.0308   -3.1041 H       1  UNL1        0.0468
     54 H          -4.3472   -1.6549   -3.2544 H       1  UNL1        0.0468
     55 H          -6.6721   -1.7705   -2.4940 H       1  UNL1        0.0317
     56 H          -5.8019   -0.4931    0.1170 H       1  UNL1        0.0290
     57 H          -6.6438    0.4733   -1.2276 H       1  UNL1        0.0290
     58 H          -8.1851   -0.4430    0.4420 H       1  UNL1        0.0560
     59 H          -8.4171   -1.4097   -1.1103 H       1  UNL1        0.0560
     60 H          -7.4749   -3.6039   -1.1298 H       1  UNL1        0.0560
     61 H          -6.4747   -4.0903    0.2858 H       1  UNL1        0.0560
     62 H          -4.8185   -2.3828   -0.1792 H       1  UNL1        0.0290
     63 H          -5.0617   -3.5441   -1.6086 H       1  UNL1        0.0290
     64 H          -1.1111    2.1363   -0.8180 H       1  UNL1        0.0316
     65 H          -0.1313    1.7640    0.7222 H       1  UNL1        0.0316
     66 H           1.1828    1.5341   -1.2136 H       1  UNL1        0.0428
     67 H           0.0564    0.1744   -1.8017 H       1  UNL1        0.0428
     68 H           1.3376   -1.3039   -2.3057 H       1  UNL1        0.0247
     69 H           3.0549   -1.9148   -2.1893 H       1  UNL1        0.0247
     70 H           1.7303   -2.6911   -1.2904 H       1  UNL1        0.0247
     71 H           2.9429   -1.1432    1.6561 H       1  UNL1        0.0298
     72 H           2.3020   -2.6387    0.7646 H       1  UNL1        0.0298
     73 H           4.4151   -2.9625   -0.2997 H       1  UNL1        0.0465
     74 H           4.7166   -2.5360    1.3982 H       1  UNL1        0.0465
     75 H           8.4382   -2.2074    0.1227 H       1  UNL1        0.0293
     76 H           9.9052   -1.6382   -0.7262 H       1  UNL1        0.0293
     77 H           8.3956   -1.7690   -1.6686 H       1  UNL1        0.0293
     78 H           9.8622    2.8802   -0.7398 H       1  UNL1        0.1047
     79 H           6.1023    2.7789    1.9878 H       1  UNL1        0.0293
     80 H           5.3309    1.1339    1.6532 H       1  UNL1        0.0293
     81 H           5.1958    2.4654    0.4386 H       1  UNL1        0.0293
     82 H           4.7541   -0.8343   -2.0899 H       1  UNL1        0.0465
     83 H           5.3400    0.6181   -1.2448 H       1  UNL1        0.0465
     84 H           3.3875    0.9626   -0.0104 H       1  UNL1        0.0298
     85 H           2.9179    0.6658   -1.7870 H       1  UNL1        0.0298
     86 H           1.0482    0.4135    1.9444 H       1  UNL1        0.0428
     87 H           0.9369   -1.3619    1.6653 H       1  UNL1        0.0428
     88 H          -1.1658    0.1397    2.3298 H       1  UNL1        0.0316
     89 H          -1.3067   -1.4204    1.5108 H       1  UNL1        0.0316
@<TRIPOS>BOND
     1     1     2    1
     2     2     3    1
     3     3     4    1
     4     4     5    1
     5     5     6    1
     6     6     7    1
     7     7     8    1
     8     8     9    1
     9     9    10    1
    10    10    11    1
    11    11    12    1
    12    12    13    1
    13    13    14    1
    14     7    15   am
    15    15    16    2
    16    15    17    1
    17    17    18    1
    18    18    19    1
    19    19    20    1
    20    20    21    1
    21    21    22    1
    22    22    23    1
    23    22    24    1
    24    24    25    1
    25    25    26    1
    26    26    27   am
    27    27    28    2
    28    27    29    1
    29    29    30   ar
    30    30    31    1
    31    30    32   ar
    32    32    33   ar
    33    33    34   ar
    34    34    35   ar
    35    35    36    1
    36    26    37    1
    37    37    38    1
    38    21    39    1
    39    39    40    1
    40    18     5    1
    41    38    22    1
    42    14     9    1
    43    40    18    1
    44    35    29   ar
    45     1    41    1
    46     1    42    1
    47     1    43    1
    48     2    44    1
    49     2    45    1
    50     3    46    1
    51     3    47    1
    52     4    48    1
    53     4    49    1
    54     5    50    1
    55     6    51    1
    56     6    52    1
    57     8    53    1
    58     8    54    1
    59     9    55    1
    60    10    56    1
    61    10    57    1
    62    11    58    1
    63    11    59    1
    64    13    60    1
    65    13    61    1
    66    14    62    1
    67    14    63    1
    68    19    64    1
    69    19    65    1
    70    20    66    1
    71    20    67    1
    72    23    68    1
    73    23    69    1
    74    23    70    1
    75    24    71    1
    76    24    72    1
    77    25    73    1
    78    25    74    1
    79    31    75    1
    80    31    76    1
    81    31    77    1
    82    33    78    1
    83    36    79    1
    84    36    80    1
    85    36    81    1
    86    37    82    1
    87    37    83    1
    88    38    84    1
    89    38    85    1
    90    39    86    1
    91    39    87    1
    92    40    88    1
    93    40    89    1
