@<TRIPOS>MOLECULE
*****
 32 34 0 0 0
SMALL
GASTEIGER

@<TRIPOS>ATOM
      1 O           5.9655    2.7672    0.5829 O.3     1  UNL1       -0.4771
      2 C           5.6439    1.4870    0.1903 C.2     1  UNL1        0.3368
      3 O           6.6943    0.8611   -0.1769 O.2     1  UNL1       -0.2451
      4 C           4.3128    0.8877    0.1784 C.ar    1  UNL1        0.0589
      5 C           3.1678    1.5237    0.5603 C.ar    1  UNL1       -0.0471
      6 C           1.9193    0.8944    0.5289 C.ar    1  UNL1       -0.0503
      7 C           1.8085   -0.4119    0.1023 C.ar    1  UNL1        0.0173
      8 C           2.9874   -1.0064   -0.2709 C.ar    1  UNL1       -0.0503
      9 C           4.2363   -0.4196   -0.2538 C.ar    1  UNL1       -0.0471
     10 C           0.5251   -1.1103    0.0553 C.ar    1  UNL1        0.1357
     11 C           0.4136   -2.4289   -0.3699 C.ar    1  UNL1       -0.0153
     12 C          -0.9303   -2.6974   -0.2629 C.ar    1  UNL1       -0.0158
     13 C          -1.5777   -1.5498    0.2156 C.ar    1  UNL1        0.1298
     14 O          -0.6428   -0.6554    0.3782 O.2     1  UNL1       -0.4554
     15 C          -3.0172   -1.5910    0.4128 C.2     1  UNL1       -0.0005
     16 C          -3.8128   -0.5734    0.1505 C.2     1  UNL1        0.0808
     17 S          -3.2868    1.0366   -0.4913 S.3     1  UNL1       -0.0494
     18 C          -4.8763    1.8451   -0.2468 C.2     1  UNL1        0.1579
     19 N          -5.1269    3.0991   -0.3482 N.2     1  UNL1       -0.2793
     20 N          -5.7848    0.8047    0.0833 N.am    1  UNL1       -0.2607
     21 C          -5.2621   -0.4754    0.2984 C.2     1  UNL1        0.2565
     22 O          -5.9494   -1.4870    0.5968 O.2     1  UNL1       -0.2692
     23 H           6.8069    2.9693    1.1075 H       1  UNL1        0.2954
     24 H           3.2737    2.5518    0.8934 H       1  UNL1        0.0626
     25 H           1.0406    1.4529    0.8462 H       1  UNL1        0.0625
     26 H           2.9368   -2.0446   -0.6161 H       1  UNL1        0.0625
     27 H           5.1219   -0.9669   -0.5685 H       1  UNL1        0.0626
     28 H           1.1881   -3.1193   -0.7166 H       1  UNL1        0.0656
     29 H          -1.3413   -3.6622   -0.5241 H       1  UNL1        0.0655
     30 H          -3.5087   -2.4939    0.7977 H       1  UNL1        0.0667
     31 H          -6.1026    3.4836   -0.1839 H       1  UNL1        0.1886
     32 H          -6.8228    1.0292    0.1548 H       1  UNL1        0.1571
@<TRIPOS>BOND
     1     1     2    1
     2     2     3    2
     3     2     4    1
     4     4     5   ar
     5     5     6   ar
     6     6     7   ar
     7     7     8   ar
     8     8     9   ar
     9     7    10    1
    10    10    11   ar
    11    11    12   ar
    12    12    13   ar
    13    13    14   ar
    14    13    15    1
    15    15    16    2
    16    16    17    1
    17    17    18    1
    18    18    19    2
    19    18    20    1
    20    20    21   am
    21    21    22    2
    22     9     4   ar
    23    14    10   ar
    24    21    16    1
    25     1    23    1
    26     5    24    1
    27     6    25    1
    28     8    26    1
    29     9    27    1
    30    11    28    1
    31    12    29    1
    32    15    30    1
    33    19    31    1
    34    20    32    1
