
     RDKit          3D

 52 54  0  0  0  0  0  0  0  0999 V2000
   -1.3983   -4.2365   -1.5392 C   0  0  0  0  0  0  0  0  0  0  0  0
   -1.4286   -2.8697   -1.1765 O   0  0  0  0  0  0  0  0  0  0  0  0
   -0.2341   -2.2618   -0.7767 C   0  0  0  0  0  0  0  0  0  0  0  0
    0.9334   -2.8896   -0.7157 N   0  0  0  0  0  0  0  0  0  0  0  0
    2.0864   -2.3204   -0.3346 C   0  0  0  0  0  0  0  0  0  0  0  0
    2.1201   -0.9931    0.0301 C   0  0  0  0  0  0  0  0  0  0  0  0
    3.3216   -0.3334    0.4451 N   0  0  0  0  0  0  0  0  0  0  0  0
    4.1726    0.3191   -0.4842 C   0  0  0  0  0  0  0  0  0  0  0  0
    3.8458    0.3062   -1.6971 O   0  0  0  0  0  0  0  0  0  0  0  0
    5.3967    0.9970   -0.0995 C   0  0  0  0  0  0  0  0  0  0  0  0
    6.2293    1.6293   -0.9662 C   0  0  0  0  0  0  0  0  0  0  0  0
    7.3683    2.2417   -0.4875 C   0  0  0  0  0  0  0  0  0  0  0  0
    7.6593    2.2117    0.8644 C   0  0  0  0  0  0  0  0  0  0  0  0
    9.0898    2.9767    1.4939 Cl  0  0  0  0  0  0  0  0  0  0  0  0
    6.8010    1.5645    1.7280 C   0  0  0  0  0  0  0  0  0  0  0  0
    5.7110    0.9856    1.2220 N   0  0  0  0  0  0  0  0  0  0  0  0
    0.9063   -0.3004   -0.0227 C   0  0  0  0  0  0  0  0  0  0  0  0
   -0.2594   -0.9112   -0.4173 C   0  0  0  0  0  0  0  0  0  0  0  0
   -1.5535   -0.1660   -0.4794 C   0  0  2  0  0  0  0  0  0  0  0  0
   -1.9599   -0.1459   -1.9189 C   0  0  0  0  0  0  0  0  0  0  0  0
   -1.2903    1.2548   -0.0155 C   0  0  0  0  0  0  0  0  0  0  0  0
   -2.8655    2.0414    0.1518 S   0  0  0  0  0  6  0  0  0  0  0  0
   -3.1532    2.9511   -1.0124 O   0  0  0  0  0  0  0  0  0  0  0  0
   -2.8912    2.9437    1.3772 O   0  0  0  0  0  0  0  0  0  0  0  0
   -4.1247    0.8525    0.3505 C   0  0  0  0  0  0  0  0  0  0  0  0
   -5.1336    1.2842    1.4109 C   0  0  0  0  0  0  0  0  0  0  0  0
   -4.9024    0.5992   -0.9257 C   0  0  0  0  0  0  0  0  0  0  0  0
   -3.5967   -0.4518    0.8109 C   0  0  0  0  0  0  0  0  0  0  0  0
   -4.3776   -1.2760    1.7145 N   0  0  0  0  0  0  0  0  0  0  0  0
   -2.4555   -0.8386    0.4044 N   0  0  0  0  0  0  0  0  0  0  0  0
   -0.3589   -4.6121   -1.6447 H   0  0  0  0  0  0  0  0  0  0  0  0
   -1.9711   -4.8631   -0.8238 H   0  0  0  0  0  0  0  0  0  0  0  0
   -1.8795   -4.4053   -2.5366 H   0  0  0  0  0  0  0  0  0  0  0  0
    3.0267   -2.8639   -0.2956 H   0  0  0  0  0  0  0  0  0  0  0  0
    3.6129   -0.3095    1.4446 H   0  0  0  0  0  0  0  0  0  0  0  0
    5.9651    1.6315   -2.0284 H   0  0  0  0  0  0  0  0  0  0  0  0
    8.0406    2.7520   -1.1852 H   0  0  0  0  0  0  0  0  0  0  0  0
    7.0415    1.5476    2.7928 H   0  0  0  0  0  0  0  0  0  0  0  0
    0.9549    0.7408    0.2631 H   0  0  0  0  0  0  0  0  0  0  0  0
   -1.0636   -0.3056   -2.5894 H   0  0  0  0  0  0  0  0  0  0  0  0
   -2.3395    0.8605   -2.2538 H   0  0  0  0  0  0  0  0  0  0  0  0
   -2.7063   -0.8829   -2.2113 H   0  0  0  0  0  0  0  0  0  0  0  0
   -0.8214    1.2674    0.9986 H   0  0  0  0  0  0  0  0  0  0  0  0
   -0.6915    1.7562   -0.7929 H   0  0  0  0  0  0  0  0  0  0  0  0
   -5.8771    1.9835    1.0314 H   0  0  0  0  0  0  0  0  0  0  0  0
   -5.6826    0.3550    1.7038 H   0  0  0  0  0  0  0  0  0  0  0  0
   -4.5700    1.6155    2.2879 H   0  0  0  0  0  0  0  0  0  0  0  0
   -5.9695    0.7864   -0.7166 H   0  0  0  0  0  0  0  0  0  0  0  0
   -4.8484   -0.4639   -1.2511 H   0  0  0  0  0  0  0  0  0  0  0  0
   -4.6135    1.3241   -1.7054 H   0  0  0  0  0  0  0  0  0  0  0  0
   -4.9335   -2.0466    1.3742 H   0  0  0  0  0  0  0  0  0  0  0  0
   -4.3325   -1.0317    2.7138 H   0  0  0  0  0  0  0  0  0  0  0  0
  1  2  1  0
  2  3  1  0
  3  4  2  0
  4  5  1  0
  5  6  2  0
  6  7  1  0
  7  8  1  0
  8  9  2  0
  8 10  1  0
 10 11  2  0
 11 12  1  0
 12 13  2  0
 13 14  1  0
 13 15  1  0
 15 16  2  0
  6 17  1  0
 17 18  2  0
 18 19  1  0
 19 20  1  6
 19 21  1  0
 21 22  1  0
 22 23  2  0
 22 24  2  0
 22 25  1  0
 25 26  1  0
 25 27  1  0
 25 28  1  0
 28 29  1  0
 28 30  2  0
 18  3  1  0
 30 19  1  0
 16 10  1  0
  1 31  1  0
  1 32  1  0
  1 33  1  0
  5 34  1  0
  7 35  1  0
 11 36  1  0
 12 37  1  0
 15 38  1  0
 17 39  1  0
 20 40  1  0
 20 41  1  0
 20 42  1  0
 21 43  1  0
 21 44  1  0
 26 45  1  0
 26 46  1  0
 26 47  1  0
 27 48  1  0
 27 49  1  0
 27 50  1  0
 29 51  1  0
 29 52  1  0
M  END
$$$$
