@<TRIPOS>MOLECULE
*****
 52 54 0 0 0
SMALL
GASTEIGER

@<TRIPOS>ATOM
      1 C          -1.3983   -4.2365   -1.5392 C.3     1  UNL1        0.0804
      2 O          -1.4286   -2.8697   -1.1765 O.3     1  UNL1       -0.4794
      3 C          -0.2341   -2.2618   -0.7767 C.ar    1  UNL1        0.2224
      4 N           0.9334   -2.8896   -0.7157 N.ar    1  UNL1       -0.2191
      5 C           2.0864   -2.3204   -0.3346 C.ar    1  UNL1        0.0526
      6 C           2.1201   -0.9931    0.0301 C.ar    1  UNL1        0.0526
      7 N           3.3216   -0.3334    0.4451 N.am    1  UNL1       -0.2789
      8 C           4.1726    0.3191   -0.4842 C.2     1  UNL1        0.2666
      9 O           3.8458    0.3062   -1.6971 O.2     1  UNL1       -0.2682
     10 C           5.3967    0.9970   -0.0995 C.ar    1  UNL1        0.1257
     11 C           6.2293    1.6293   -0.9662 C.ar    1  UNL1       -0.0298
     12 C           7.3683    2.2417   -0.4875 C.ar    1  UNL1       -0.0397
     13 C           7.6593    2.2117    0.8644 C.ar    1  UNL1        0.0591
     14 CL          9.0898    2.9767    1.4939 Cl      1  UNL1       -0.0820
     15 C           6.8010    1.5645    1.7280 C.ar    1  UNL1        0.0467
     16 N           5.7110    0.9856    1.2220 N.ar    1  UNL1       -0.2489
     17 C           0.9063   -0.3004   -0.0227 C.ar    1  UNL1       -0.0262
     18 C          -0.2594   -0.9112   -0.4173 C.ar    1  UNL1        0.0683
     19 C          -1.5535   -0.1660   -0.4794 C.3     1  UNL1        0.1981
     20 C          -1.9599   -0.1459   -1.9189 C.3     1  UNL1       -0.0111
     21 C          -1.2903    1.2548   -0.0155 C.3     1  UNL1        0.1184
     22 S          -2.8655    2.0414    0.1518 S.O2    1  UNL1       -0.0101
     23 O          -3.1532    2.9511   -1.0124 O.2     1  UNL1       -0.1731
     24 O          -2.8912    2.9437    1.3772 O.2     1  UNL1       -0.1731
     25 C          -4.1247    0.8525    0.3505 C.3     1  UNL1        0.1831
     26 C          -5.1336    1.2842    1.4109 C.3     1  UNL1       -0.0288
     27 C          -4.9024    0.5992   -0.9257 C.3     1  UNL1       -0.0288
     28 C          -3.5967   -0.4518    0.8109 C.2     1  UNL1        0.3067
     29 N          -4.3776   -1.2760    1.7145 N.pl3   1  UNL1       -0.2488
     30 N          -2.4555   -0.8386    0.4044 N.2     1  UNL1       -0.0726
     31 H          -0.3589   -4.6121   -1.6447 H       1  UNL1        0.0660
     32 H          -1.9711   -4.8631   -0.8238 H       1  UNL1        0.0660
     33 H          -1.8795   -4.4053   -2.5366 H       1  UNL1        0.0660
     34 H           3.0267   -2.8639   -0.2956 H       1  UNL1        0.0850
     35 H           3.6129   -0.3095    1.4446 H       1  UNL1        0.1552
     36 H           5.9651    1.6315   -2.0284 H       1  UNL1        0.0641
     37 H           8.0406    2.7520   -1.1852 H       1  UNL1        0.0633
     38 H           7.0415    1.5476    2.7928 H       1  UNL1        0.0844
     39 H           0.9549    0.7408    0.2631 H       1  UNL1        0.0642
     40 H          -1.0636   -0.3056   -2.5894 H       1  UNL1        0.0279
     41 H          -2.3395    0.8605   -2.2538 H       1  UNL1        0.0279
     42 H          -2.7063   -0.8829   -2.2113 H       1  UNL1        0.0279
     43 H          -0.8214    1.2674    0.9986 H       1  UNL1        0.0550
     44 H          -0.6915    1.7562   -0.7929 H       1  UNL1        0.0550
     45 H          -5.8771    1.9835    1.0314 H       1  UNL1        0.0256
     46 H          -5.6826    0.3550    1.7038 H       1  UNL1        0.0256
     47 H          -4.5700    1.6155    2.2879 H       1  UNL1        0.0256
     48 H          -5.9695    0.7864   -0.7166 H       1  UNL1        0.0256
     49 H          -4.8484   -0.4639   -1.2511 H       1  UNL1        0.0256
     50 H          -4.6135    1.3241   -1.7054 H       1  UNL1        0.0256
     51 H          -4.9335   -2.0466    1.3742 H       1  UNL1        0.2881
     52 H          -4.3325   -1.0317    2.7138 H       1  UNL1        0.2881
@<TRIPOS>BOND
     1     1     2    1
     2     2     3    1
     3     3     4   ar
     4     4     5   ar
     5     5     6   ar
     6     6     7    1
     7     7     8   am
     8     8     9    2
     9     8    10    1
    10    10    11   ar
    11    11    12   ar
    12    12    13   ar
    13    13    14    1
    14    13    15   ar
    15    15    16   ar
    16     6    17   ar
    17    17    18   ar
    18    18    19    1
    19    19    20    1
    20    19    21    1
    21    21    22    1
    22    22    23    2
    23    22    24    2
    24    22    25    1
    25    25    26    1
    26    25    27    1
    27    25    28    1
    28    28    29    1
    29    28    30    2
    30    18     3   ar
    31    30    19    1
    32    16    10   ar
    33     1    31    1
    34     1    32    1
    35     1    33    1
    36     5    34    1
    37     7    35    1
    38    11    36    1
    39    12    37    1
    40    15    38    1
    41    17    39    1
    42    20    40    1
    43    20    41    1
    44    20    42    1
    45    21    43    1
    46    21    44    1
    47    26    45    1
    48    26    46    1
    49    26    47    1
    50    27    48    1
    51    27    49    1
    52    27    50    1
    53    29    51    1
    54    29    52    1
