@<TRIPOS>MOLECULE
*****
 42 45 0 0 0
SMALL
GASTEIGER

@<TRIPOS>ATOM
      1 C          -6.2317   -2.3830   -0.7980 C.3     1  UNL1       -0.0228
      2 C          -4.9232   -1.6903   -0.6919 C.ar    1  UNL1        0.0349
      3 C          -3.9727   -1.7877    0.3097 C.ar    1  UNL1        0.0006
      4 C          -2.9024   -0.9686    0.0080 C.ar    1  UNL1        0.1459
      5 N          -1.7311   -0.8021    0.7943 N.pl3   1  UNL1       -0.2824
      6 C          -0.6763    0.0551    0.4409 C.ar    1  UNL1        0.1354
      7 N           0.3503   -0.3530   -0.3494 N.ar    1  UNL1       -0.2135
      8 C           1.3763    0.4381   -0.7022 C.ar    1  UNL1        0.1645
      9 C           2.4821   -0.0803   -1.5805 C.3     1  UNL1        0.1394
     10 O           2.8102    0.8336   -2.5720 O.3     1  UNL1       -0.3794
     11 C           3.6401   -0.5225   -0.7776 C.ar    1  UNL1       -0.0116
     12 C           4.5768    0.3789   -0.3091 C.ar    1  UNL1       -0.0530
     13 C           5.6618   -0.0308    0.4442 C.ar    1  UNL1       -0.0261
     14 C           5.8465   -1.3394    0.7519 C.ar    1  UNL1        0.1234
     15 F           6.8989   -1.8053    1.4933 F       1  UNL1       -0.2055
     16 C           4.9271   -2.2703    0.2989 C.ar    1  UNL1       -0.0261
     17 C           3.8401   -1.8463   -0.4579 C.ar    1  UNL1       -0.0530
     18 N           1.3803    1.7019   -0.2441 N.ar    1  UNL1       -0.2289
     19 C           0.3774    2.1640    0.5510 C.ar    1  UNL1        0.0764
     20 C           0.3694    3.4560    1.0290 C.ar    1  UNL1       -0.0356
     21 C          -0.6700    3.9010    1.8426 C.ar    1  UNL1       -0.0597
     22 C          -1.7092    3.0745    2.1906 C.ar    1  UNL1       -0.0610
     23 C          -1.7159    1.7607    1.7138 C.ar    1  UNL1       -0.0493
     24 C          -0.6740    1.3462    0.9099 C.ar    1  UNL1        0.0405
     25 N          -3.2270   -0.3985   -1.1599 N.ar    1  UNL1       -0.1584
     26 N          -4.4066   -0.8084   -1.5862 N.ar    1  UNL1       -0.2801
     27 H          -6.5929   -2.4995    0.2631 H       1  UNL1        0.0292
     28 H          -6.9350   -1.7392   -1.3370 H       1  UNL1        0.0292
     29 H          -6.1454   -3.4088   -1.1888 H       1  UNL1        0.0292
     30 H          -4.0987   -2.4172    1.1659 H       1  UNL1        0.0670
     31 H          -1.6378   -1.3425    1.6883 H       1  UNL1        0.1550
     32 H           2.0592   -0.9664   -2.1197 H       1  UNL1        0.0726
     33 H           1.9737    1.0749   -3.0403 H       1  UNL1        0.2108
     34 H           4.4882    1.4416   -0.5188 H       1  UNL1        0.0622
     35 H           6.3721    0.7011    0.7927 H       1  UNL1        0.0646
     36 H           5.0730   -3.3090    0.5429 H       1  UNL1        0.0646
     37 H           3.1024   -2.5718   -0.8243 H       1  UNL1        0.0622
     38 H           1.1914    4.1185    0.7577 H       1  UNL1        0.0639
     39 H          -0.6754    4.9278    2.2223 H       1  UNL1        0.0618
     40 H          -2.5321    3.3623    2.8116 H       1  UNL1        0.0618
     41 H          -2.5184    1.0743    1.9644 H       1  UNL1        0.0625
     42 H          -4.8216   -0.4694   -2.4807 H       1  UNL1        0.1886
@<TRIPOS>BOND
     1     1     2    1
     2     2     3   ar
     3     3     4   ar
     4     4     5    1
     5     5     6    1
     6     6     7   ar
     7     7     8   ar
     8     8     9    1
     9     9    10    1
    10     9    11    1
    11    11    12   ar
    12    12    13   ar
    13    13    14   ar
    14    14    15    1
    15    14    16   ar
    16    16    17   ar
    17     8    18   ar
    18    18    19   ar
    19    19    20   ar
    20    20    21   ar
    21    21    22   ar
    22    22    23   ar
    23    23    24   ar
    24     4    25   ar
    25    25    26   ar
    26    26     2   ar
    27    24     6   ar
    28    17    11   ar
    29    24    19   ar
    30     1    27    1
    31     1    28    1
    32     1    29    1
    33     3    30    1
    34     5    31    1
    35     9    32    1
    36    10    33    1
    37    12    34    1
    38    13    35    1
    39    16    36    1
    40    17    37    1
    41    20    38    1
    42    21    39    1
    43    22    40    1
    44    23    41    1
    45    26    42    1
