
     RDKit          3D

 40 43  0  0  0  0  0  0  0  0999 V2000
   -0.8771   -3.7982   -3.3689 N   0  0  0  0  0  0  0  0  0  0  0  0
   -1.4551   -3.3844   -2.4427 C   0  0  0  0  0  0  0  0  0  0  0  0
   -2.1405   -2.8778   -1.2981 C   0  0  0  0  0  0  0  0  0  0  0  0
   -3.2399   -3.4613   -0.7111 C   0  0  0  0  0  0  0  0  0  0  0  0
   -3.5877   -2.6935    0.3390 N   0  0  0  0  0  0  0  0  0  0  0  0
   -2.7196   -1.6744    0.3821 C   0  0  0  0  0  0  0  0  0  0  0  0
   -2.6179   -0.6018    1.2555 C   0  0  0  0  0  0  0  0  0  0  0  0
   -1.6254    0.3347    1.1011 C   0  0  0  0  0  0  0  0  0  0  0  0
   -0.7024    0.2639    0.0982 C   0  0  0  0  0  0  0  0  0  0  0  0
    0.3753    1.2159   -0.1275 C   0  0  0  0  0  0  0  0  0  0  0  0
    1.7207    0.9238    0.0147 C   0  0  0  0  0  0  0  0  0  0  0  0
    2.3090   -0.3431    0.4319 C   0  0  0  0  0  0  0  0  0  0  0  0
    2.1286   -0.8738    1.6925 C   0  0  0  0  0  0  0  0  0  0  0  0
    2.7120   -2.0946    2.0222 C   0  0  0  0  0  0  0  0  0  0  0  0
    3.4783   -2.8174    1.1339 C   0  0  0  0  0  0  0  0  0  0  0  0
    4.0262   -4.0009    1.4941 F   0  0  0  0  0  0  0  0  0  0  0  0
    3.6557   -2.2854   -0.1208 C   0  0  0  0  0  0  0  0  0  0  0  0
    4.6235   -3.1839   -1.2702 Cl  0  0  0  0  0  0  0  0  0  0  0  0
    3.0840   -1.0799   -0.4577 C   0  0  0  0  0  0  0  0  0  0  0  0
    2.4136    2.0265   -0.3020 N   0  0  0  0  0  0  0  0  0  0  0  0
    1.5676    3.0105   -0.6403 C   0  0  0  0  0  0  0  0  0  0  0  0
    0.3194    2.4909   -0.5259 N   0  0  0  0  0  0  0  0  0  0  0  0
   -0.8438    3.3017   -0.8098 C   0  0  0  0  0  0  0  0  0  0  0  0
   -1.2307    4.0567    0.4366 C   0  0  0  0  0  0  0  0  0  0  0  0
   -2.3560    4.8510    0.2022 O   0  0  0  0  0  0  0  0  0  0  0  0
   -0.8431   -0.8404   -0.7644 C   0  0  0  0  0  0  0  0  0  0  0  0
   -1.8138   -1.7554   -0.6116 N   0  0  0  0  0  0  0  0  0  0  0  0
   -3.7740   -4.3609   -0.9832 H   0  0  0  0  0  0  0  0  0  0  0  0
   -3.3514   -0.5440    2.0546 H   0  0  0  0  0  0  0  0  0  0  0  0
   -1.5804    1.1421    1.8048 H   0  0  0  0  0  0  0  0  0  0  0  0
    1.5329   -0.3305    2.4114 H   0  0  0  0  0  0  0  0  0  0  0  0
    2.5814   -2.5316    3.0170 H   0  0  0  0  0  0  0  0  0  0  0  0
    3.2179   -0.6637   -1.4276 H   0  0  0  0  0  0  0  0  0  0  0  0
    1.8553    4.0163   -0.9419 H   0  0  0  0  0  0  0  0  0  0  0  0
   -1.6761    2.6778   -1.1959 H   0  0  0  0  0  0  0  0  0  0  0  0
   -0.6181    4.0436   -1.6089 H   0  0  0  0  0  0  0  0  0  0  0  0
   -1.3830    3.4157    1.2946 H   0  0  0  0  0  0  0  0  0  0  0  0
   -0.3529    4.7135    0.6980 H   0  0  0  0  0  0  0  0  0  0  0  0
   -2.6831    4.6499   -0.6967 H   0  0  0  0  0  0  0  0  0  0  0  0
   -0.1295   -0.9374   -1.5790 H   0  0  0  0  0  0  0  0  0  0  0  0
  1  2  3  0
  2  3  1  0
  3  4  2  0
  4  5  1  0
  5  6  2  0
  6  7  1  0
  7  8  2  0
  8  9  1  0
  9 10  1  0
 10 11  2  0
 11 12  1  0
 12 13  2  0
 13 14  1  0
 14 15  2  0
 15 16  1  0
 15 17  1  0
 17 18  1  0
 17 19  2  0
 11 20  1  0
 20 21  2  0
 21 22  1  0
 22 23  1  0
 23 24  1  0
 24 25  1  0
  9 26  2  0
 26 27  1  0
 27  3  1  0
 27  6  1  0
 22 10  1  0
 19 12  1  0
  4 28  1  0
  7 29  1  0
  8 30  1  0
 13 31  1  0
 14 32  1  0
 19 33  1  0
 21 34  1  0
 23 35  1  0
 23 36  1  0
 24 37  1  0
 24 38  1  0
 25 39  1  0
 26 40  1  0
M  END
$$$$
