@<TRIPOS>MOLECULE
*****
 40 43 0 0 0
SMALL
GASTEIGER

@<TRIPOS>ATOM
      1 N          -0.8771   -3.7982   -3.3689 N.1     1  UNL1       -0.1893
      2 C          -1.4551   -3.3844   -2.4427 C.1     1  UNL1        0.1192
      3 C          -2.1405   -2.8778   -1.2981 C.ar    1  UNL1        0.1438
      4 C          -3.2399   -3.4613   -0.7111 C.ar    1  UNL1        0.0643
      5 N          -3.5877   -2.6935    0.3390 N.ar    1  UNL1       -0.2348
      6 C          -2.7196   -1.6744    0.3821 C.ar    1  UNL1        0.1385
      7 C          -2.6179   -0.6018    1.2555 C.ar    1  UNL1       -0.0181
      8 C          -1.6254    0.3347    1.1011 C.ar    1  UNL1       -0.0477
      9 C          -0.7024    0.2639    0.0982 C.ar    1  UNL1        0.0173
     10 C           0.3753    1.2159   -0.1275 C.ar    1  UNL1        0.0779
     11 C           1.7207    0.9238    0.0147 C.ar    1  UNL1        0.0968
     12 C           2.3090   -0.3431    0.4319 C.ar    1  UNL1        0.0040
     13 C           2.1286   -0.8738    1.6925 C.ar    1  UNL1       -0.0497
     14 C           2.7120   -2.0946    2.0222 C.ar    1  UNL1       -0.0244
     15 C           3.4783   -2.8174    1.1339 C.ar    1  UNL1        0.1417
     16 F           4.0262   -4.0009    1.4941 F       1  UNL1       -0.2040
     17 C           3.6557   -2.2854   -0.1208 C.ar    1  UNL1        0.0767
     18 CL          4.6235   -3.1839   -1.2702 Cl      1  UNL1       -0.0806
     19 C           3.0840   -1.0799   -0.4577 C.ar    1  UNL1       -0.0313
     20 N           2.4136    2.0265   -0.3020 N.ar    1  UNL1       -0.2351
     21 C           1.5676    3.0105   -0.6403 C.ar    1  UNL1        0.0971
     22 N           0.3194    2.4909   -0.5259 N.ar    1  UNL1       -0.3274
     23 C          -0.8438    3.3017   -0.8098 C.3     1  UNL1        0.0479
     24 C          -1.2307    4.0567    0.4366 C.3     1  UNL1        0.0622
     25 O          -2.3560    4.8510    0.2022 O.3     1  UNL1       -0.3933
     26 C          -0.8431   -0.8404   -0.7644 C.ar    1  UNL1        0.0216
     27 N          -1.8138   -1.7554   -0.6116 N.ar    1  UNL1       -0.2906
     28 H          -3.7740   -4.3609   -0.9832 H       1  UNL1        0.0859
     29 H          -3.3514   -0.5440    2.0546 H       1  UNL1        0.0654
     30 H          -1.5804    1.1421    1.8048 H       1  UNL1        0.0626
     31 H           1.5329   -0.3305    2.4114 H       1  UNL1        0.0625
     32 H           2.5814   -2.5316    3.0170 H       1  UNL1        0.0647
     33 H           3.2179   -0.6637   -1.4276 H       1  UNL1        0.0640
     34 H           1.8553    4.0163   -0.9419 H       1  UNL1        0.1029
     35 H          -1.6761    2.6778   -1.1959 H       1  UNL1        0.0515
     36 H          -0.6181    4.0436   -1.6089 H       1  UNL1        0.0515
     37 H          -1.3830    3.4157    1.2946 H       1  UNL1        0.0575
     38 H          -0.3529    4.7135    0.6980 H       1  UNL1        0.0575
     39 H          -2.6831    4.6499   -0.6967 H       1  UNL1        0.2095
     40 H          -0.1295   -0.9374   -1.5790 H       1  UNL1        0.0820
@<TRIPOS>BOND
     1     1     2    3
     2     2     3    1
     3     3     4   ar
     4     4     5   ar
     5     5     6   ar
     6     6     7   ar
     7     7     8   ar
     8     8     9   ar
     9     9    10    1
    10    10    11   ar
    11    11    12    1
    12    12    13   ar
    13    13    14   ar
    14    14    15   ar
    15    15    16    1
    16    15    17   ar
    17    17    18    1
    18    17    19   ar
    19    11    20   ar
    20    20    21   ar
    21    21    22   ar
    22    22    23    1
    23    23    24    1
    24    24    25    1
    25     9    26   ar
    26    26    27   ar
    27    27     3   ar
    28    27     6   ar
    29    22    10   ar
    30    19    12   ar
    31     4    28    1
    32     7    29    1
    33     8    30    1
    34    13    31    1
    35    14    32    1
    36    19    33    1
    37    21    34    1
    38    23    35    1
    39    23    36    1
    40    24    37    1
    41    24    38    1
    42    25    39    1
    43    26    40    1
