@<TRIPOS>MOLECULE
*****
 61 66 0 0 0
SMALL
GASTEIGER

@<TRIPOS>ATOM
      1 C          -1.0691   -1.7273   -1.5053 C.3     1  UNL1       -0.0334
      2 C          -0.6264   -0.4647   -0.7845 C.3     1  UNL1        0.1282
      3 C           0.7954   -0.5429   -0.3392 C.3     1  UNL1        0.0460
      4 N           1.7389    0.1501   -1.1855 N.am    1  UNL1       -0.2813
      5 C           3.0788   -0.2844   -1.3730 C.2     1  UNL1        0.3076
      6 O           3.8412    0.3704   -2.1296 O.2     1  UNL1       -0.2522
      7 N           3.6621   -1.4235   -0.7700 N.am    1  UNL1       -0.2539
      8 C           5.0008   -1.8337   -0.9750 C.ar    1  UNL1        0.1296
      9 C           5.3844   -2.7073   -1.9905 C.ar    1  UNL1       -0.0017
     10 C           6.7410   -2.8944   -1.9088 C.ar    1  UNL1        0.0517
     11 N           7.1652   -2.1612   -0.8813 N.ar    1  UNL1       -0.1731
     12 N           6.1253   -1.5239   -0.3188 N.ar    1  UNL1       -0.2183
     13 C           6.1849   -0.6650    0.7821 C.ar    1  UNL1        0.0674
     14 C           6.2713   -1.1594    2.0573 C.ar    1  UNL1       -0.0362
     15 C           6.3304   -0.2813    3.1543 C.ar    1  UNL1       -0.0598
     16 C           6.3015    1.0788    2.9481 C.ar    1  UNL1       -0.0616
     17 C           6.2154    1.5680    1.6770 C.ar    1  UNL1       -0.0598
     18 C           6.1590    0.6897    0.6228 C.ar    1  UNL1       -0.0362
     19 C           1.3121    1.3499   -1.8793 C.3     1  UNL1        0.0321
     20 C           0.0458    1.0172   -2.6400 C.3     1  UNL1        0.0331
     21 N          -0.9273    0.6525   -1.6412 N.am    1  UNL1       -0.2681
     22 C          -2.1849    1.2127   -1.3264 C.2     1  UNL1        0.3123
     23 O          -2.8396    2.0631   -2.0351 O.2     1  UNL1       -0.2520
     24 N          -2.5953    0.6644   -0.0821 N.am    1  UNL1       -0.2203
     25 C          -3.8216    0.9615    0.6148 C.3     1  UNL1        0.0426
     26 C          -4.3598    2.3452    0.4427 C.3     1  UNL1       -0.0246
     27 C          -5.0709    1.2063   -0.1521 C.3     1  UNL1        0.0050
     28 C          -6.3852    0.8047    0.4218 C.ar    1  UNL1       -0.0424
     29 C          -7.3934    0.2490   -0.3360 C.ar    1  UNL1       -0.0582
     30 C          -8.6166   -0.1206    0.2184 C.ar    1  UNL1       -0.0615
     31 C          -8.8540    0.0628    1.5599 C.ar    1  UNL1       -0.0617
     32 C          -7.8447    0.6205    2.3256 C.ar    1  UNL1       -0.0615
     33 C          -6.6229    0.9901    1.7739 C.ar    1  UNL1       -0.0582
     34 C          -1.5748   -0.2224    0.3366 C.2     1  UNL1        0.2483
     35 O          -1.5013   -0.7166    1.4840 O.2     1  UNL1       -0.2727
     36 H          -0.2330   -2.2439   -1.9905 H       1  UNL1        0.0256
     37 H          -1.5271   -2.4385   -0.7625 H       1  UNL1        0.0256
     38 H          -1.8266   -1.4780   -2.2488 H       1  UNL1        0.0256
     39 H           0.8471   -0.2036    0.7261 H       1  UNL1        0.0491
     40 H           1.0747   -1.6373   -0.3716 H       1  UNL1        0.0491
     41 H           3.0515   -1.9826   -0.1371 H       1  UNL1        0.1578
     42 H           4.7307   -3.1608   -2.7180 H       1  UNL1        0.0668
     43 H           7.3225   -3.5141   -2.5566 H       1  UNL1        0.0848
     44 H           6.2992   -2.2092    2.3040 H       1  UNL1        0.0639
     45 H           6.3982   -0.6391    4.1594 H       1  UNL1        0.0618
     46 H           6.3472    1.7821    3.8008 H       1  UNL1        0.0618
     47 H           6.1920    2.6415    1.5058 H       1  UNL1        0.0618
     48 H           6.0912    1.0944   -0.3729 H       1  UNL1        0.0639
     49 H           1.0431    2.1131   -1.1220 H       1  UNL1        0.0480
     50 H           2.0511    1.7100   -2.6041 H       1  UNL1        0.0480
     51 H          -0.2838    1.8543   -3.2857 H       1  UNL1        0.0481
     52 H           0.2420    0.0907   -3.2462 H       1  UNL1        0.0481
     53 H          -3.9670    0.4289    1.5833 H       1  UNL1        0.0512
     54 H          -4.8591    2.8470    1.3228 H       1  UNL1        0.0290
     55 H          -3.7776    3.0787   -0.1511 H       1  UNL1        0.0290
     56 H          -5.0025    1.0054   -1.2509 H       1  UNL1        0.0368
     57 H          -7.1931    0.1099   -1.3926 H       1  UNL1        0.0620
     58 H          -9.4044   -0.5575   -0.3869 H       1  UNL1        0.0618
     59 H          -9.7878   -0.2054    2.0506 H       1  UNL1        0.0618
     60 H          -8.0389    0.7643    3.3928 H       1  UNL1        0.0618
     61 H          -5.8550    1.4213    2.3897 H       1  UNL1        0.0620
@<TRIPOS>BOND
     1     2     1    1
     2     2     3    1
     3     3     4    1
     4     4     5   am
     5     5     6    2
     6     5     7   am
     7     7     8    1
     8     8     9   ar
     9     9    10   ar
    10    10    11   ar
    11    11    12   ar
    12    12    13    1
    13    13    14   ar
    14    14    15   ar
    15    15    16   ar
    16    16    17   ar
    17    17    18   ar
    18     4    19    1
    19    19    20    1
    20    20    21    1
    21    21    22   am
    22    22    23    2
    23    22    24   am
    24    24    25    1
    25    25    26    1
    26    26    27    1
    27    27    28    1
    28    28    29   ar
    29    29    30   ar
    30    30    31   ar
    31    31    32   ar
    32    32    33   ar
    33    24    34   am
    34    34    35    2
    35    21     2    1
    36    27    25    1
    37    33    28   ar
    38    34     2    1
    39    12     8   ar
    40    18    13   ar
    41     1    36    1
    42     1    37    1
    43     1    38    1
    44     3    39    1
    45     3    40    1
    46     7    41    1
    47     9    42    1
    48    10    43    1
    49    14    44    1
    50    15    45    1
    51    16    46    1
    52    17    47    1
    53    18    48    1
    54    19    49    1
    55    19    50    1
    56    20    51    1
    57    20    52    1
    58    25    53    1
    59    26    54    1
    60    26    55    1
    61    27    56    1
    62    29    57    1
    63    30    58    1
    64    31    59    1
    65    32    60    1
    66    33    61    1
