
     RDKit          3D

 61 66  0  0  0  0  0  0  0  0999 V2000
   -1.0691   -1.7273   -1.5053 C   0  0  0  0  0  0  0  0  0  0  0  0
   -0.6264   -0.4647   -0.7845 C   0  0  1  0  0  0  0  0  0  0  0  0
    0.7954   -0.5429   -0.3392 C   0  0  0  0  0  0  0  0  0  0  0  0
    1.7389    0.1501   -1.1855 N   0  0  0  0  0  0  0  0  0  0  0  0
    3.0788   -0.2844   -1.3730 C   0  0  0  0  0  0  0  0  0  0  0  0
    3.8412    0.3704   -2.1296 O   0  0  0  0  0  0  0  0  0  0  0  0
    3.6621   -1.4235   -0.7700 N   0  0  0  0  0  0  0  0  0  0  0  0
    5.0008   -1.8337   -0.9750 C   0  0  0  0  0  0  0  0  0  0  0  0
    5.3844   -2.7073   -1.9905 C   0  0  0  0  0  0  0  0  0  0  0  0
    6.7410   -2.8944   -1.9088 C   0  0  0  0  0  0  0  0  0  0  0  0
    7.1652   -2.1612   -0.8813 N   0  0  0  0  0  0  0  0  0  0  0  0
    6.1253   -1.5239   -0.3188 N   0  0  0  0  0  0  0  0  0  0  0  0
    6.1849   -0.6650    0.7821 C   0  0  0  0  0  0  0  0  0  0  0  0
    6.2713   -1.1594    2.0573 C   0  0  0  0  0  0  0  0  0  0  0  0
    6.3304   -0.2813    3.1543 C   0  0  0  0  0  0  0  0  0  0  0  0
    6.3015    1.0788    2.9481 C   0  0  0  0  0  0  0  0  0  0  0  0
    6.2154    1.5680    1.6770 C   0  0  0  0  0  0  0  0  0  0  0  0
    6.1590    0.6897    0.6228 C   0  0  0  0  0  0  0  0  0  0  0  0
    1.3121    1.3499   -1.8793 C   0  0  0  0  0  0  0  0  0  0  0  0
    0.0458    1.0172   -2.6400 C   0  0  0  0  0  0  0  0  0  0  0  0
   -0.9273    0.6525   -1.6412 N   0  0  0  0  0  0  0  0  0  0  0  0
   -2.1849    1.2127   -1.3264 C   0  0  0  0  0  0  0  0  0  0  0  0
   -2.8396    2.0631   -2.0351 O   0  0  0  0  0  0  0  0  0  0  0  0
   -2.5953    0.6644   -0.0821 N   0  0  0  0  0  0  0  0  0  0  0  0
   -3.8216    0.9615    0.6148 C   0  0  1  0  0  0  0  0  0  0  0  0
   -4.3598    2.3452    0.4427 C   0  0  0  0  0  0  0  0  0  0  0  0
   -5.0709    1.2063   -0.1521 C   0  0  2  0  0  0  0  0  0  0  0  0
   -6.3852    0.8047    0.4218 C   0  0  0  0  0  0  0  0  0  0  0  0
   -7.3934    0.2490   -0.3360 C   0  0  0  0  0  0  0  0  0  0  0  0
   -8.6166   -0.1206    0.2184 C   0  0  0  0  0  0  0  0  0  0  0  0
   -8.8540    0.0628    1.5599 C   0  0  0  0  0  0  0  0  0  0  0  0
   -7.8447    0.6205    2.3256 C   0  0  0  0  0  0  0  0  0  0  0  0
   -6.6229    0.9901    1.7739 C   0  0  0  0  0  0  0  0  0  0  0  0
   -1.5748   -0.2224    0.3366 C   0  0  0  0  0  0  0  0  0  0  0  0
   -1.5013   -0.7166    1.4840 O   0  0  0  0  0  0  0  0  0  0  0  0
   -0.2330   -2.2439   -1.9905 H   0  0  0  0  0  0  0  0  0  0  0  0
   -1.5271   -2.4385   -0.7625 H   0  0  0  0  0  0  0  0  0  0  0  0
   -1.8266   -1.4780   -2.2488 H   0  0  0  0  0  0  0  0  0  0  0  0
    0.8471   -0.2036    0.7261 H   0  0  0  0  0  0  0  0  0  0  0  0
    1.0747   -1.6373   -0.3716 H   0  0  0  0  0  0  0  0  0  0  0  0
    3.0515   -1.9826   -0.1371 H   0  0  0  0  0  0  0  0  0  0  0  0
    4.7307   -3.1608   -2.7180 H   0  0  0  0  0  0  0  0  0  0  0  0
    7.3225   -3.5141   -2.5566 H   0  0  0  0  0  0  0  0  0  0  0  0
    6.2992   -2.2092    2.3040 H   0  0  0  0  0  0  0  0  0  0  0  0
    6.3982   -0.6391    4.1594 H   0  0  0  0  0  0  0  0  0  0  0  0
    6.3472    1.7821    3.8008 H   0  0  0  0  0  0  0  0  0  0  0  0
    6.1920    2.6415    1.5058 H   0  0  0  0  0  0  0  0  0  0  0  0
    6.0912    1.0944   -0.3729 H   0  0  0  0  0  0  0  0  0  0  0  0
    1.0431    2.1131   -1.1220 H   0  0  0  0  0  0  0  0  0  0  0  0
    2.0511    1.7100   -2.6041 H   0  0  0  0  0  0  0  0  0  0  0  0
   -0.2838    1.8543   -3.2857 H   0  0  0  0  0  0  0  0  0  0  0  0
    0.2420    0.0907   -3.2462 H   0  0  0  0  0  0  0  0  0  0  0  0
   -3.9670    0.4289    1.5833 H   0  0  0  0  0  0  0  0  0  0  0  0
   -4.8591    2.8470    1.3228 H   0  0  0  0  0  0  0  0  0  0  0  0
   -3.7776    3.0787   -0.1511 H   0  0  0  0  0  0  0  0  0  0  0  0
   -5.0025    1.0054   -1.2509 H   0  0  0  0  0  0  0  0  0  0  0  0
   -7.1931    0.1099   -1.3926 H   0  0  0  0  0  0  0  0  0  0  0  0
   -9.4044   -0.5575   -0.3869 H   0  0  0  0  0  0  0  0  0  0  0  0
   -9.7878   -0.2054    2.0506 H   0  0  0  0  0  0  0  0  0  0  0  0
   -8.0389    0.7643    3.3928 H   0  0  0  0  0  0  0  0  0  0  0  0
   -5.8550    1.4213    2.3897 H   0  0  0  0  0  0  0  0  0  0  0  0
  2  1  1  6
  2  3  1  0
  3  4  1  0
  4  5  1  0
  5  6  2  0
  5  7  1  0
  7  8  1  0
  8  9  2  0
  9 10  1  0
 10 11  2  0
 11 12  1  0
 12 13  1  0
 13 14  2  0
 14 15  1  0
 15 16  2  0
 16 17  1  0
 17 18  2  0
  4 19  1  0
 19 20  1  0
 20 21  1  0
 21 22  1  0
 22 23  2  0
 22 24  1  0
 24 25  1  0
 25 26  1  0
 26 27  1  0
 27 28  1  0
 28 29  2  0
 29 30  1  0
 30 31  2  0
 31 32  1  0
 32 33  2  0
 24 34  1  0
 34 35  2  0
 21  2  1  0
 27 25  1  0
 33 28  1  0
 34  2  1  0
 12  8  1  0
 18 13  1  0
  1 36  1  0
  1 37  1  0
  1 38  1  0
  3 39  1  0
  3 40  1  0
  7 41  1  0
  9 42  1  0
 10 43  1  0
 14 44  1  0
 15 45  1  0
 16 46  1  0
 17 47  1  0
 18 48  1  0
 19 49  1  0
 19 50  1  0
 20 51  1  0
 20 52  1  0
 25 53  1  1
 26 54  1  0
 26 55  1  0
 27 56  1  6
 29 57  1  0
 30 58  1  0
 31 59  1  0
 32 60  1  0
 33 61  1  0
M  END
$$$$
