@<TRIPOS>MOLECULE
*****
 44 46 0 0 0
SMALL
GASTEIGER

@<TRIPOS>ATOM
      1 C           1.0041   -1.9434   -0.8963 C.3     1  UNL1        0.0116
      2 C           1.0417   -2.5904    0.4597 C.3     1  UNL1       -0.0359
      3 C           1.3086   -1.5247    1.4669 C.3     1  UNL1       -0.0351
      4 C           1.4418   -0.2719    0.5763 C.3     1  UNL1        0.0245
      5 C           0.0727    0.3312    0.5463 C.3     1  UNL1        0.0787
      6 C          -0.8740   -0.7055   -0.0205 C.3     1  UNL1       -0.0001
      7 C          -0.3439   -1.3826   -1.2610 C.3     1  UNL1       -0.0297
      8 C          -2.2615   -0.1887   -0.1958 C.ar    1  UNL1       -0.0432
      9 C          -3.1429   -0.5052    0.8319 C.ar    1  UNL1       -0.0556
     10 C          -4.4890   -0.1255    0.8596 C.ar    1  UNL1       -0.0262
     11 C          -4.9079    0.6079   -0.2306 C.ar    1  UNL1        0.1234
     12 F          -6.2274    0.9863   -0.2154 F       1  UNL1       -0.2055
     13 C          -4.0656    0.9491   -1.2818 C.ar    1  UNL1       -0.0262
     14 C          -2.7402    0.5455   -1.2563 C.ar    1  UNL1       -0.0556
     15 C           0.0149    1.6396   -0.0941 C.2     1  UNL1        0.3120
     16 O           0.9077    2.3363   -0.6654 O.2     1  UNL1       -0.2505
     17 O          -0.9717    2.5513   -0.3018 O.3     1  UNL1       -0.4677
     18 C          -0.8047    3.7892   -0.9627 C.3     1  UNL1        0.0817
     19 N           1.8640   -0.7678   -0.6888 N.3     1  UNL1       -0.2920
     20 C           3.2069   -1.2253   -0.7624 C.3     1  UNL1        0.0184
     21 C           4.2710   -0.2110   -0.6893 C.2     1  UNL1       -0.0641
     22 C           4.4943    1.0941   -0.5831 C.2     1  UNL1       -0.0258
     23 I           6.4364    1.9645   -0.5299 I       1  UNL1       -0.0526
     24 H           1.4039   -2.6407   -1.6414 H       1  UNL1        0.0463
     25 H           0.1664   -3.2363    0.6714 H       1  UNL1        0.0281
     26 H           1.9144   -3.3064    0.4786 H       1  UNL1        0.0281
     27 H           0.5311   -1.3920    2.2384 H       1  UNL1        0.0281
     28 H           2.2582   -1.6458    2.0211 H       1  UNL1        0.0281
     29 H           2.1804    0.4196    1.0108 H       1  UNL1        0.0471
     30 H          -0.2259    0.4367    1.6351 H       1  UNL1        0.0435
     31 H          -0.8993   -1.5117    0.7806 H       1  UNL1        0.0358
     32 H          -1.0796   -2.1124   -1.5934 H       1  UNL1        0.0286
     33 H          -0.1692   -0.5740   -2.0194 H       1  UNL1        0.0286
     34 H          -2.8393   -1.0890    1.7166 H       1  UNL1        0.0621
     35 H          -5.1342   -0.3978    1.6831 H       1  UNL1        0.0646
     36 H          -4.4359    1.5255   -2.1177 H       1  UNL1        0.0646
     37 H          -2.0466    0.7687   -2.0348 H       1  UNL1        0.0621
     38 H          -1.8087    4.2412   -1.2015 H       1  UNL1        0.0661
     39 H          -0.3174    4.4976   -0.2627 H       1  UNL1        0.0661
     40 H          -0.1753    3.7258   -1.8757 H       1  UNL1        0.0661
     41 H           3.4180   -2.0179    0.0269 H       1  UNL1        0.0470
     42 H           3.2770   -1.8310   -1.7167 H       1  UNL1        0.0470
     43 H           5.2401   -0.7626   -0.7525 H       1  UNL1        0.0589
     44 H           3.5065    1.5494   -0.5440 H       1  UNL1        0.0683
@<TRIPOS>BOND
     1     1     2    1
     2     2     3    1
     3     3     4    1
     4     4     5    1
     5     5     6    1
     6     6     7    1
     7     6     8    1
     8     8     9   ar
     9     9    10   ar
    10    10    11   ar
    11    11    12    1
    12    11    13   ar
    13    13    14   ar
    14     5    15    1
    15    15    16    2
    16    15    17    1
    17    17    18    1
    18     4    19    1
    19    19    20    1
    20    20    21    1
    21    21    22    2
    22    22    23    1
    23     7     1    1
    24    14     8   ar
    25    19     1    1
    26     1    24    1
    27     2    25    1
    28     2    26    1
    29     3    27    1
    30     3    28    1
    31     4    29    1
    32     5    30    1
    33     6    31    1
    34     7    32    1
    35     7    33    1
    36     9    34    1
    37    10    35    1
    38    13    36    1
    39    14    37    1
    40    18    38    1
    41    18    39    1
    42    18    40    1
    43    20    41    1
    44    20    42    1
    45    21    43    1
    46    22    44    1
