@<TRIPOS>MOLECULE
*****
 14 14 0 0 0
SMALL
GASTEIGER

@<TRIPOS>ATOM
      1 C          -0.9651    0.3360    0.1924 C.3     1  UNL1        0.0926
      2 N          -1.6597   -0.8534   -0.1864 N.3     1  UNL1       -0.3195
      3 C           0.2229    0.0366    1.0721 C.3     1  UNL1        0.0448
      4 C           1.3032   -0.1711    0.0473 C.2     1  UNL1        0.1810
      5 O           2.5041   -0.8603    0.1712 O.2     1  UNL1       -0.4970
      6 N           0.9562    0.4088   -1.0380 N.am    1  UNL1       -0.1486
      7 C          -0.3087    1.0480   -0.9294 C.2     1  UNL1        0.2562
      8 O          -0.7298    2.0053   -1.6532 O.2     1  UNL1       -0.2719
      9 H          -1.6536    0.9861    0.7631 H       1  UNL1        0.0560
     10 H          -2.4558   -0.6440   -0.7962 H       1  UNL1        0.1189
     11 H          -1.0583   -1.6516   -0.4692 H       1  UNL1        0.1189
     12 H           0.0910   -0.8762    1.6745 H       1  UNL1        0.0377
     13 H           0.5009    0.9225    1.6659 H       1  UNL1        0.0377
     14 H           3.2527   -0.6867   -0.5139 H       1  UNL1        0.2932
@<TRIPOS>BOND
     1     1     2    1
     2     1     3    1
     3     3     4    1
     4     4     5    1
     5     4     6    2
     6     6     7    1
     7     7     8    2
     8     7     1    1
     9     1     9    1
    10     2    10    1
    11     2    11    1
    12     3    12    1
    13     3    13    1
    14     5    14    1
