
     RDKit          3D

 14 14  0  0  0  0  0  0  0  0999 V2000
   -0.9651    0.3360    0.1924 C   0  0  1  0  0  0  0  0  0  0  0  0
   -1.6597   -0.8534   -0.1864 N   0  0  0  0  0  0  0  0  0  0  0  0
    0.2229    0.0366    1.0721 C   0  0  0  0  0  0  0  0  0  0  0  0
    1.3032   -0.1711    0.0473 C   0  0  0  0  0  0  0  0  0  0  0  0
    2.5041   -0.8603    0.1712 O   0  0  0  0  0  0  0  0  0  0  0  0
    0.9562    0.4088   -1.0380 N   0  0  0  0  0  0  0  0  0  0  0  0
   -0.3087    1.0480   -0.9294 C   0  0  0  0  0  0  0  0  0  0  0  0
   -0.7298    2.0053   -1.6532 O   0  0  0  0  0  0  0  0  0  0  0  0
   -1.6536    0.9861    0.7631 H   0  0  0  0  0  0  0  0  0  0  0  0
   -2.4558   -0.6440   -0.7962 H   0  0  0  0  0  0  0  0  0  0  0  0
   -1.0583   -1.6516   -0.4692 H   0  0  0  0  0  0  0  0  0  0  0  0
    0.0910   -0.8762    1.6745 H   0  0  0  0  0  0  0  0  0  0  0  0
    0.5009    0.9225    1.6659 H   0  0  0  0  0  0  0  0  0  0  0  0
    3.2527   -0.6867   -0.5139 H   0  0  0  0  0  0  0  0  0  0  0  0
  1  2  1  0
  1  3  1  0
  3  4  1  0
  4  5  1  0
  4  6  2  0
  6  7  1  0
  7  8  2  0
  7  1  1  0
  1  9  1  1
  2 10  1  0
  2 11  1  0
  3 12  1  0
  3 13  1  0
  5 14  1  0
M  END
$$$$
