@<TRIPOS>MOLECULE
*****
 49 52 0 0 0
SMALL
GASTEIGER

@<TRIPOS>ATOM
      1 C          -6.3280    2.2573    0.4536 C.3     1  UNL1        0.0365
      2 O          -5.4167    1.2160    0.6171 O.3     1  UNL1       -0.3814
      3 C          -5.3474    0.4924   -0.5893 C.3     1  UNL1        0.0645
      4 C          -4.3456   -0.6558   -0.4164 C.3     1  UNL1        0.0552
      5 C          -4.7819   -1.5682    0.6817 C.3     1  UNL1       -0.0323
      6 C          -3.5128   -1.7798    1.4799 C.3     1  UNL1       -0.0370
      7 C          -2.7993   -0.4715    1.2986 C.3     1  UNL1        0.0209
      8 N          -3.0436   -0.1500   -0.0938 N.3     1  UNL1       -0.1713
      9 S          -1.9021   -0.9190   -1.1333 S.O2    1  UNL1        0.0612
     10 O          -2.3064   -0.5590   -2.5542 O.2     1  UNL1       -0.1528
     11 O          -2.0465   -2.4172   -1.0260 O.2     1  UNL1       -0.1528
     12 C          -0.2687   -0.4104   -0.8139 C.ar    1  UNL1        0.1063
     13 C           0.4738   -1.1122    0.1039 C.ar    1  UNL1       -0.0335
     14 C           1.7653   -0.6997    0.3478 C.ar    1  UNL1       -0.0377
     15 C           2.3526    0.3951   -0.2923 C.ar    1  UNL1        0.0477
     16 C           1.5916    1.0837   -1.2075 C.ar    1  UNL1        0.0502
     17 C           0.2763    0.6726   -1.4635 C.ar    1  UNL1       -0.0226
     18 C           2.4331    2.1582   -1.7157 C.2     1  UNL1        0.2496
     19 O           2.1232    3.0211   -2.5706 O.2     1  UNL1       -0.2817
     20 C           3.7231    2.0607   -1.0501 C.2     1  UNL1        0.2913
     21 O           4.7379    2.8204   -1.2190 O.2     1  UNL1       -0.2661
     22 N           3.6597    0.9695   -0.1753 N.am    1  UNL1       -0.2640
     23 C           4.6986    0.4781    0.7026 C.3     1  UNL1        0.0226
     24 C           5.5645   -0.5596    0.0181 C.3     1  UNL1       -0.0082
     25 C           6.6328   -1.0412    0.9741 C.3     1  UNL1        0.0835
     26 C           7.5784   -0.0562    1.5090 C.3     1  UNL1        0.0743
     27 O           6.5407   -0.4838    2.3248 O.3     1  UNL1       -0.3717
     28 H          -5.9472    2.8907   -0.3744 H       1  UNL1        0.0523
     29 H          -6.4581    2.8463    1.3663 H       1  UNL1        0.0523
     30 H          -7.3144    1.8718    0.1081 H       1  UNL1        0.0523
     31 H          -6.3440    0.0811   -0.8488 H       1  UNL1        0.0576
     32 H          -4.9957    1.1708   -1.3753 H       1  UNL1        0.0576
     33 H          -4.3567   -1.2288   -1.3703 H       1  UNL1        0.0502
     34 H          -5.1035   -2.5716    0.3326 H       1  UNL1        0.0282
     35 H          -5.5546   -1.1305    1.3528 H       1  UNL1        0.0282
     36 H          -2.9305   -2.6476    1.1385 H       1  UNL1        0.0279
     37 H          -3.7751   -1.9627    2.5583 H       1  UNL1        0.0279
     38 H          -1.7299   -0.5013    1.5483 H       1  UNL1        0.0444
     39 H          -3.2796    0.2832    1.9515 H       1  UNL1        0.0444
     40 H           0.0722   -1.9826    0.6425 H       1  UNL1        0.0638
     41 H           2.3613   -1.2338    1.0603 H       1  UNL1        0.0637
     42 H          -0.2779    1.2527   -2.1950 H       1  UNL1        0.0645
     43 H           4.2584    0.0016    1.5981 H       1  UNL1        0.0469
     44 H           5.3726    1.2957    1.0463 H       1  UNL1        0.0469
     45 H           6.0545   -0.1350   -0.8709 H       1  UNL1        0.0306
     46 H           4.9534   -1.4456   -0.2816 H       1  UNL1        0.0306
     47 H           6.8011   -2.1364    1.0714 H       1  UNL1        0.0619
     48 H           7.5585    0.9570    1.0668 H       1  UNL1        0.0586
     49 H           8.5826   -0.4166    1.8172 H       1  UNL1        0.0586
@<TRIPOS>BOND
     1     1     2    1
     2     2     3    1
     3     3     4    1
     4     4     5    1
     5     5     6    1
     6     6     7    1
     7     7     8    1
     8     8     9    1
     9     9    10    2
    10     9    11    2
    11     9    12    1
    12    12    13   ar
    13    13    14   ar
    14    14    15   ar
    15    15    16   ar
    16    16    17   ar
    17    16    18    1
    18    18    19    2
    19    18    20    1
    20    20    21    2
    21    20    22   am
    22    22    23    1
    23    23    24    1
    24    24    25    1
    25    25    26    1
    26    26    27    1
    27     8     4    1
    28    17    12   ar
    29    27    25    1
    30    22    15    1
    31     1    28    1
    32     1    29    1
    33     1    30    1
    34     3    31    1
    35     3    32    1
    36     4    33    1
    37     5    34    1
    38     5    35    1
    39     6    36    1
    40     6    37    1
    41     7    38    1
    42     7    39    1
    43    13    40    1
    44    14    41    1
    45    17    42    1
    46    23    43    1
    47    23    44    1
    48    24    45    1
    49    24    46    1
    50    25    47    1
    51    26    48    1
    52    26    49    1
