@<TRIPOS>MOLECULE
*****
 51 55 0 0 0
SMALL
GASTEIGER

@<TRIPOS>ATOM
      1 C          -1.9299   -0.4596    0.8559 C.3     1  UNL1       -0.0301
      2 C          -2.7108   -1.7469    0.8906 C.3     1  UNL1       -0.0470
      3 C          -4.0958   -1.3513    0.3793 C.3     1  UNL1       -0.0261
      4 C          -3.9965    0.1287    0.0064 C.3     1  UNL1        0.0609
      5 O          -4.8342    0.4527   -1.0453 O.3     1  UNL1       -0.3912
      6 C          -2.5401    0.1967   -0.3683 C.3     1  UNL1       -0.0030
      7 C          -2.2653   -0.5228   -1.6435 C.3     1  UNL1       -0.0569
      8 C          -1.9726    1.5791   -0.4481 C.3     1  UNL1       -0.0447
      9 C          -0.4966    1.4057   -0.7682 C.3     1  UNL1       -0.0488
     10 C           0.1617    0.6838    0.3578 C.3     1  UNL1       -0.0295
     11 C          -0.4446   -0.6304    0.7317 C.3     1  UNL1       -0.0341
     12 C           0.1256   -1.0365    2.0577 C.3     1  UNL1       -0.0469
     13 C           1.5964   -0.8908    2.2074 C.3     1  UNL1       -0.0200
     14 C           2.2538    0.1700    1.4149 C.3     1  UNL1        0.1095
     15 O           2.7793    1.3090    1.9763 O.3     1  UNL1       -0.3560
     16 C           3.6710    0.3699    1.4745 C.3     1  UNL1        0.1463
     17 C           4.3749    0.5852    0.2057 C.2     1  UNL1        0.1388
     18 O           5.7103    0.2343    0.0548 O.2     1  UNL1       -0.5074
     19 C           3.7273    1.1260   -0.8226 C.2     1  UNL1        0.0697
     20 C           2.2981    1.5053   -0.6722 C.3     1  UNL1       -0.0062
     21 C           1.6128    0.3905    0.0583 C.3     1  UNL1        0.0077
     22 C           1.8169   -0.8707   -0.7399 C.3     1  UNL1       -0.0562
     23 C           4.4465    1.3254   -2.0580 C.1     1  UNL1        0.0982
     24 N           5.0351    1.4738   -3.0640 N.1     1  UNL1       -0.1911
     25 H          -2.2129    0.1391    1.7309 H       1  UNL1        0.0310
     26 H          -2.8343   -2.0321    1.9549 H       1  UNL1        0.0269
     27 H          -2.2486   -2.5479    0.2782 H       1  UNL1        0.0269
     28 H          -4.8738   -1.4734    1.1601 H       1  UNL1        0.0290
     29 H          -4.4170   -1.9645   -0.4799 H       1  UNL1        0.0290
     30 H          -4.1969    0.7367    0.8973 H       1  UNL1        0.0599
     31 H          -5.7349    0.6015   -0.6625 H       1  UNL1        0.2098
     32 H          -1.2415   -0.8958   -1.7771 H       1  UNL1        0.0236
     33 H          -2.9237   -1.4182   -1.7583 H       1  UNL1        0.0236
     34 H          -2.4501    0.2041   -2.4721 H       1  UNL1        0.0236
     35 H          -2.5103    2.1260   -1.2454 H       1  UNL1        0.0271
     36 H          -2.0490    2.0581    0.5503 H       1  UNL1        0.0271
     37 H          -0.0720    2.4386   -0.7711 H       1  UNL1        0.0268
     38 H          -0.3218    0.9944   -1.7602 H       1  UNL1        0.0268
     39 H           0.1266    1.3371    1.2541 H       1  UNL1        0.0310
     40 H          -0.2254   -1.4418    0.0071 H       1  UNL1        0.0306
     41 H          -0.0960   -2.1390    2.1711 H       1  UNL1        0.0269
     42 H          -0.4567   -0.5583    2.8874 H       1  UNL1        0.0269
     43 H           1.8157   -0.7078    3.2941 H       1  UNL1        0.0294
     44 H           2.1354   -1.8612    1.9990 H       1  UNL1        0.0294
     45 H           4.2564   -0.1287    2.2698 H       1  UNL1        0.0707
     46 H           6.3162    0.6204   -0.6498 H       1  UNL1        0.2918
     47 H           2.2340    2.4920   -0.1684 H       1  UNL1        0.0327
     48 H           1.8557    1.5350   -1.6894 H       1  UNL1        0.0327
     49 H           2.8591   -0.8189   -1.1518 H       1  UNL1        0.0236
     50 H           1.7879   -1.7677   -0.0912 H       1  UNL1        0.0236
     51 H           1.1544   -0.9548   -1.6055 H       1  UNL1        0.0236
@<TRIPOS>BOND
     1     1     2    1
     2     2     3    1
     3     3     4    1
     4     4     5    1
     5     4     6    1
     6     6     7    1
     7     6     8    1
     8     8     9    1
     9     9    10    1
    10    10    11    1
    11    11    12    1
    12    12    13    1
    13    13    14    1
    14    14    15    1
    15    15    16    1
    16    16    17    1
    17    17    18    1
    18    17    19    2
    19    19    20    1
    20    20    21    1
    21    21    22    1
    22    19    23    1
    23    23    24    3
    24     6     1    1
    25    21    10    1
    26    11     1    1
    27    16    14    1
    28    21    14    1
    29     1    25    1
    30     2    26    1
    31     2    27    1
    32     3    28    1
    33     3    29    1
    34     4    30    1
    35     5    31    1
    36     7    32    1
    37     7    33    1
    38     7    34    1
    39     8    35    1
    40     8    36    1
    41     9    37    1
    42     9    38    1
    43    10    39    1
    44    11    40    1
    45    12    41    1
    46    12    42    1
    47    13    43    1
    48    13    44    1
    49    16    45    1
    50    18    46    1
    51    20    47    1
    52    20    48    1
    53    22    49    1
    54    22    50    1
    55    22    51    1
