
     RDKit          3D

 51 55  0  0  0  0  0  0  0  0999 V2000
   -1.9299   -0.4596    0.8559 C   0  0  2  0  0  0  0  0  0  0  0  0
   -2.7108   -1.7469    0.8906 C   0  0  0  0  0  0  0  0  0  0  0  0
   -4.0958   -1.3513    0.3793 C   0  0  0  0  0  0  0  0  0  0  0  0
   -3.9965    0.1287    0.0064 C   0  0  2  0  0  0  0  0  0  0  0  0
   -4.8342    0.4527   -1.0453 O   0  0  0  0  0  0  0  0  0  0  0  0
   -2.5401    0.1967   -0.3683 C   0  0  2  0  0  0  0  0  0  0  0  0
   -2.2653   -0.5228   -1.6435 C   0  0  0  0  0  0  0  0  0  0  0  0
   -1.9726    1.5791   -0.4481 C   0  0  0  0  0  0  0  0  0  0  0  0
   -0.4966    1.4057   -0.7682 C   0  0  0  0  0  0  0  0  0  0  0  0
    0.1617    0.6838    0.3578 C   0  0  1  0  0  0  0  0  0  0  0  0
   -0.4446   -0.6304    0.7317 C   0  0  1  0  0  0  0  0  0  0  0  0
    0.1256   -1.0365    2.0577 C   0  0  0  0  0  0  0  0  0  0  0  0
    1.5964   -0.8908    2.2074 C   0  0  0  0  0  0  0  0  0  0  0  0
    2.2538    0.1700    1.4149 C   0  0  1  0  0  0  0  0  0  0  0  0
    2.7793    1.3090    1.9763 O   0  0  0  0  0  0  0  0  0  0  0  0
    3.6710    0.3699    1.4745 C   0  0  2  0  0  0  0  0  0  0  0  0
    4.3749    0.5852    0.2057 C   0  0  0  0  0  0  0  0  0  0  0  0
    5.7103    0.2343    0.0548 O   0  0  0  0  0  0  0  0  0  0  0  0
    3.7273    1.1260   -0.8226 C   0  0  0  0  0  0  0  0  0  0  0  0
    2.2981    1.5053   -0.6722 C   0  0  0  0  0  0  0  0  0  0  0  0
    1.6128    0.3905    0.0583 C   0  0  2  0  0  0  0  0  0  0  0  0
    1.8169   -0.8707   -0.7399 C   0  0  0  0  0  0  0  0  0  0  0  0
    4.4465    1.3254   -2.0580 C   0  0  0  0  0  0  0  0  0  0  0  0
    5.0351    1.4738   -3.0640 N   0  0  0  0  0  0  0  0  0  0  0  0
   -2.2129    0.1391    1.7309 H   0  0  0  0  0  0  0  0  0  0  0  0
   -2.8343   -2.0321    1.9549 H   0  0  0  0  0  0  0  0  0  0  0  0
   -2.2486   -2.5479    0.2782 H   0  0  0  0  0  0  0  0  0  0  0  0
   -4.8738   -1.4734    1.1601 H   0  0  0  0  0  0  0  0  0  0  0  0
   -4.4170   -1.9645   -0.4799 H   0  0  0  0  0  0  0  0  0  0  0  0
   -4.1969    0.7367    0.8973 H   0  0  0  0  0  0  0  0  0  0  0  0
   -5.7349    0.6015   -0.6625 H   0  0  0  0  0  0  0  0  0  0  0  0
   -1.2415   -0.8958   -1.7771 H   0  0  0  0  0  0  0  0  0  0  0  0
   -2.9237   -1.4182   -1.7583 H   0  0  0  0  0  0  0  0  0  0  0  0
   -2.4501    0.2041   -2.4721 H   0  0  0  0  0  0  0  0  0  0  0  0
   -2.5103    2.1260   -1.2454 H   0  0  0  0  0  0  0  0  0  0  0  0
   -2.0490    2.0581    0.5503 H   0  0  0  0  0  0  0  0  0  0  0  0
   -0.0720    2.4386   -0.7711 H   0  0  0  0  0  0  0  0  0  0  0  0
   -0.3218    0.9944   -1.7602 H   0  0  0  0  0  0  0  0  0  0  0  0
    0.1266    1.3371    1.2541 H   0  0  0  0  0  0  0  0  0  0  0  0
   -0.2254   -1.4418    0.0071 H   0  0  0  0  0  0  0  0  0  0  0  0
   -0.0960   -2.1390    2.1711 H   0  0  0  0  0  0  0  0  0  0  0  0
   -0.4567   -0.5583    2.8874 H   0  0  0  0  0  0  0  0  0  0  0  0
    1.8157   -0.7078    3.2941 H   0  0  0  0  0  0  0  0  0  0  0  0
    2.1354   -1.8612    1.9990 H   0  0  0  0  0  0  0  0  0  0  0  0
    4.2564   -0.1287    2.2698 H   0  0  0  0  0  0  0  0  0  0  0  0
    6.3162    0.6204   -0.6498 H   0  0  0  0  0  0  0  0  0  0  0  0
    2.2340    2.4920   -0.1684 H   0  0  0  0  0  0  0  0  0  0  0  0
    1.8557    1.5350   -1.6894 H   0  0  0  0  0  0  0  0  0  0  0  0
    2.8591   -0.8189   -1.1518 H   0  0  0  0  0  0  0  0  0  0  0  0
    1.7879   -1.7677   -0.0912 H   0  0  0  0  0  0  0  0  0  0  0  0
    1.1544   -0.9548   -1.6055 H   0  0  0  0  0  0  0  0  0  0  0  0
  1  2  1  0
  2  3  1  0
  3  4  1  0
  4  5  1  0
  4  6  1  0
  6  7  1  6
  6  8  1  0
  8  9  1  0
  9 10  1  0
 10 11  1  0
 11 12  1  0
 12 13  1  0
 13 14  1  0
 14 15  1  1
 15 16  1  0
 16 17  1  0
 17 18  1  0
 17 19  2  0
 19 20  1  0
 20 21  1  0
 21 22  1  6
 19 23  1  0
 23 24  3  0
  6  1  1  0
 21 10  1  0
 11  1  1  0
 16 14  1  0
 21 14  1  0
  1 25  1  1
  2 26  1  0
  2 27  1  0
  3 28  1  0
  3 29  1  0
  4 30  1  1
  5 31  1  0
  7 32  1  0
  7 33  1  0
  7 34  1  0
  8 35  1  0
  8 36  1  0
  9 37  1  0
  9 38  1  0
 10 39  1  1
 11 40  1  6
 12 41  1  0
 12 42  1  0
 13 43  1  0
 13 44  1  0
 16 45  1  1
 18 46  1  0
 20 47  1  0
 20 48  1  0
 22 49  1  0
 22 50  1  0
 22 51  1  0
M  END
$$$$
