@<TRIPOS>MOLECULE
*****
 53 55 0 0 0
SMALL
GASTEIGER

@<TRIPOS>ATOM
      1 C          -3.5234    3.8960    0.1542 C.3     1  UNL1       -0.0523
      2 C          -2.2176    3.1815    0.0604 C.3     1  UNL1       -0.0036
      3 N          -2.2974    1.7727    0.1276 N.3     1  UNL1       -0.2983
      4 C          -1.0439    1.0857    0.0415 C.3     1  UNL1       -0.0007
      5 C          -0.1455    1.2855    1.2066 C.3     1  UNL1       -0.0388
      6 C           1.1300    0.5103    1.0136 C.3     1  UNL1       -0.0355
      7 C           1.8872    0.9289   -0.2116 C.3     1  UNL1        0.0230
      8 N           3.1034    0.1395   -0.3059 N.am    1  UNL1       -0.2341
      9 C           4.3659    0.4878    0.2622 C.2     1  UNL1        0.2538
     10 O           4.6165    1.5346    0.9338 O.2     1  UNL1       -0.2695
     11 C           5.3417   -0.5547   -0.0486 C.ar    1  UNL1        0.0494
     12 C           6.6786   -0.7453    0.2324 C.ar    1  UNL1       -0.0489
     13 C           7.3789   -1.8486   -0.1943 C.ar    1  UNL1       -0.0610
     14 C           6.7357   -2.8021   -0.9270 C.ar    1  UNL1       -0.0610
     15 C           5.4090   -2.6454   -1.2244 C.ar    1  UNL1       -0.0489
     16 C           4.7177   -1.5354   -0.7914 C.ar    1  UNL1        0.0494
     17 C           3.3143   -1.1045   -0.9552 C.2     1  UNL1        0.2538
     18 O           2.4695   -1.7691   -1.5817 O.2     1  UNL1       -0.2695
     19 C          -3.3055    1.1940    0.9211 C.3     1  UNL1        0.0275
     20 C          -3.2182   -0.2851    0.8308 C.ar    1  UNL1        0.0082
     21 C          -2.6946   -1.0724    1.8516 C.ar    1  UNL1       -0.0539
     22 C          -2.6542   -2.4489    1.6795 C.ar    1  UNL1       -0.0612
     23 C          -3.1110   -3.0734    0.5386 C.ar    1  UNL1       -0.0583
     24 C          -3.6283   -2.2759   -0.4660 C.ar    1  UNL1       -0.0196
     25 C          -3.6799   -0.8915   -0.3174 C.ar    1  UNL1        0.1245
     26 O          -4.1965   -0.0820   -1.3176 O.3     1  UNL1       -0.4948
     27 C          -4.6698   -0.7055   -2.4956 C.3     1  UNL1        0.0788
     28 H          -4.3364    3.3730   -0.4220 H       1  UNL1        0.0242
     29 H          -3.8492    4.1065    1.2023 H       1  UNL1        0.0242
     30 H          -3.4189    4.8859   -0.3396 H       1  UNL1        0.0242
     31 H          -1.7733    3.4511   -0.9420 H       1  UNL1        0.0424
     32 H          -1.5363    3.6095    0.8279 H       1  UNL1        0.0424
     33 H          -1.2030    0.0278   -0.1569 H       1  UNL1        0.0427
     34 H          -0.5194    1.5213   -0.8579 H       1  UNL1        0.0427
     35 H           0.0858    2.3642    1.3281 H       1  UNL1        0.0278
     36 H          -0.5818    0.9300    2.1714 H       1  UNL1        0.0278
     37 H           1.8265    0.6200    1.8733 H       1  UNL1        0.0281
     38 H           0.9231   -0.5927    0.8899 H       1  UNL1        0.0281
     39 H           2.1758    1.9919   -0.0903 H       1  UNL1        0.0470
     40 H           1.3102    0.7785   -1.1516 H       1  UNL1        0.0470
     41 H           7.2023    0.0164    0.8212 H       1  UNL1        0.0625
     42 H           8.4354   -1.9680    0.0452 H       1  UNL1        0.0618
     43 H           7.3203   -3.6568   -1.2449 H       1  UNL1        0.0618
     44 H           4.8997   -3.3993   -1.8041 H       1  UNL1        0.0625
     45 H          -3.2891    1.5203    1.9963 H       1  UNL1        0.0477
     46 H          -4.3099    1.4733    0.5361 H       1  UNL1        0.0477
     47 H          -2.3326   -0.5971    2.7536 H       1  UNL1        0.0622
     48 H          -2.2418   -3.0580    2.4847 H       1  UNL1        0.0618
     49 H          -3.0620   -4.1491    0.4433 H       1  UNL1        0.0619
     50 H          -3.9948   -2.7377   -1.3743 H       1  UNL1        0.0654
     51 H          -5.4020   -1.5139   -2.2101 H       1  UNL1        0.0660
     52 H          -5.2078    0.0230   -3.1427 H       1  UNL1        0.0660
     53 H          -3.8829   -1.1971   -3.0812 H       1  UNL1        0.0660
@<TRIPOS>BOND
     1     1     2    1
     2     2     3    1
     3     3     4    1
     4     4     5    1
     5     5     6    1
     6     6     7    1
     7     7     8    1
     8     8     9   am
     9     9    10    2
    10     9    11    1
    11    11    12   ar
    12    12    13   ar
    13    13    14   ar
    14    14    15   ar
    15    15    16   ar
    16    16    17    1
    17    17    18    2
    18     3    19    1
    19    19    20    1
    20    20    21   ar
    21    21    22   ar
    22    22    23   ar
    23    23    24   ar
    24    24    25   ar
    25    25    26    1
    26    26    27    1
    27    17     8   am
    28    25    20   ar
    29    16    11   ar
    30     1    28    1
    31     1    29    1
    32     1    30    1
    33     2    31    1
    34     2    32    1
    35     4    33    1
    36     4    34    1
    37     5    35    1
    38     5    36    1
    39     6    37    1
    40     6    38    1
    41     7    39    1
    42     7    40    1
    43    12    41    1
    44    13    42    1
    45    14    43    1
    46    15    44    1
    47    19    45    1
    48    19    46    1
    49    21    47    1
    50    22    48    1
    51    23    49    1
    52    24    50    1
    53    27    51    1
    54    27    52    1
    55    27    53    1
