@<TRIPOS>MOLECULE
*****
 42 42 0 0 0
SMALL
GASTEIGER

@<TRIPOS>ATOM
      1 C           4.8178    0.9689    1.6965 C.3     1  UNL1       -0.0524
      2 C           4.4621    1.2513    0.2753 C.3     1  UNL1       -0.0039
      3 N           3.4829    0.4056   -0.3143 N.3     1  UNL1       -0.3014
      4 C           3.8610   -0.9315   -0.5173 C.3     1  UNL1       -0.0039
      5 C           4.9549   -1.0144   -1.5969 C.3     1  UNL1       -0.0524
      6 C           2.1799    0.6808    0.1310 C.3     1  UNL1        0.0145
      7 C           1.1429   -0.1720   -0.5184 C.3     1  UNL1        0.0247
      8 N          -0.2027    0.1649   -0.0574 N.am    1  UNL1       -0.3100
      9 C          -1.2010   -0.6014   -0.6917 C.2     1  UNL1        0.2477
     10 O          -0.6630   -1.4014   -1.5154 O.2     1  UNL1       -0.2701
     11 C          -2.6390   -0.5718   -0.5163 C.ar    1  UNL1        0.0797
     12 C          -3.3821   -1.4216   -1.3142 C.ar    1  UNL1       -0.0259
     13 C          -4.7391   -1.4866   -1.2701 C.ar    1  UNL1        0.0625
     14 CL         -5.6062   -2.5936   -2.3144 Cl      1  UNL1       -0.0816
     15 C          -5.4196   -0.6741   -0.3959 C.ar    1  UNL1        0.0466
     16 N          -6.8444   -0.7105   -0.3166 N.pl3   1  UNL1       -0.3567
     17 C          -4.7577    0.2018    0.4341 C.ar    1  UNL1        0.0029
     18 C          -3.3878    0.2091    0.3325 C.ar    1  UNL1        0.1340
     19 O          -2.6839    1.0725    1.1503 O.3     1  UNL1       -0.4943
     20 C          -3.2671    1.9411    2.0821 C.3     1  UNL1        0.0788
     21 H           5.8947    1.2890    1.8116 H       1  UNL1        0.0242
     22 H           4.1982    1.5683    2.4241 H       1  UNL1        0.0242
     23 H           4.7951   -0.0703    2.0166 H       1  UNL1        0.0242
     24 H           3.9976    2.2876    0.2834 H       1  UNL1        0.0424
     25 H           5.3659    1.3985   -0.3776 H       1  UNL1        0.0424
     26 H           3.0306   -1.5094   -0.9601 H       1  UNL1        0.0424
     27 H           4.1717   -1.4859    0.3868 H       1  UNL1        0.0424
     28 H           4.4626   -0.8283   -2.5795 H       1  UNL1        0.0242
     29 H           5.3062   -2.0672   -1.5867 H       1  UNL1        0.0242
     30 H           5.7479   -0.3000   -1.3971 H       1  UNL1        0.0242
     31 H           2.0550    0.6860    1.2390 H       1  UNL1        0.0442
     32 H           1.9663    1.7616   -0.1486 H       1  UNL1        0.0442
     33 H           1.1944   -0.0731   -1.6162 H       1  UNL1        0.0475
     34 H           1.2877   -1.2458   -0.2554 H       1  UNL1        0.0475
     35 H          -0.5130    0.8647    0.6446 H       1  UNL1        0.1491
     36 H          -2.8874   -2.0936   -2.0360 H       1  UNL1        0.0641
     37 H          -7.5331   -1.1615    0.3479 H       1  UNL1        0.1424
     38 H          -7.1189   -0.1331   -1.1384 H       1  UNL1        0.1424
     39 H          -5.2733    0.8475    1.1235 H       1  UNL1        0.0673
     40 H          -4.0294    1.3659    2.6583 H       1  UNL1        0.0660
     41 H          -2.4486    2.3089    2.7514 H       1  UNL1        0.0660
     42 H          -3.7780    2.8213    1.6455 H       1  UNL1        0.0660
@<TRIPOS>BOND
     1     1     2    1
     2     2     3    1
     3     3     4    1
     4     4     5    1
     5     3     6    1
     6     6     7    1
     7     7     8    1
     8     8     9   am
     9     9    10    2
    10     9    11    1
    11    11    12   ar
    12    12    13   ar
    13    13    14    1
    14    13    15   ar
    15    15    16    1
    16    15    17   ar
    17    17    18   ar
    18    18    19    1
    19    19    20    1
    20    18    11   ar
    21     1    21    1
    22     1    22    1
    23     1    23    1
    24     2    24    1
    25     2    25    1
    26     4    26    1
    27     4    27    1
    28     5    28    1
    29     5    29    1
    30     5    30    1
    31     6    31    1
    32     6    32    1
    33     7    33    1
    34     7    34    1
    35     8    35    1
    36    12    36    1
    37    16    37    1
    38    16    38    1
    39    17    39    1
    40    20    40    1
    41    20    41    1
    42    20    42    1
