@<TRIPOS>MOLECULE
*****
 65 69 0 0 0
SMALL
GASTEIGER

@<TRIPOS>ATOM
      1 C          -7.0647   -1.7189    2.0412 C.3     1  UNL1       -0.0391
      2 C          -7.7728   -0.5989    1.3814 C.ar    1  UNL1       -0.0425
      3 C          -9.1057   -0.3363    1.7013 C.ar    1  UNL1       -0.0582
      4 C          -9.7757    0.7009    1.0959 C.ar    1  UNL1       -0.0612
      5 C          -9.0977    1.4684    0.1703 C.ar    1  UNL1       -0.0582
      6 C          -7.7603    1.2056   -0.1515 C.ar    1  UNL1       -0.0425
      7 C          -7.0109    2.0173   -1.1447 C.3     1  UNL1       -0.0391
      8 C          -7.0977    0.1651    0.4597 C.ar    1  UNL1       -0.0120
      9 C          -5.7159   -0.1142    0.1323 C.ar    1  UNL1       -0.0149
     10 C          -4.6784    0.4873    0.8569 C.ar    1  UNL1       -0.0489
     11 C          -3.3567    0.2775    0.6090 C.ar    1  UNL1       -0.0223
     12 C          -2.3038    0.9529    1.4228 C.3     1  UNL1       -0.0376
     13 C          -2.9940   -0.5752   -0.4132 C.ar    1  UNL1        0.0975
     14 N          -1.7116   -0.8320   -0.7213 N.ar    1  UNL1       -0.2112
     15 C          -1.3485   -1.6522   -1.7089 C.ar    1  UNL1        0.2398
     16 N          -0.0230   -1.9572   -2.0780 N.pl3   1  UNL1       -0.2824
     17 C           1.1505   -1.4821   -1.4476 C.ar    1  UNL1        0.0338
     18 C           2.3781   -1.7180   -2.0780 C.ar    1  UNL1       -0.0370
     19 C           3.5567   -1.2946   -1.5171 C.ar    1  UNL1       -0.0182
     20 C           3.5979   -0.6179   -0.3103 C.ar    1  UNL1        0.1207
     21 O           4.7730   -0.1771    0.2813 O.3     1  UNL1       -0.4907
     22 C           6.0273   -0.4007   -0.3361 C.3     1  UNL1        0.1022
     23 C           7.0717    0.1875    0.5467 C.3     1  UNL1        0.0331
     24 N           8.4211    0.0451    0.0500 N.3     1  UNL1       -0.2991
     25 C           8.6698    0.8283   -1.1311 C.3     1  UNL1       -0.0010
     26 C           9.5088    2.0073   -0.7089 C.3     1  UNL1       -0.0390
     27 C          10.3597    1.3961    0.3861 C.3     1  UNL1       -0.0390
     28 C           9.4022    0.4425    1.0444 C.3     1  UNL1       -0.0010
     29 C           2.3817   -0.3943    0.2962 C.ar    1  UNL1       -0.0182
     30 C           1.1793   -0.8128   -0.2515 C.ar    1  UNL1       -0.0370
     31 N          -2.3734   -2.2209   -2.3932 N.ar    1  UNL1       -0.1123
     32 N          -3.6453   -2.0034   -2.1321 N.ar    1  UNL1       -0.1444
     33 C          -4.0087   -1.1781   -1.1393 C.ar    1  UNL1        0.1125
     34 C          -5.3461   -0.9666   -0.8890 C.ar    1  UNL1       -0.0247
     35 H          -7.8536   -2.4447    2.3814 H       1  UNL1        0.0278
     36 H          -6.4845   -1.3987    2.9224 H       1  UNL1        0.0278
     37 H          -6.4390   -2.2786    1.3195 H       1  UNL1        0.0278
     38 H          -9.6241   -0.9501    2.4322 H       1  UNL1        0.0620
     39 H         -10.8114    0.9460    1.3080 H       1  UNL1        0.0618
     40 H          -9.6067    2.2952   -0.3215 H       1  UNL1        0.0620
     41 H          -6.7777    1.3704   -2.0121 H       1  UNL1        0.0278
     42 H          -7.6739    2.8259   -1.5232 H       1  UNL1        0.0278
     43 H          -6.1188    2.5063   -0.7071 H       1  UNL1        0.0278
     44 H          -4.9543    1.1622    1.6645 H       1  UNL1        0.0627
     45 H          -2.5996    1.9825    1.7158 H       1  UNL1        0.0278
     46 H          -1.3840    1.0514    0.8108 H       1  UNL1        0.0278
     47 H          -2.0132    0.3371    2.3029 H       1  UNL1        0.0278
     48 H           0.1086   -2.6072   -2.9051 H       1  UNL1        0.1551
     49 H           2.3585   -2.2518   -3.0367 H       1  UNL1        0.0637
     50 H           4.5022   -1.4968   -2.0404 H       1  UNL1        0.0655
     51 H           6.1202   -1.4928   -0.4749 H       1  UNL1        0.0709
     52 H           5.9753    0.1486   -1.3226 H       1  UNL1        0.0709
     53 H           6.8309    1.2704    0.6794 H       1  UNL1        0.0460
     54 H           6.9580   -0.2681    1.5531 H       1  UNL1        0.0460
     55 H           9.1951    0.1844   -1.8672 H       1  UNL1        0.0427
     56 H           7.7490    1.2330   -1.5893 H       1  UNL1        0.0427
     57 H           8.8382    2.7548   -0.2425 H       1  UNL1        0.0278
     58 H          10.1101    2.4348   -1.5222 H       1  UNL1        0.0278
     59 H          10.7027    2.1923    1.0806 H       1  UNL1        0.0278
     60 H          11.2263    0.8284   -0.0135 H       1  UNL1        0.0278
     61 H           8.9142    0.9008    1.9328 H       1  UNL1        0.0427
     62 H           9.9355   -0.4548    1.4256 H       1  UNL1        0.0427
     63 H           2.3822    0.1350    1.2466 H       1  UNL1        0.0655
     64 H           0.2768   -0.6010    0.2938 H       1  UNL1        0.0637
     65 H          -6.1295   -1.4460   -1.4656 H       1  UNL1        0.0646
@<TRIPOS>BOND
     1     1     2    1
     2     2     3   ar
     3     3     4   ar
     4     4     5   ar
     5     5     6   ar
     6     6     7    1
     7     6     8   ar
     8     8     9    1
     9     9    10   ar
    10    10    11   ar
    11    11    12    1
    12    11    13   ar
    13    13    14   ar
    14    14    15   ar
    15    15    16    1
    16    16    17    1
    17    17    18   ar
    18    18    19   ar
    19    19    20   ar
    20    20    21    1
    21    21    22    1
    22    22    23    1
    23    23    24    1
    24    24    25    1
    25    25    26    1
    26    26    27    1
    27    27    28    1
    28    20    29   ar
    29    29    30   ar
    30    15    31   ar
    31    31    32   ar
    32    32    33   ar
    33    33    34   ar
    34     8     2   ar
    35    34     9   ar
    36    33    13   ar
    37    30    17   ar
    38    28    24    1
    39     1    35    1
    40     1    36    1
    41     1    37    1
    42     3    38    1
    43     4    39    1
    44     5    40    1
    45     7    41    1
    46     7    42    1
    47     7    43    1
    48    10    44    1
    49    12    45    1
    50    12    46    1
    51    12    47    1
    52    16    48    1
    53    18    49    1
    54    19    50    1
    55    22    51    1
    56    22    52    1
    57    23    53    1
    58    23    54    1
    59    25    55    1
    60    25    56    1
    61    26    57    1
    62    26    58    1
    63    27    59    1
    64    27    60    1
    65    28    61    1
    66    28    62    1
    67    29    63    1
    68    30    64    1
    69    34    65    1
