
     RDKit          3D

 65 69  0  0  0  0  0  0  0  0999 V2000
   -7.0647   -1.7189    2.0412 C   0  0  0  0  0  0  0  0  0  0  0  0
   -7.7728   -0.5989    1.3814 C   0  0  0  0  0  0  0  0  0  0  0  0
   -9.1057   -0.3363    1.7013 C   0  0  0  0  0  0  0  0  0  0  0  0
   -9.7757    0.7009    1.0959 C   0  0  0  0  0  0  0  0  0  0  0  0
   -9.0977    1.4684    0.1703 C   0  0  0  0  0  0  0  0  0  0  0  0
   -7.7603    1.2056   -0.1515 C   0  0  0  0  0  0  0  0  0  0  0  0
   -7.0109    2.0173   -1.1447 C   0  0  0  0  0  0  0  0  0  0  0  0
   -7.0977    0.1651    0.4597 C   0  0  0  0  0  0  0  0  0  0  0  0
   -5.7159   -0.1142    0.1323 C   0  0  0  0  0  0  0  0  0  0  0  0
   -4.6784    0.4873    0.8569 C   0  0  0  0  0  0  0  0  0  0  0  0
   -3.3567    0.2775    0.6090 C   0  0  0  0  0  0  0  0  0  0  0  0
   -2.3038    0.9529    1.4228 C   0  0  0  0  0  0  0  0  0  0  0  0
   -2.9940   -0.5752   -0.4132 C   0  0  0  0  0  0  0  0  0  0  0  0
   -1.7116   -0.8320   -0.7213 N   0  0  0  0  0  0  0  0  0  0  0  0
   -1.3485   -1.6522   -1.7089 C   0  0  0  0  0  0  0  0  0  0  0  0
   -0.0230   -1.9572   -2.0780 N   0  0  0  0  0  0  0  0  0  0  0  0
    1.1505   -1.4821   -1.4476 C   0  0  0  0  0  0  0  0  0  0  0  0
    2.3781   -1.7180   -2.0780 C   0  0  0  0  0  0  0  0  0  0  0  0
    3.5567   -1.2946   -1.5171 C   0  0  0  0  0  0  0  0  0  0  0  0
    3.5979   -0.6179   -0.3103 C   0  0  0  0  0  0  0  0  0  0  0  0
    4.7730   -0.1771    0.2813 O   0  0  0  0  0  0  0  0  0  0  0  0
    6.0273   -0.4007   -0.3361 C   0  0  0  0  0  0  0  0  0  0  0  0
    7.0717    0.1875    0.5467 C   0  0  0  0  0  0  0  0  0  0  0  0
    8.4211    0.0451    0.0500 N   0  0  0  0  0  0  0  0  0  0  0  0
    8.6698    0.8283   -1.1311 C   0  0  0  0  0  0  0  0  0  0  0  0
    9.5088    2.0073   -0.7089 C   0  0  0  0  0  0  0  0  0  0  0  0
   10.3597    1.3961    0.3861 C   0  0  0  0  0  0  0  0  0  0  0  0
    9.4022    0.4425    1.0444 C   0  0  0  0  0  0  0  0  0  0  0  0
    2.3817   -0.3943    0.2962 C   0  0  0  0  0  0  0  0  0  0  0  0
    1.1793   -0.8128   -0.2515 C   0  0  0  0  0  0  0  0  0  0  0  0
   -2.3734   -2.2209   -2.3932 N   0  0  0  0  0  0  0  0  0  0  0  0
   -3.6453   -2.0034   -2.1321 N   0  0  0  0  0  0  0  0  0  0  0  0
   -4.0087   -1.1781   -1.1393 C   0  0  0  0  0  0  0  0  0  0  0  0
   -5.3461   -0.9666   -0.8890 C   0  0  0  0  0  0  0  0  0  0  0  0
   -7.8536   -2.4447    2.3814 H   0  0  0  0  0  0  0  0  0  0  0  0
   -6.4845   -1.3987    2.9224 H   0  0  0  0  0  0  0  0  0  0  0  0
   -6.4390   -2.2786    1.3195 H   0  0  0  0  0  0  0  0  0  0  0  0
   -9.6241   -0.9501    2.4322 H   0  0  0  0  0  0  0  0  0  0  0  0
  -10.8114    0.9460    1.3080 H   0  0  0  0  0  0  0  0  0  0  0  0
   -9.6067    2.2952   -0.3215 H   0  0  0  0  0  0  0  0  0  0  0  0
   -6.7777    1.3704   -2.0121 H   0  0  0  0  0  0  0  0  0  0  0  0
   -7.6739    2.8259   -1.5232 H   0  0  0  0  0  0  0  0  0  0  0  0
   -6.1188    2.5063   -0.7071 H   0  0  0  0  0  0  0  0  0  0  0  0
   -4.9543    1.1622    1.6645 H   0  0  0  0  0  0  0  0  0  0  0  0
   -2.5996    1.9825    1.7158 H   0  0  0  0  0  0  0  0  0  0  0  0
   -1.3840    1.0514    0.8108 H   0  0  0  0  0  0  0  0  0  0  0  0
   -2.0132    0.3371    2.3029 H   0  0  0  0  0  0  0  0  0  0  0  0
    0.1086   -2.6072   -2.9051 H   0  0  0  0  0  0  0  0  0  0  0  0
    2.3585   -2.2518   -3.0367 H   0  0  0  0  0  0  0  0  0  0  0  0
    4.5022   -1.4968   -2.0404 H   0  0  0  0  0  0  0  0  0  0  0  0
    6.1202   -1.4928   -0.4749 H   0  0  0  0  0  0  0  0  0  0  0  0
    5.9753    0.1486   -1.3226 H   0  0  0  0  0  0  0  0  0  0  0  0
    6.8309    1.2704    0.6794 H   0  0  0  0  0  0  0  0  0  0  0  0
    6.9580   -0.2681    1.5531 H   0  0  0  0  0  0  0  0  0  0  0  0
    9.1951    0.1844   -1.8672 H   0  0  0  0  0  0  0  0  0  0  0  0
    7.7490    1.2330   -1.5893 H   0  0  0  0  0  0  0  0  0  0  0  0
    8.8382    2.7548   -0.2425 H   0  0  0  0  0  0  0  0  0  0  0  0
   10.1101    2.4348   -1.5222 H   0  0  0  0  0  0  0  0  0  0  0  0
   10.7027    2.1923    1.0806 H   0  0  0  0  0  0  0  0  0  0  0  0
   11.2263    0.8284   -0.0135 H   0  0  0  0  0  0  0  0  0  0  0  0
    8.9142    0.9008    1.9328 H   0  0  0  0  0  0  0  0  0  0  0  0
    9.9355   -0.4548    1.4256 H   0  0  0  0  0  0  0  0  0  0  0  0
    2.3822    0.1350    1.2466 H   0  0  0  0  0  0  0  0  0  0  0  0
    0.2768   -0.6010    0.2938 H   0  0  0  0  0  0  0  0  0  0  0  0
   -6.1295   -1.4460   -1.4656 H   0  0  0  0  0  0  0  0  0  0  0  0
  1  2  1  0
  2  3  2  0
  3  4  1  0
  4  5  2  0
  5  6  1  0
  6  7  1  0
  6  8  2  0
  8  9  1  0
  9 10  2  0
 10 11  1  0
 11 12  1  0
 11 13  2  0
 13 14  1  0
 14 15  2  0
 15 16  1  0
 16 17  1  0
 17 18  2  0
 18 19  1  0
 19 20  2  0
 20 21  1  0
 21 22  1  0
 22 23  1  0
 23 24  1  0
 24 25  1  0
 25 26  1  0
 26 27  1  0
 27 28  1  0
 20 29  1  0
 29 30  2  0
 15 31  1  0
 31 32  2  0
 32 33  1  0
 33 34  2  0
  8  2  1  0
 34  9  1  0
 33 13  1  0
 30 17  1  0
 28 24  1  0
  1 35  1  0
  1 36  1  0
  1 37  1  0
  3 38  1  0
  4 39  1  0
  5 40  1  0
  7 41  1  0
  7 42  1  0
  7 43  1  0
 10 44  1  0
 12 45  1  0
 12 46  1  0
 12 47  1  0
 16 48  1  0
 18 49  1  0
 19 50  1  0
 22 51  1  0
 22 52  1  0
 23 53  1  0
 23 54  1  0
 25 55  1  0
 25 56  1  0
 26 57  1  0
 26 58  1  0
 27 59  1  0
 27 60  1  0
 28 61  1  0
 28 62  1  0
 29 63  1  0
 30 64  1  0
 34 65  1  0
M  END
$$$$
