@<TRIPOS>MOLECULE
*****
 50 49 0 0 0
SMALL
GASTEIGER

@<TRIPOS>ATOM
      1 C          -3.1949    2.0362   -0.1022 C.3     1  UNL1        0.1409
      2 O          -3.9676    2.7047    0.8417 O.3     1  UNL1       -0.3820
      3 C          -2.0682    2.8959   -0.5985 C.3     1  UNL1        0.0792
      4 C          -2.6021    4.1338   -1.2335 C.2     1  UNL1        0.3077
      5 O          -3.9048    4.6167   -1.4411 O.3     1  UNL1       -0.4805
      6 O          -1.7846    4.9631   -1.7019 O.2     1  UNL1       -0.2509
      7 C          -2.6319    0.8104    0.5210 C.2     1  UNL1        0.2428
      8 O          -3.0820    0.8469    1.6962 O.2     1  UNL1       -0.2729
      9 N          -1.7949   -0.0724   -0.2192 N.am    1  UNL1       -0.3019
     10 C          -1.2509   -1.2550    0.3797 C.3     1  UNL1        0.0997
     11 C          -1.8602   -2.4578   -0.2970 C.3     1  UNL1       -0.0236
     12 C          -1.3298   -3.7516    0.2859 C.3     1  UNL1       -0.0446
     13 C          -1.6742   -3.7943    1.7753 C.3     1  UNL1       -0.0626
     14 C          -2.0329   -4.9394   -0.3330 C.3     1  UNL1       -0.0626
     15 C           0.2053   -1.3145    0.4711 C.2     1  UNL1        0.2334
     16 O           1.1301   -2.0927    0.8902 O.2     1  UNL1       -0.2738
     17 N           0.8946   -0.1638   -0.0606 N.am    1  UNL1       -0.3138
     18 C           2.3635   -0.1859    0.0131 C.3     1  UNL1        0.0119
     19 C           2.9607    1.0614   -0.5698 C.3     1  UNL1       -0.0350
     20 C           4.4731    1.0625   -0.5056 C.3     1  UNL1       -0.0453
     21 C           5.0470    2.3321   -1.1004 C.3     1  UNL1       -0.0626
     22 C           4.9716    0.9979    0.9277 C.3     1  UNL1       -0.0626
     23 H          -3.8610    1.7496   -0.9347 H       1  UNL1        0.0696
     24 H          -4.8458    2.2943    0.9726 H       1  UNL1        0.2104
     25 H          -1.4857    2.3250   -1.3379 H       1  UNL1        0.0408
     26 H          -1.4594    3.1912    0.2631 H       1  UNL1        0.0408
     27 H          -4.1995    5.4830   -0.9695 H       1  UNL1        0.2951
     28 H          -1.6177    0.2099   -1.2081 H       1  UNL1        0.1495
     29 H          -1.6352   -1.2577    1.4421 H       1  UNL1        0.0594
     30 H          -1.6435   -2.4661   -1.3854 H       1  UNL1        0.0290
     31 H          -2.9636   -2.4734   -0.1912 H       1  UNL1        0.0290
     32 H          -0.2473   -3.8053    0.0984 H       1  UNL1        0.0296
     33 H          -2.6215   -3.2249    1.9407 H       1  UNL1        0.0232
     34 H          -1.8440   -4.8421    2.0998 H       1  UNL1        0.0232
     35 H          -0.8698   -3.3480    2.3631 H       1  UNL1        0.0232
     36 H          -1.7038   -5.1612   -1.3563 H       1  UNL1        0.0232
     37 H          -3.1246   -4.6822   -0.4027 H       1  UNL1        0.0232
     38 H          -1.9781   -5.8373    0.3220 H       1  UNL1        0.0232
     39 H           0.4562    0.7003   -0.5007 H       1  UNL1        0.1487
     40 H           2.6842   -0.3868    1.0558 H       1  UNL1        0.0462
     41 H           2.6577   -1.0834   -0.5689 H       1  UNL1        0.0462
     42 H           2.5957    1.9494   -0.0560 H       1  UNL1        0.0283
     43 H           2.6863    1.0939   -1.6394 H       1  UNL1        0.0283
     44 H           4.9293    0.2086   -1.0483 H       1  UNL1        0.0296
     45 H           5.2917    3.0904   -0.3135 H       1  UNL1        0.0232
     46 H           6.0390    2.1127   -1.5827 H       1  UNL1        0.0232
     47 H           4.3939    2.7220   -1.8956 H       1  UNL1        0.0232
     48 H           4.6110    0.1316    1.4871 H       1  UNL1        0.0232
     49 H           4.7971    1.9777    1.4121 H       1  UNL1        0.0232
     50 H           6.0916    0.8947    0.8407 H       1  UNL1        0.0232
@<TRIPOS>BOND
     1     1     2    1
     2     1     3    1
     3     3     4    1
     4     4     5    1
     5     4     6    2
     6     1     7    1
     7     7     8    2
     8     7     9   am
     9     9    10    1
    10    10    11    1
    11    11    12    1
    12    12    13    1
    13    12    14    1
    14    10    15    1
    15    15    16    2
    16    15    17   am
    17    17    18    1
    18    18    19    1
    19    19    20    1
    20    20    21    1
    21    20    22    1
    22     1    23    1
    23     2    24    1
    24     3    25    1
    25     3    26    1
    26     5    27    1
    27     9    28    1
    28    10    29    1
    29    11    30    1
    30    11    31    1
    31    12    32    1
    32    13    33    1
    33    13    34    1
    34    13    35    1
    35    14    36    1
    36    14    37    1
    37    14    38    1
    38    17    39    1
    39    18    40    1
    40    18    41    1
    41    19    42    1
    42    19    43    1
    43    20    44    1
    44    21    45    1
    45    21    46    1
    46    21    47    1
    47    22    48    1
    48    22    49    1
    49    22    50    1
