@<TRIPOS>MOLECULE
*****
 35 38 0 0 0
SMALL
GASTEIGER

@<TRIPOS>ATOM
      1 O           0.7413    0.7032   -2.0972 O.2     1  UNL1       -0.2444
      2 C           1.6756    0.4934   -1.2885 C.ar    1  UNL1        0.3465
      3 O           2.9201    0.6539   -1.7090 O.2     1  UNL1       -0.4217
      4 C           3.9664    0.4680   -0.9705 C.ar    1  UNL1        0.1391
      5 C           5.2215    0.6568   -1.4863 C.ar    1  UNL1       -0.0186
      6 C           6.3275    0.4606   -0.7065 C.ar    1  UNL1       -0.0582
      7 C           6.1183    0.0666    0.6137 C.ar    1  UNL1       -0.0610
      8 C           4.8558   -0.1235    1.1333 C.ar    1  UNL1       -0.0511
      9 C           3.7410    0.0745    0.3466 C.ar    1  UNL1        0.0182
     10 C           2.4639   -0.1052    0.8295 C.ar    1  UNL1       -0.0350
     11 C           1.3706    0.1090   -0.0103 C.ar    1  UNL1        0.0848
     12 C           0.0142   -0.0774    0.4871 C.ar    1  UNL1        0.0720
     13 C          -1.1791    0.0802   -0.1705 C.ar    1  UNL1        0.0363
     14 N          -2.2311   -0.1888    0.6389 N.ar    1  UNL1       -0.2948
     15 C          -3.6212   -0.1405    0.3339 C.ar    1  UNL1        0.0485
     16 C          -4.3912    0.9582    0.5928 C.ar    1  UNL1       -0.0378
     17 C          -5.7310    0.9566    0.2795 C.ar    1  UNL1       -0.0598
     18 C          -6.2996   -0.1637   -0.3002 C.ar    1  UNL1       -0.0616
     19 C          -5.5364   -1.2690   -0.5633 C.ar    1  UNL1       -0.0598
     20 C          -4.2021   -1.2424   -0.2414 C.ar    1  UNL1       -0.0378
     21 C          -1.6832   -0.5210    1.8258 C.ar    1  UNL1        0.1629
     22 S          -2.5939   -0.9338    3.1391 S.2     1  UNL1       -0.0125
     23 N          -0.3447   -0.4582    1.7472 N.ar    1  UNL1       -0.3332
     24 H           5.3167    0.9675   -2.5345 H       1  UNL1        0.0654
     25 H           7.3348    0.6050   -1.0964 H       1  UNL1        0.0619
     26 H           6.9870   -0.0868    1.2239 H       1  UNL1        0.0618
     27 H           4.7190   -0.4287    2.1587 H       1  UNL1        0.0625
     28 H           2.3025   -0.4107    1.8531 H       1  UNL1        0.0633
     29 H          -1.3342    0.3768   -1.1962 H       1  UNL1        0.0835
     30 H          -3.9296    1.8326    1.0494 H       1  UNL1        0.0638
     31 H          -6.3489    1.8414    0.4886 H       1  UNL1        0.0618
     32 H          -7.3507   -0.2069   -0.5626 H       1  UNL1        0.0618
     33 H          -5.9973   -2.1506   -1.0227 H       1  UNL1        0.0618
     34 H          -3.6370   -2.1363   -0.4663 H       1  UNL1        0.0638
     35 H           0.3349   -0.6609    2.5062 H       1  UNL1        0.1679
@<TRIPOS>BOND
     1     1     2    2
     2     2     3   ar
     3     3     4   ar
     4     4     5   ar
     5     5     6   ar
     6     6     7   ar
     7     7     8   ar
     8     8     9   ar
     9     9    10   ar
    10    10    11   ar
    11    11    12    1
    12    12    13   ar
    13    13    14   ar
    14    14    15    1
    15    15    16   ar
    16    16    17   ar
    17    17    18   ar
    18    18    19   ar
    19    19    20   ar
    20    14    21   ar
    21    21    22    2
    22    21    23   ar
    23    11     2   ar
    24    23    12   ar
    25     9     4   ar
    26    20    15   ar
    27     5    24    1
    28     6    25    1
    29     7    26    1
    30     8    27    1
    31    10    28    1
    32    13    29    1
    33    16    30    1
    34    17    31    1
    35    18    32    1
    36    19    33    1
    37    20    34    1
    38    23    35    1
