
     RDKit          3D

 33 34  0  0  0  0  0  0  0  0999 V2000
   -6.1527    0.8017   -0.7213 N   0  0  0  0  0  0  0  0  0  0  0  0
   -5.0505    1.1001    0.1246 C   0  0  0  0  0  0  0  0  0  0  0  0
   -5.2727    2.0820    0.9348 N   0  0  0  0  0  0  0  0  0  0  0  0
   -3.7860    0.3749    0.0904 C   0  0  0  0  0  0  0  0  0  0  0  0
   -3.3045   -0.2050   -1.0652 C   0  0  0  0  0  0  0  0  0  0  0  0
   -2.1153   -0.8797   -1.0701 C   0  0  0  0  0  0  0  0  0  0  0  0
   -1.3733   -0.9948    0.0776 C   0  0  0  0  0  0  0  0  0  0  0  0
   -0.1227   -1.6435    0.3014 N   0  0  0  0  0  0  0  0  0  0  0  0
    0.9942   -0.7575    0.0853 C   0  0  0  0  0  0  0  0  0  0  0  0
    0.8272    0.4422   -0.2605 O   0  0  0  0  0  0  0  0  0  0  0  0
    2.3147   -1.2657    0.2715 N   0  0  0  0  0  0  0  0  0  0  0  0
    3.5112   -0.5034    0.0931 C   0  0  0  0  0  0  0  0  0  0  0  0
    3.9349    0.1321    1.2263 C   0  0  0  0  0  0  0  0  0  0  0  0
    5.0932    0.9138    1.1968 C   0  0  0  0  0  0  0  0  0  0  0  0
    5.7985    1.0352    0.0179 C   0  0  0  0  0  0  0  0  0  0  0  0
    7.2524    1.9951   -0.0891 Cl  0  0  0  0  0  0  0  0  0  0  0  0
    5.3609    0.3834   -1.1378 C   0  0  0  0  0  0  0  0  0  0  0  0
    4.2137   -0.3897   -1.1045 C   0  0  0  0  0  0  0  0  0  0  0  0
   -1.8483   -0.4129    1.2543 C   0  0  0  0  0  0  0  0  0  0  0  0
   -3.0547    0.2718    1.2601 C   0  0  0  0  0  0  0  0  0  0  0  0
   -6.9495    0.4009   -1.2599 H   0  0  0  0  0  0  0  0  0  0  0  0
   -6.4600   -0.2034   -0.5941 H   0  0  0  0  0  0  0  0  0  0  0  0
   -4.5442    2.3998    1.6073 H   0  0  0  0  0  0  0  0  0  0  0  0
   -3.8536   -0.1402   -1.9911 H   0  0  0  0  0  0  0  0  0  0  0  0
   -1.6526   -1.3665   -1.9153 H   0  0  0  0  0  0  0  0  0  0  0  0
    0.0341   -2.6332    0.5873 H   0  0  0  0  0  0  0  0  0  0  0  0
    2.4516   -2.2654    0.5596 H   0  0  0  0  0  0  0  0  0  0  0  0
    3.4277    0.0781    2.1828 H   0  0  0  0  0  0  0  0  0  0  0  0
    5.4437    1.4274    2.0946 H   0  0  0  0  0  0  0  0  0  0  0  0
    5.8833    0.4473   -2.0959 H   0  0  0  0  0  0  0  0  0  0  0  0
    3.8090   -0.9274   -1.9606 H   0  0  0  0  0  0  0  0  0  0  0  0
   -1.3568   -0.4327    2.2265 H   0  0  0  0  0  0  0  0  0  0  0  0
   -3.4530    0.7352    2.1547 H   0  0  0  0  0  0  0  0  0  0  0  0
  1  2  1  0
  2  3  2  3
  2  4  1  0
  4  5  2  0
  5  6  1  0
  6  7  2  0
  7  8  1  0
  8  9  1  0
  9 10  2  0
  9 11  1  0
 11 12  1  0
 12 13  2  0
 13 14  1  0
 14 15  2  0
 15 16  1  0
 15 17  1  0
 17 18  2  0
  7 19  1  0
 19 20  2  0
 20  4  1  0
 18 12  1  0
  1 21  1  0
  1 22  1  0
  3 23  1  0
  5 24  1  0
  6 25  1  0
  8 26  1  0
 11 27  1  0
 13 28  1  0
 14 29  1  0
 17 30  1  0
 18 31  1  0
 19 32  1  0
 20 33  1  0
M  END
$$$$
