@<TRIPOS>MOLECULE
*****
 48 51 0 0 0
SMALL
GASTEIGER

@<TRIPOS>ATOM
      1 C           0.3199   -0.3201   -3.4760 C.3     1  UNL1        0.0163
      2 N          -0.7630   -0.2863   -2.5408 N.ar    1  UNL1       -0.2993
      3 C          -0.5477   -0.4459   -1.2254 C.ar    1  UNL1        0.1230
      4 C           0.8901   -0.6609   -0.8044 C.3     1  UNL1        0.0828
      5 C           1.5542    0.5979   -0.5243 C.2     1  UNL1        0.2271
      6 O           0.9234    1.6941   -0.7614 O.2     1  UNL1       -0.2748
      7 N           2.8401    0.7196   -0.0085 N.am    1  UNL1       -0.2705
      8 C           3.5811    1.9946    0.2361 C.3     1  UNL1        0.0238
      9 C           4.1869    1.6580    1.5762 C.3     1  UNL1       -0.0097
     10 C           4.6027    0.2432    1.3835 C.ar    1  UNL1       -0.0245
     11 C           5.5863   -0.5384    1.9551 C.ar    1  UNL1       -0.0568
     12 C           5.7600   -1.8603    1.5809 C.ar    1  UNL1       -0.0614
     13 C           4.9076   -2.3501    0.6171 C.ar    1  UNL1       -0.0600
     14 C           3.9088   -1.5962    0.0207 C.ar    1  UNL1       -0.0400
     15 C           3.7474   -0.2790    0.4042 C.ar    1  UNL1        0.0395
     16 N          -1.5396   -0.4196   -0.3249 N.ar    1  UNL1       -0.2184
     17 C          -2.8408   -0.2264   -0.7022 C.ar    1  UNL1        0.1285
     18 N          -3.8632   -0.2015    0.2809 N.pl3   1  UNL1       -0.3106
     19 C          -5.2728   -0.1040    0.0238 C.3     1  UNL1        0.0370
     20 C          -5.8104    1.1426    0.6597 C.3     1  UNL1        0.0634
     21 O          -5.1546    1.5717    1.7636 O.3     1  UNL1       -0.3767
     22 C          -4.3474    0.7275    2.4348 C.3     1  UNL1        0.0634
     23 C          -3.5478   -0.2713    1.7051 C.3     1  UNL1        0.0370
     24 C          -3.0643   -0.0632   -2.0419 C.ar    1  UNL1        0.0429
     25 C          -2.0275   -0.0899   -2.9912 C.ar    1  UNL1        0.2556
     26 O          -2.2618    0.0629   -4.2178 O.2     1  UNL1       -0.2675
     27 H           1.1765    0.3173   -3.1876 H       1  UNL1        0.0457
     28 H           0.7250   -1.3577   -3.5981 H       1  UNL1        0.0457
     29 H          -0.0104    0.0183   -4.4801 H       1  UNL1        0.0457
     30 H           1.4102   -1.2047   -1.6338 H       1  UNL1        0.0438
     31 H           0.8867   -1.3233    0.0685 H       1  UNL1        0.0438
     32 H           2.8670    2.8194    0.2805 H       1  UNL1        0.0472
     33 H           4.3665    2.0722   -0.5119 H       1  UNL1        0.0472
     34 H           3.4322    1.6643    2.3870 H       1  UNL1        0.0329
     35 H           5.0701    2.2819    1.8219 H       1  UNL1        0.0329
     36 H           6.2365   -0.1018    2.7154 H       1  UNL1        0.0621
     37 H           6.5361   -2.4791    2.0311 H       1  UNL1        0.0618
     38 H           5.0054   -3.3756    0.2935 H       1  UNL1        0.0618
     39 H           3.2685   -2.0278   -0.7307 H       1  UNL1        0.0636
     40 H          -5.7534   -1.0005    0.5161 H       1  UNL1        0.0487
     41 H          -5.4591   -0.1578   -1.0493 H       1  UNL1        0.0487
     42 H          -5.7818    1.9492   -0.1029 H       1  UNL1        0.0575
     43 H          -6.8807    0.9809    0.9007 H       1  UNL1        0.0575
     44 H          -3.6368    1.3519    3.0554 H       1  UNL1        0.0575
     45 H          -4.9687    0.1935    3.2090 H       1  UNL1        0.0575
     46 H          -2.4417   -0.1204    1.8373 H       1  UNL1        0.0487
     47 H          -3.7488   -1.2956    2.0548 H       1  UNL1        0.0487
     48 H          -4.0671    0.0962   -2.4115 H       1  UNL1        0.0706
@<TRIPOS>BOND
     1     1     2    1
     2     2     3   ar
     3     3     4    1
     4     4     5    1
     5     5     6    2
     6     5     7   am
     7     7     8    1
     8     8     9    1
     9     9    10    1
    10    10    11   ar
    11    11    12   ar
    12    12    13   ar
    13    13    14   ar
    14    14    15   ar
    15     3    16   ar
    16    16    17   ar
    17    17    18    1
    18    18    19    1
    19    19    20    1
    20    20    21    1
    21    21    22    1
    22    22    23    1
    23    17    24   ar
    24    24    25   ar
    25    25    26    2
    26    25     2   ar
    27    15     7    1
    28    23    18    1
    29    15    10   ar
    30     1    27    1
    31     1    28    1
    32     1    29    1
    33     4    30    1
    34     4    31    1
    35     8    32    1
    36     8    33    1
    37     9    34    1
    38     9    35    1
    39    11    36    1
    40    12    37    1
    41    13    38    1
    42    14    39    1
    43    19    40    1
    44    19    41    1
    45    20    42    1
    46    20    43    1
    47    22    44    1
    48    22    45    1
    49    23    46    1
    50    23    47    1
    51    24    48    1
