
     RDKit          3D

 48 51  0  0  0  0  0  0  0  0999 V2000
    0.3199   -0.3201   -3.4760 C   0  0  0  0  0  0  0  0  0  0  0  0
   -0.7630   -0.2863   -2.5408 N   0  0  0  0  0  0  0  0  0  0  0  0
   -0.5477   -0.4459   -1.2254 C   0  0  0  0  0  0  0  0  0  0  0  0
    0.8901   -0.6609   -0.8044 C   0  0  0  0  0  0  0  0  0  0  0  0
    1.5542    0.5979   -0.5243 C   0  0  0  0  0  0  0  0  0  0  0  0
    0.9234    1.6941   -0.7614 O   0  0  0  0  0  0  0  0  0  0  0  0
    2.8401    0.7196   -0.0085 N   0  0  0  0  0  0  0  0  0  0  0  0
    3.5811    1.9946    0.2361 C   0  0  0  0  0  0  0  0  0  0  0  0
    4.1869    1.6580    1.5762 C   0  0  0  0  0  0  0  0  0  0  0  0
    4.6027    0.2432    1.3835 C   0  0  0  0  0  0  0  0  0  0  0  0
    5.5863   -0.5384    1.9551 C   0  0  0  0  0  0  0  0  0  0  0  0
    5.7600   -1.8603    1.5809 C   0  0  0  0  0  0  0  0  0  0  0  0
    4.9076   -2.3501    0.6171 C   0  0  0  0  0  0  0  0  0  0  0  0
    3.9088   -1.5962    0.0207 C   0  0  0  0  0  0  0  0  0  0  0  0
    3.7474   -0.2790    0.4042 C   0  0  0  0  0  0  0  0  0  0  0  0
   -1.5396   -0.4196   -0.3249 N   0  0  0  0  0  0  0  0  0  0  0  0
   -2.8408   -0.2264   -0.7022 C   0  0  0  0  0  0  0  0  0  0  0  0
   -3.8632   -0.2015    0.2809 N   0  0  0  0  0  0  0  0  0  0  0  0
   -5.2728   -0.1040    0.0238 C   0  0  0  0  0  0  0  0  0  0  0  0
   -5.8104    1.1426    0.6597 C   0  0  0  0  0  0  0  0  0  0  0  0
   -5.1546    1.5717    1.7636 O   0  0  0  0  0  0  0  0  0  0  0  0
   -4.3474    0.7275    2.4348 C   0  0  0  0  0  0  0  0  0  0  0  0
   -3.5478   -0.2713    1.7051 C   0  0  0  0  0  0  0  0  0  0  0  0
   -3.0643   -0.0632   -2.0419 C   0  0  0  0  0  0  0  0  0  0  0  0
   -2.0275   -0.0899   -2.9912 C   0  0  0  0  0  0  0  0  0  0  0  0
   -2.2618    0.0629   -4.2178 O   0  0  0  0  0  0  0  0  0  0  0  0
    1.1765    0.3173   -3.1876 H   0  0  0  0  0  0  0  0  0  0  0  0
    0.7250   -1.3577   -3.5981 H   0  0  0  0  0  0  0  0  0  0  0  0
   -0.0104    0.0183   -4.4801 H   0  0  0  0  0  0  0  0  0  0  0  0
    1.4102   -1.2047   -1.6338 H   0  0  0  0  0  0  0  0  0  0  0  0
    0.8867   -1.3233    0.0685 H   0  0  0  0  0  0  0  0  0  0  0  0
    2.8670    2.8194    0.2805 H   0  0  0  0  0  0  0  0  0  0  0  0
    4.3665    2.0722   -0.5119 H   0  0  0  0  0  0  0  0  0  0  0  0
    3.4322    1.6643    2.3870 H   0  0  0  0  0  0  0  0  0  0  0  0
    5.0701    2.2819    1.8219 H   0  0  0  0  0  0  0  0  0  0  0  0
    6.2365   -0.1018    2.7154 H   0  0  0  0  0  0  0  0  0  0  0  0
    6.5361   -2.4791    2.0311 H   0  0  0  0  0  0  0  0  0  0  0  0
    5.0054   -3.3756    0.2935 H   0  0  0  0  0  0  0  0  0  0  0  0
    3.2685   -2.0278   -0.7307 H   0  0  0  0  0  0  0  0  0  0  0  0
   -5.7534   -1.0005    0.5161 H   0  0  0  0  0  0  0  0  0  0  0  0
   -5.4591   -0.1578   -1.0493 H   0  0  0  0  0  0  0  0  0  0  0  0
   -5.7818    1.9492   -0.1029 H   0  0  0  0  0  0  0  0  0  0  0  0
   -6.8807    0.9809    0.9007 H   0  0  0  0  0  0  0  0  0  0  0  0
   -3.6368    1.3519    3.0554 H   0  0  0  0  0  0  0  0  0  0  0  0
   -4.9687    0.1935    3.2090 H   0  0  0  0  0  0  0  0  0  0  0  0
   -2.4417   -0.1204    1.8373 H   0  0  0  0  0  0  0  0  0  0  0  0
   -3.7488   -1.2956    2.0548 H   0  0  0  0  0  0  0  0  0  0  0  0
   -4.0671    0.0962   -2.4115 H   0  0  0  0  0  0  0  0  0  0  0  0
  1  2  1  0
  2  3  1  0
  3  4  1  0
  4  5  1  0
  5  6  2  0
  5  7  1  0
  7  8  1  0
  8  9  1  0
  9 10  1  0
 10 11  2  0
 11 12  1  0
 12 13  2  0
 13 14  1  0
 14 15  2  0
  3 16  2  0
 16 17  1  0
 17 18  1  0
 18 19  1  0
 19 20  1  0
 20 21  1  0
 21 22  1  0
 22 23  1  0
 17 24  2  0
 24 25  1  0
 25 26  2  0
 25  2  1  0
 15  7  1  0
 23 18  1  0
 15 10  1  0
  1 27  1  0
  1 28  1  0
  1 29  1  0
  4 30  1  0
  4 31  1  0
  8 32  1  0
  8 33  1  0
  9 34  1  0
  9 35  1  0
 11 36  1  0
 12 37  1  0
 13 38  1  0
 14 39  1  0
 19 40  1  0
 19 41  1  0
 20 42  1  0
 20 43  1  0
 22 44  1  0
 22 45  1  0
 23 46  1  0
 23 47  1  0
 24 48  1  0
M  END
$$$$
