@<TRIPOS>MOLECULE
*****
 75 80 0 0 0
SMALL
GASTEIGER

@<TRIPOS>ATOM
      1 C          -0.6883    7.3233    1.6103 C.3     1  UNL1       -0.0151
      2 N          -0.7676    7.1798    0.1307 N.3     1  UNL1       -0.3089
      3 C          -2.0706    6.5542   -0.0722 C.3     1  UNL1        0.0820
      4 C          -2.4586    6.7754   -1.5554 C.3     1  UNL1       -0.0411
      5 C          -2.0386    5.0593    0.0422 C.2     1  UNL1        0.2350
      6 O          -3.2180    4.5297   -0.2217 O.2     1  UNL1       -0.2737
      7 N          -0.9606    4.2548    0.3722 N.am    1  UNL1       -0.2691
      8 C          -1.1903    2.8278    0.3469 C.ar    1  UNL1        0.1263
      9 C          -2.3900    2.1793    0.3489 C.ar    1  UNL1       -0.0208
     10 C          -2.4635    0.8300    0.1076 C.ar    1  UNL1       -0.0466
     11 C          -1.3604    0.0598   -0.1436 C.ar    1  UNL1        0.0349
     12 C          -1.6523   -1.2674   -0.6181 C.ar    1  UNL1        0.0837
     13 C          -2.4156   -2.1841   -0.0097 C.ar    1  UNL1        0.0992
     14 C          -2.9756   -2.4015    1.3111 C.ar    1  UNL1        0.0208
     15 C          -3.1194   -3.7041    1.7107 C.ar    1  UNL1       -0.0460
     16 C          -3.6070   -4.2584    2.7428 C.ar    1  UNL1        0.0006
     17 C          -4.1816   -3.1439    3.8419 C.ar    1  UNL1        0.2144
     18 O          -4.5168   -4.0902    4.7060 O.3     1  UNL1       -0.4796
     19 C          -4.9056   -4.7916    5.6596 C.3     1  UNL1        0.0804
     20 N          -4.0008   -2.0147    3.3632 N.ar    1  UNL1       -0.2207
     21 C          -3.4629   -1.5230    2.2301 C.ar    1  UNL1        0.0406
     22 N          -2.6668   -3.1582   -1.0229 N.ar    1  UNL1       -0.2271
     23 C          -2.0813   -2.8087   -2.1390 C.ar    1  UNL1        0.1390
     24 C          -2.2518   -3.4317   -3.3722 C.ar    1  UNL1       -0.0158
     25 C          -1.7099   -2.8298   -4.4888 C.ar    1  UNL1       -0.0456
     26 C          -2.0808   -3.4033   -5.8182 C.3     1  UNL1       -0.0395
     27 C          -0.9839   -1.6115   -4.3706 C.ar    1  UNL1       -0.0421
     28 C          -0.9316   -1.1408   -3.0458 C.ar    1  UNL1        0.0120
     29 N          -1.4292   -1.6577   -1.9632 N.ar    1  UNL1       -0.2986
     30 C          -0.1984    0.6688   -0.1144 C.ar    1  UNL1        0.1250
     31 C           1.1480    0.0374   -0.1059 C.1     1  UNL1       -0.0404
     32 C           2.2175   -0.4788   -0.0832 C.1     1  UNL1       -0.0595
     33 C           3.4488   -1.0630   -0.0427 C.ar    1  UNL1        0.0259
     34 C           4.0424   -2.1183   -0.4723 C.ar    1  UNL1       -0.0457
     35 C           5.4161   -2.3972   -0.3864 C.ar    1  UNL1       -0.0512
     36 C           6.2790   -1.3887    0.2650 C.ar    1  UNL1        0.0032
     37 C           7.6411   -1.7601    0.2193 C.ar    1  UNL1        0.0459
     38 C           8.2968   -2.8298   -0.4751 C.3     1  UNL1       -0.0218
     39 N           8.3784   -0.6950    0.8925 N.ar    1  UNL1       -0.2595
     40 C           7.8567    0.4130    1.4122 C.ar    1  UNL1        0.0285
     41 C           6.5093    0.6320    1.3372 C.ar    1  UNL1       -0.0358
     42 C           5.7001   -0.3059    0.7373 C.ar    1  UNL1       -0.0136
     43 C           4.3803   -0.1231    0.6131 C.ar    1  UNL1       -0.0385
     44 N          -0.1323    2.0655    0.1232 N.ar    1  UNL1       -0.2229
     45 H           0.0592    8.0609    1.8393 H       1  UNL1        0.0388
     46 H          -0.5208    6.3429    2.0374 H       1  UNL1        0.0388
     47 H          -1.7077    7.7182    1.9520 H       1  UNL1        0.0388
     48 H          -0.8329    8.1529   -0.1960 H       1  UNL1        0.1223
     49 H          -2.8152    7.0100    0.5156 H       1  UNL1        0.0554
     50 H          -1.7647    6.1413   -2.1649 H       1  UNL1        0.0249
     51 H          -3.4968    6.4721   -1.7279 H       1  UNL1        0.0249
     52 H          -2.2924    7.8223   -1.8126 H       1  UNL1        0.0249
     53 H          -0.0222    4.6034    0.5099 H       1  UNL1        0.1563
     54 H          -3.2902    2.7294    0.5958 H       1  UNL1        0.0652
     55 H          -3.4279    0.3375    0.0117 H       1  UNL1        0.0626
     56 H          -2.6982   -4.4680    0.9182 H       1  UNL1        0.0626
     57 H          -3.9022   -5.2295    3.0668 H       1  UNL1        0.0671
     58 H          -4.8375   -4.5681    6.8010 H       1  UNL1        0.0660
     59 H          -5.8706   -5.4138    5.5201 H       1  UNL1        0.0660
     60 H          -4.1709   -5.8144    5.6600 H       1  UNL1        0.0660
     61 H          -3.4968   -0.4481    2.0720 H       1  UNL1        0.0837
     62 H          -2.7941   -4.3572   -3.4450 H       1  UNL1        0.0657
     63 H          -2.9709   -4.1404   -5.6247 H       1  UNL1        0.0278
     64 H          -1.3041   -3.9014   -6.3302 H       1  UNL1        0.0278
     65 H          -2.6923   -2.6185   -6.3670 H       1  UNL1        0.0278
     66 H          -0.5787   -1.1146   -5.1977 H       1  UNL1        0.0635
     67 H          -0.3964   -0.1940   -2.9371 H       1  UNL1        0.0813
     68 H           3.4897   -2.8807   -1.0145 H       1  UNL1        0.0630
     69 H           5.8694   -3.2740   -0.7484 H       1  UNL1        0.0625
     70 H           9.2102   -2.3303   -1.0072 H       1  UNL1        0.0293
     71 H           7.7075   -3.1281   -1.4048 H       1  UNL1        0.0293
     72 H           8.6114   -3.6474    0.1639 H       1  UNL1        0.0293
     73 H           8.5591    1.0862    1.8756 H       1  UNL1        0.0830
     74 H           6.0092    1.5144    1.7456 H       1  UNL1        0.0639
     75 H           3.9635    0.7274    1.0905 H       1  UNL1        0.0636
@<TRIPOS>BOND
     1     1     2    1
     2     2     3    1
     3     3     4    1
     4     3     5    1
     5     5     6    2
     6     5     7   am
     7     7     8    1
     8     8     9   ar
     9     9    10   ar
    10    10    11   ar
    11    11    12    1
    12    12    13   ar
    13    13    14    1
    14    14    15   ar
    15    15    16   ar
    16    16    17   ar
    17    17    18    1
    18    18    19    1
    19    17    20   ar
    20    20    21   ar
    21    13    22   ar
    22    22    23   ar
    23    23    24   ar
    24    24    25   ar
    25    25    26    1
    26    25    27   ar
    27    27    28   ar
    28    28    29   ar
    29    11    30   ar
    30    30    31    1
    31    31    32    3
    32    32    33    1
    33    33    34   ar
    34    34    35   ar
    35    35    36   ar
    36    36    37   ar
    37    37    38    1
    38    37    39   ar
    39    39    40   ar
    40    40    41   ar
    41    41    42   ar
    42    42    43   ar
    43    30    44   ar
    44    44     8   ar
    45    29    12   ar
    46    43    33   ar
    47    21    14   ar
    48    29    23   ar
    49    42    36   ar
    50     1    45    1
    51     1    46    1
    52     1    47    1
    53     2    48    1
    54     3    49    1
    55     4    50    1
    56     4    51    1
    57     4    52    1
    58     7    53    1
    59     9    54    1
    60    10    55    1
    61    15    56    1
    62    16    57    1
    63    19    58    1
    64    19    59    1
    65    19    60    1
    66    21    61    1
    67    24    62    1
    68    26    63    1
    69    26    64    1
    70    26    65    1
    71    27    66    1
    72    28    67    1
    73    34    68    1
    74    35    69    1
    75    38    70    1
    76    38    71    1
    77    38    72    1
    78    40    73    1
    79    41    74    1
    80    43    75    1
