@<TRIPOS>MOLECULE
*****
 47 48 0 0 0
SMALL
GASTEIGER

@<TRIPOS>ATOM
      1 C           8.3296    0.4076   -0.4513 C.3     1  UNL1       -0.0653
      2 C           8.0107   -0.7618    0.4461 C.3     1  UNL1       -0.0558
      3 C           6.6938   -0.5195    1.1383 C.3     1  UNL1       -0.0502
      4 C           5.6292   -0.3709    0.0723 C.3     1  UNL1       -0.0185
      5 C           4.2442   -0.1194    0.6852 C.3     1  UNL1        0.0941
      6 O           3.3590   -0.0022   -0.4142 O.3     1  UNL1       -0.4501
      7 C           2.0196    0.2325   -0.1156 C.2     1  UNL1        0.4057
      8 O           1.8223    0.3020    1.1272 O.2     1  UNL1       -0.2261
      9 N           1.1060    0.3555   -1.1792 N.am    1  UNL1       -0.2331
     10 C          -0.2620    0.5955   -0.8633 C.ar    1  UNL1        0.1699
     11 N          -0.9915   -0.5282   -0.7068 N.ar    1  UNL1       -0.1747
     12 C          -2.3025   -0.4854   -0.4058 C.ar    1  UNL1        0.3524
     13 O          -2.9687   -1.5419   -0.2632 O.2     1  UNL1       -0.2444
     14 N          -2.9135    0.6992   -0.2544 N.ar    1  UNL1       -0.2672
     15 C          -2.2300    1.8698   -0.3999 C.ar    1  UNL1        0.0506
     16 C          -0.8852    1.8233   -0.7086 C.ar    1  UNL1        0.1797
     17 F          -0.0863    2.9026   -0.8815 F       1  UNL1       -0.2003
     18 C          -4.3193    0.7417    0.0683 C.3     1  UNL1        0.1680
     19 O          -4.6664   -0.1654    1.0590 O.3     1  UNL1       -0.3482
     20 C          -6.0611   -0.1179    1.0596 C.3     1  UNL1        0.0869
     21 C          -6.6596   -1.2225    1.8999 C.3     1  UNL1       -0.0361
     22 C          -6.3937   -0.2921   -0.4148 C.3     1  UNL1        0.1111
     23 O          -7.5828    0.3470   -0.7141 O.3     1  UNL1       -0.3865
     24 C          -5.1881    0.3272   -1.0853 C.3     1  UNL1        0.1285
     25 O          -5.5596    1.4280   -1.8490 O.3     1  UNL1       -0.3847
     26 H           9.4203    0.6441   -0.3137 H       1  UNL1        0.0230
     27 H           7.7592    1.3315   -0.1767 H       1  UNL1        0.0230
     28 H           8.1642    0.1045   -1.5020 H       1  UNL1        0.0230
     29 H           7.9333   -1.6897   -0.1485 H       1  UNL1        0.0263
     30 H           8.7695   -0.8389    1.2550 H       1  UNL1        0.0263
     31 H           6.7611    0.3783    1.7724 H       1  UNL1        0.0266
     32 H           6.4300   -1.3552    1.8037 H       1  UNL1        0.0266
     33 H           5.9351    0.4962   -0.5473 H       1  UNL1        0.0298
     34 H           5.5539   -1.2527   -0.5638 H       1  UNL1        0.0298
     35 H           3.9890   -0.9136    1.3927 H       1  UNL1        0.0698
     36 H           4.2688    0.8514    1.2575 H       1  UNL1        0.0698
     37 H           1.4561    0.2679   -2.1587 H       1  UNL1        0.1597
     38 H          -2.6850    2.8478   -0.2862 H       1  UNL1        0.0842
     39 H          -4.6322    1.7573    0.3541 H       1  UNL1        0.0867
     40 H          -6.3269    0.8855    1.4344 H       1  UNL1        0.0621
     41 H          -6.6703   -2.1440    1.3156 H       1  UNL1        0.0255
     42 H          -6.0395   -1.3266    2.8320 H       1  UNL1        0.0255
     43 H          -7.6810   -0.9346    2.2165 H       1  UNL1        0.0255
     44 H          -6.4695   -1.3771   -0.5968 H       1  UNL1        0.0646
     45 H          -7.6702    0.4839   -1.6786 H       1  UNL1        0.2100
     46 H          -4.6826   -0.4172   -1.7468 H       1  UNL1        0.0665
     47 H          -5.7273    1.1197   -2.7639 H       1  UNL1        0.2101
@<TRIPOS>BOND
     1     1     2    1
     2     2     3    1
     3     3     4    1
     4     4     5    1
     5     5     6    1
     6     6     7    1
     7     7     8    2
     8     7     9   am
     9     9    10    1
    10    10    11   ar
    11    11    12   ar
    12    12    13    2
    13    12    14   ar
    14    14    15   ar
    15    15    16   ar
    16    16    17    1
    17    14    18    1
    18    18    19    1
    19    19    20    1
    20    20    21    1
    21    20    22    1
    22    22    23    1
    23    22    24    1
    24    24    25    1
    25    16    10   ar
    26    24    18    1
    27     1    26    1
    28     1    27    1
    29     1    28    1
    30     2    29    1
    31     2    30    1
    32     3    31    1
    33     3    32    1
    34     4    33    1
    35     4    34    1
    36     5    35    1
    37     5    36    1
    38     9    37    1
    39    15    38    1
    40    18    39    1
    41    20    40    1
    42    21    41    1
    43    21    42    1
    44    21    43    1
    45    22    44    1
    46    23    45    1
    47    24    46    1
    48    25    47    1
