@<TRIPOS>MOLECULE
*****
 47 47 0 0 0
SMALL
GASTEIGER

@<TRIPOS>ATOM
      1 C           2.9569    1.2784    2.6700 C.3     0  UNK0       -0.0626
      2 C           2.6004    0.3268    1.5676 C.3     0  UNK0       -0.0457
      3 C           2.1905   -1.0296    2.0721 C.3     0  UNK0       -0.0626
      4 C           1.4475    0.8873    0.7095 C.3     0  UNK0       -0.0383
      5 C           1.2033   -0.1499   -0.3324 C.3     0  UNK0        0.0139
      6 S           2.7842   -0.2916   -1.2734 S.3     0  UNK0       -0.1741
      7 C           0.1353    0.1369   -1.3301 C.3     0  UNK0        0.0511
      8 C           0.0082   -0.9937   -2.2913 C.3     0  UNK0       -0.0156
      9 C          -0.3502   -2.3101   -1.7494 C.ar    0  UNK0       -0.0466
     10 C           0.5758   -3.1966   -1.2427 C.ar    0  UNK0       -0.0586
     11 C           0.2224   -4.4570   -0.7504 C.ar    0  UNK0       -0.0615
     12 C          -1.0897   -4.8491   -0.7619 C.ar    0  UNK0       -0.0617
     13 C          -2.0394   -3.9872   -1.2624 C.ar    0  UNK0       -0.0615
     14 C          -1.6591   -2.7417   -1.7449 C.ar    0  UNK0       -0.0586
     15 C          -1.1077    0.6938   -0.8022 C.2     0  UNK0        0.2181
     16 O          -2.2156    0.0870   -0.7851 O.2     0  UNK0       -0.2754
     17 N          -1.1903    2.0142   -0.2423 N.am    1  ALA1       -0.3023
     18 CA         -2.4217    2.5656    0.2831 C.3     1  ALA1        0.1174
     19 CB         -2.3261    2.9069    1.7404 C.3     1  ALA1       -0.0362
     20 C          -2.8419    3.7829   -0.4499 C.2     1  ALA1        0.3250
     21 O          -3.9030    4.3401   -0.0698 O.2     1  ALA1       -0.2489
     22 OXT        -2.1620    4.3385   -1.5026 O.3     1  ALA1       -0.4793
     23 H           3.8951    1.8278    2.4021 H       0  UNK0        0.0232
     24 H           2.1728    2.0479    2.8088 H       0  UNK0        0.0232
     25 H           3.1558    0.7063    3.5901 H       0  UNK0        0.0232
     26 H           3.4538    0.1845    0.8739 H       0  UNK0        0.0296
     27 H           2.6782   -1.2593    3.0564 H       0  UNK0        0.0232
     28 H           2.5157   -1.8316    1.3844 H       0  UNK0        0.0232
     29 H           1.0970   -1.0887    2.2244 H       0  UNK0        0.0232
     30 H           1.7746    1.8587    0.2731 H       0  UNK0        0.0278
     31 H           0.5812    1.0438    1.3450 H       0  UNK0        0.0278
     32 H           1.0434   -1.1244    0.1566 H       0  UNK0        0.0417
     33 H           2.7622    0.6865   -2.3012 H       0  UNK0        0.1019
     34 H           0.5853    0.9958   -1.9671 H       0  UNK0        0.0408
     35 H           0.9879   -1.1573   -2.8440 H       0  UNK0        0.0321
     36 H          -0.6788   -0.7073   -3.1548 H       0  UNK0        0.0321
     37 H           1.6469   -2.9668   -1.2073 H       0  UNK0        0.0620
     38 H           0.9733   -5.1144   -0.3654 H       0  UNK0        0.0618
     39 H          -1.3890   -5.8379   -0.3782 H       0  UNK0        0.0618
     40 H          -3.0658   -4.3285   -1.2568 H       0  UNK0        0.0618
     41 H          -2.4370   -2.1390   -2.1351 H       0  UNK0        0.0620
     42 H          -0.3588    2.6241   -0.2045 H       1  ALA1        0.1495
     43 HA         -3.2335    1.8123    0.1729 H       1  ALA1        0.0611
     44 HB1        -2.5145    2.0006    2.3491 H       1  ALA1        0.0253
     45 HB2        -1.3219    3.3415    1.9350 H       1  ALA1        0.0253
     46 HB3        -3.0653    3.7100    1.9480 H       1  ALA1        0.0253
     47 HXT        -2.0763    5.3636   -1.5845 H       1  ALA1        0.2951
@<TRIPOS>BOND
     1     1     2    1
     2     2     3    1
     3     2     4    1
     4     4     5    1
     5     5     6    1
     6     5     7    1
     7     7     8    1
     8     8     9    1
     9     9    10   ar
    10    10    11   ar
    11    11    12   ar
    12    12    13   ar
    13    13    14   ar
    14     7    15    1
    15    15    16    2
    16    15    17   am
    17    17    18    1
    18    18    19    1
    19    18    20    1
    20    20    21    2
    21    20    22    1
    22    14     9   ar
    23     1    23    1
    24     1    24    1
    25     1    25    1
    26     2    26    1
    27     3    27    1
    28     3    28    1
    29     3    29    1
    30     4    30    1
    31     4    31    1
    32     5    32    1
    33     6    33    1
    34     7    34    1
    35     8    35    1
    36     8    36    1
    37    10    37    1
    38    11    38    1
    39    12    39    1
    40    13    40    1
    41    14    41    1
    42    17    42    1
    43    18    43    1
    44    19    44    1
    45    19    45    1
    46    19    46    1
    47    22    47    1
