
     RDKit          3D

 37 39  0  0  0  0  0  0  0  0999 V2000
    3.2697    2.8545    1.8681 C   0  0  0  0  0  0  0  0  0  0  0  0
    2.6099    1.8372    1.0086 C   0  0  0  0  0  0  0  0  0  0  0  0
    1.3105    1.7087    0.6886 N   0  0  0  0  0  0  0  0  0  0  0  0
    1.0946    0.6754   -0.1056 N   0  0  0  0  0  0  0  0  0  0  0  0
   -0.1340    0.2139   -0.6571 C   0  0  0  0  0  0  0  0  0  0  0  0
   -0.2434    0.0490   -2.0205 C   0  0  0  0  0  0  0  0  0  0  0  0
   -1.4073   -0.3894   -2.5555 N   0  0  0  0  0  0  0  0  0  0  0  0
   -2.4550   -0.6632   -1.7542 C   0  0  0  0  0  0  0  0  0  0  0  0
   -2.4060   -0.5179   -0.3849 C   0  0  0  0  0  0  0  0  0  0  0  0
   -3.5931   -0.8372    0.4272 C   0  0  0  0  0  0  0  0  0  0  0  0
   -4.4957    0.3681    0.6165 C   0  0  0  0  0  0  0  0  0  0  0  0
   -4.3973   -1.9793   -0.1451 C   0  0  0  0  0  0  0  0  0  0  0  0
   -3.1682   -1.2610    1.7065 O   0  0  0  0  0  0  0  0  0  0  0  0
   -1.2028   -0.0653    0.1624 C   0  0  0  0  0  0  0  0  0  0  0  0
    2.3160    0.1194   -0.3004 C   0  0  0  0  0  0  0  0  0  0  0  0
    2.7275   -0.9855   -1.0380 C   0  0  0  0  0  0  0  0  0  0  0  0
    4.0462   -1.3851   -1.1014 C   0  0  0  0  0  0  0  0  0  0  0  0
    5.0181   -0.6832   -0.4185 C   0  0  0  0  0  0  0  0  0  0  0  0
    4.6116    0.4135    0.3140 C   0  0  0  0  0  0  0  0  0  0  0  0
    5.5522    1.1157    0.9917 F   0  0  0  0  0  0  0  0  0  0  0  0
    3.2933    0.8155    0.3792 C   0  0  0  0  0  0  0  0  0  0  0  0
    3.6282    3.7282    1.2874 H   0  0  0  0  0  0  0  0  0  0  0  0
    2.5674    3.2055    2.6453 H   0  0  0  0  0  0  0  0  0  0  0  0
    4.1290    2.3836    2.4301 H   0  0  0  0  0  0  0  0  0  0  0  0
    0.6198    0.2759   -2.6670 H   0  0  0  0  0  0  0  0  0  0  0  0
   -3.3679   -1.0103   -2.2080 H   0  0  0  0  0  0  0  0  0  0  0  0
   -3.8800    1.2896    0.4661 H   0  0  0  0  0  0  0  0  0  0  0  0
   -5.2807    0.3978   -0.1904 H   0  0  0  0  0  0  0  0  0  0  0  0
   -4.9338    0.3123    1.6190 H   0  0  0  0  0  0  0  0  0  0  0  0
   -5.3027   -1.5496   -0.6190 H   0  0  0  0  0  0  0  0  0  0  0  0
   -3.8130   -2.5676   -0.8910 H   0  0  0  0  0  0  0  0  0  0  0  0
   -4.7591   -2.6719    0.6588 H   0  0  0  0  0  0  0  0  0  0  0  0
   -3.0908   -0.4621    2.2861 H   0  0  0  0  0  0  0  0  0  0  0  0
   -1.1708    0.0464    1.2346 H   0  0  0  0  0  0  0  0  0  0  0  0
    1.9325   -1.5232   -1.5699 H   0  0  0  0  0  0  0  0  0  0  0  0
    4.3135   -2.2636   -1.6982 H   0  0  0  0  0  0  0  0  0  0  0  0
    6.0617   -0.9947   -0.4652 H   0  0  0  0  0  0  0  0  0  0  0  0
  1  2  1  0
  2  3  2  0
  3  4  1  0
  4  5  1  0
  5  6  2  0
  6  7  1  0
  7  8  2  0
  8  9  1  0
  9 10  1  0
 10 11  1  0
 10 12  1  0
 10 13  1  0
  9 14  2  0
  4 15  1  0
 15 16  2  0
 16 17  1  0
 17 18  2  0
 18 19  1  0
 19 20  1  0
 19 21  2  0
 21  2  1  0
 14  5  1  0
 21 15  1  0
  1 22  1  0
  1 23  1  0
  1 24  1  0
  6 25  1  0
  8 26  1  0
 11 27  1  0
 11 28  1  0
 11 29  1  0
 12 30  1  0
 12 31  1  0
 12 32  1  0
 13 33  1  0
 14 34  1  0
 16 35  1  0
 17 36  1  0
 18 37  1  0
M  END
$$$$
