@<TRIPOS>MOLECULE
*****
 37 39 0 0 0
SMALL
GASTEIGER

@<TRIPOS>ATOM
      1 C           3.2697    2.8545    1.8681 C.3     1  UNL1       -0.0199
      2 C           2.6099    1.8372    1.0086 C.ar    1  UNL1        0.0708
      3 N           1.3105    1.7087    0.6886 N.ar    1  UNL1       -0.1704
      4 N           1.0946    0.6754   -0.1056 N.ar    1  UNL1       -0.2303
      5 C          -0.1340    0.2139   -0.6571 C.ar    1  UNL1        0.0844
      6 C          -0.2434    0.0490   -2.0205 C.ar    1  UNL1        0.0530
      7 N          -1.4073   -0.3894   -2.5555 N.ar    1  UNL1       -0.2608
      8 C          -2.4550   -0.6632   -1.7542 C.ar    1  UNL1        0.0336
      9 C          -2.4060   -0.5179   -0.3849 C.ar    1  UNL1        0.0035
     10 C          -3.5931   -0.8372    0.4272 C.3     1  UNL1        0.0868
     11 C          -4.4957    0.3681    0.6165 C.3     1  UNL1       -0.0321
     12 C          -4.3973   -1.9793   -0.1451 C.3     1  UNL1       -0.0321
     13 O          -3.1682   -1.2610    1.7065 O.3     1  UNL1       -0.3845
     14 C          -1.2028   -0.0653    0.1624 C.ar    1  UNL1       -0.0274
     15 C           2.3160    0.1194   -0.3004 C.ar    1  UNL1        0.0777
     16 C           2.7275   -0.9855   -1.0380 C.ar    1  UNL1       -0.0354
     17 C           4.0462   -1.3851   -1.1014 C.ar    1  UNL1       -0.0570
     18 C           5.0181   -0.6832   -0.4185 C.ar    1  UNL1       -0.0257
     19 C           4.6116    0.4135    0.3140 C.ar    1  UNL1        0.1343
     20 F           5.5522    1.1157    0.9917 F       1  UNL1       -0.2047
     21 C           3.2933    0.8155    0.3792 C.ar    1  UNL1        0.0582
     22 H           3.6282    3.7282    1.2874 H       1  UNL1        0.0293
     23 H           2.5674    3.2055    2.6453 H       1  UNL1        0.0293
     24 H           4.1290    2.3836    2.4301 H       1  UNL1        0.0293
     25 H           0.6198    0.2759   -2.6670 H       1  UNL1        0.0851
     26 H          -3.3679   -1.0103   -2.2080 H       1  UNL1        0.0833
     27 H          -3.8800    1.2896    0.4661 H       1  UNL1        0.0260
     28 H          -5.2807    0.3978   -0.1904 H       1  UNL1        0.0260
     29 H          -4.9338    0.3123    1.6190 H       1  UNL1        0.0260
     30 H          -5.3027   -1.5496   -0.6190 H       1  UNL1        0.0260
     31 H          -3.8130   -2.5676   -0.8910 H       1  UNL1        0.0260
     32 H          -4.7591   -2.6719    0.6588 H       1  UNL1        0.0260
     33 H          -3.0908   -0.4621    2.2861 H       1  UNL1        0.2106
     34 H          -1.1708    0.0464    1.2346 H       1  UNL1        0.0643
     35 H           1.9325   -1.5232   -1.5699 H       1  UNL1        0.0639
     36 H           4.3135   -2.2636   -1.6982 H       1  UNL1        0.0619
     37 H           6.0617   -0.9947   -0.4652 H       1  UNL1        0.0646
@<TRIPOS>BOND
     1     1     2    1
     2     2     3   ar
     3     3     4   ar
     4     4     5    1
     5     5     6   ar
     6     6     7   ar
     7     7     8   ar
     8     8     9   ar
     9     9    10    1
    10    10    11    1
    11    10    12    1
    12    10    13    1
    13     9    14   ar
    14     4    15   ar
    15    15    16   ar
    16    16    17   ar
    17    17    18   ar
    18    18    19   ar
    19    19    20    1
    20    19    21   ar
    21    21     2   ar
    22    14     5   ar
    23    21    15   ar
    24     1    22    1
    25     1    23    1
    26     1    24    1
    27     6    25    1
    28     8    26    1
    29    11    27    1
    30    11    28    1
    31    11    29    1
    32    12    30    1
    33    12    31    1
    34    12    32    1
    35    13    33    1
    36    14    34    1
    37    16    35    1
    38    17    36    1
    39    18    37    1
