@<TRIPOS>MOLECULE
*****
 91 94 0 0 0
SMALL
GASTEIGER

@<TRIPOS>ATOM
      1 C           8.0862   -0.5780   -1.3337 C.3     1  UNL1        0.0366
      2 O           6.7388   -0.1674   -1.2586 O.3     1  UNL1       -0.3796
      3 C           6.7653    1.2184   -1.0810 C.3     1  UNL1        0.0814
      4 C           5.4000    1.8109   -0.9865 C.3     1  UNL1        0.1129
      5 O           4.5771    1.3906    0.0149 O.3     1  UNL1       -0.4878
      6 C           4.6215    1.4398    1.3705 C.ar    1  UNL1        0.1415
      7 C           5.6496    2.0207    2.0773 C.ar    1  UNL1       -0.0181
      8 C           5.6401    2.0441    3.4637 C.ar    1  UNL1       -0.0582
      9 C           4.6038    1.4885    4.1782 C.ar    1  UNL1       -0.0598
     10 C           3.5628    0.9011    3.4882 C.ar    1  UNL1       -0.0371
     11 C           3.5747    0.8793    2.1241 C.ar    1  UNL1        0.0720
     12 N           2.5126    0.2686    1.3788 N.pl3   1  UNL1       -0.3241
     13 C           2.7944   -0.8592    0.5728 C.3     1  UNL1        0.0281
     14 C           1.9961   -1.0772   -0.6505 C.3     1  UNL1        0.0306
     15 N           0.6718   -0.4116   -0.6037 N.am    1  UNL1       -0.2952
     16 C          -0.4223   -1.0765   -1.0915 C.2     1  UNL1        0.2614
     17 O          -0.0297   -2.2498   -1.5659 O.2     1  UNL1       -0.2711
     18 C          -1.8729   -0.8368   -1.2217 C.3     1  UNL1        0.2039
     19 O          -2.3873   -2.0033   -1.7482 O.3     1  UNL1       -0.4746
     20 C          -2.8134   -3.1090   -2.1343 C.ar    1  UNL1        0.1221
     21 C          -3.4953   -3.1600   -3.3749 C.ar    1  UNL1       -0.0194
     22 C          -4.0091   -4.2847   -3.9157 C.ar    1  UNL1       -0.0467
     23 C          -3.8848   -5.4707   -3.2552 C.ar    1  UNL1        0.0550
     24 C          -4.4506   -6.6816   -3.8597 C.3     1  UNL1        0.4174
     25 F          -4.8433   -7.5929   -2.8981 F       1  UNL1       -0.1659
     26 F          -5.6004   -6.3540   -4.5896 F       1  UNL1       -0.1659
     27 F          -3.5414   -7.3312   -4.6759 F       1  UNL1       -0.1659
     28 C          -3.2225   -5.4879   -2.0256 C.ar    1  UNL1       -0.0467
     29 C          -2.7096   -4.3469   -1.4931 C.ar    1  UNL1       -0.0194
     30 C          -2.0379    0.0949   -2.4117 C.3     1  UNL1       -0.0009
     31 C          -2.1215    1.5312   -2.1831 C.3     1  UNL1       -0.0330
     32 C          -2.8241    1.9587   -0.9480 C.3     1  UNL1        0.0156
     33 N          -2.6060    1.0479    0.1751 N.am    1  UNL1       -0.2900
     34 C          -2.4277    1.6962    1.4201 C.2     1  UNL1        0.2490
     35 O          -2.2098    1.0695    2.4546 O.2     1  UNL1       -0.2699
     36 C          -2.4993    3.1441    1.5265 C.ar    1  UNL1        0.0666
     37 C          -1.3898    3.9258    1.3054 C.ar    1  UNL1        0.0402
     38 N          -1.5028    5.2629    1.4002 N.ar    1  UNL1       -0.2625
     39 C          -2.6759    5.8419    1.7061 C.ar    1  UNL1        0.0281
     40 C          -3.8010    5.0780    1.9326 C.ar    1  UNL1       -0.0312
     41 C          -3.7292    3.7035    1.8460 C.ar    1  UNL1        0.0698
     42 C          -4.9302    2.8751    2.1212 C.3     1  UNL1        0.4182
     43 F          -4.7051    2.0239    3.1916 F       1  UNL1       -0.1659
     44 F          -5.9268    3.7558    2.5753 F       1  UNL1       -0.1659
     45 F          -5.4303    2.2622    1.0250 F       1  UNL1       -0.1659
     46 C          -2.6567   -0.3371   -0.0870 C.3     1  UNL1        0.0767
     47 C          -2.9315   -1.2620    1.0404 C.3     1  UNL1       -0.0068
     48 C          -1.8949   -1.9043    1.8347 C.3     1  UNL1        0.0460
     49 O          -0.9882   -2.7368    1.2184 O.3     1  UNL1       -0.3949
     50 C           0.7313    0.9050   -0.0321 C.3     1  UNL1        0.0306
     51 C           1.1466    0.7890    1.4298 C.3     1  UNL1        0.0281
     52 CL          0.6859    0.0000    0.0000 Cl      2  UNL2       -0.1454
     53 H           8.1583   -1.6794   -1.4769 H       1  UNL1        0.0524
     54 H           8.5493   -0.3241   -0.3784 H       1  UNL1        0.0524
     55 H           8.6229   -0.0836   -2.1633 H       1  UNL1        0.0524
     56 H           7.2087    1.6047   -2.0539 H       1  UNL1        0.0593
     57 H           7.4697    1.5464   -0.3057 H       1  UNL1        0.0593
     58 H           4.9016    1.7091   -1.9958 H       1  UNL1        0.0720
     59 H           5.5685    2.9360   -0.9007 H       1  UNL1        0.0720
     60 H           6.4941    2.4875    1.5463 H       1  UNL1        0.0655
     61 H           6.4759    2.5141    3.9829 H       1  UNL1        0.0619
     62 H           4.6596    1.5425    5.2589 H       1  UNL1        0.0618
     63 H           2.7338    0.4566    4.0617 H       1  UNL1        0.0637
     64 H           3.8908   -0.8221    0.2980 H       1  UNL1        0.0479
     65 H           2.7470   -1.7622    1.2552 H       1  UNL1        0.0479
     66 H           1.8676   -2.1703   -0.7919 H       1  UNL1        0.0480
     67 H           2.5127   -0.6091   -1.5170 H       1  UNL1        0.0480
     68 H          -3.6287   -2.2320   -3.9576 H       1  UNL1        0.0654
     69 H          -4.5294   -4.2786   -4.8781 H       1  UNL1        0.0624
     70 H          -3.1529   -6.4691   -1.5374 H       1  UNL1        0.0624
     71 H          -2.2077   -4.3708   -0.5586 H       1  UNL1        0.0654
     72 H          -3.0418   -0.2169   -2.8639 H       1  UNL1        0.0310
     73 H          -1.3357   -0.1859   -3.2349 H       1  UNL1        0.0310
     74 H          -1.1322    2.0061   -2.2815 H       1  UNL1        0.0282
     75 H          -2.7093    1.9925   -3.0391 H       1  UNL1        0.0282
     76 H          -3.9204    2.0193   -1.0966 H       1  UNL1        0.0465
     77 H          -2.4743    2.9534   -0.6468 H       1  UNL1        0.0465
     78 H          -0.4110    3.4745    1.0610 H       1  UNL1        0.0837
     79 H          -2.7764    6.9285    1.7859 H       1  UNL1        0.0829
     80 H          -4.7582    5.5512    2.1823 H       1  UNL1        0.0638
     81 H          -3.7665   -0.3633   -0.5748 H       1  UNL1        0.0546
     82 H          -3.5615   -0.6836    1.7880 H       1  UNL1        0.0307
     83 H          -3.7055   -2.0147    0.6838 H       1  UNL1        0.0307
     84 H          -2.4729   -2.6282    2.5286 H       1  UNL1        0.0558
     85 H          -1.3400   -1.3069    2.5737 H       1  UNL1        0.0558
     86 H          -0.6770   -3.4635    1.8484 H       1  UNL1        0.2094
     87 H           1.6666    1.3758   -0.5179 H       1  UNL1        0.0480
     88 H          -0.0678    1.5832   -0.2315 H       1  UNL1        0.0480
     89 H           1.1476    1.7944    1.8626 H       1  UNL1        0.0479
     90 H           0.4928    0.0794    1.9351 H       1  UNL1        0.0479
     91 H          -0.6859    0.0000    0.0000 H       1  UNL1        0.1454
@<TRIPOS>BOND
     1     1     2    1
     2     2     3    1
     3     3     4    1
     4     4     5    1
     5     5     6    1
     6     6     7   ar
     7     7     8   ar
     8     8     9   ar
     9     9    10   ar
    10    10    11   ar
    11    11    12    1
    12    12    13    1
    13    13    14    1
    14    14    15    1
    15    15    16   am
    16    16    17    2
    17    16    18    1
    18    18    19    1
    19    19    20    1
    20    20    21   ar
    21    21    22   ar
    22    22    23   ar
    23    23    24    1
    24    24    25    1
    25    24    26    1
    26    24    27    1
    27    23    28   ar
    28    28    29   ar
    29    18    30    1
    30    30    31    1
    31    31    32    1
    32    32    33    1
    33    33    34   am
    34    34    35    2
    35    34    36    1
    36    36    37   ar
    37    37    38   ar
    38    38    39   ar
    39    39    40   ar
    40    40    41   ar
    41    41    42    1
    42    42    43    1
    43    42    44    1
    44    42    45    1
    45    33    46    1
    46    46    47    1
    47    47    48    1
    48    48    49    1
    49    15    50    1
    50    50    51    1
    51    11     6   ar
    52    51    12    1
    53    46    18    1
    54    29    20   ar
    55    41    36   ar
    56     1    53    1
    57     1    54    1
    58     1    55    1
    59     3    56    1
    60     3    57    1
    61     4    58    1
    62     4    59    1
    63     7    60    1
    64     8    61    1
    65     9    62    1
    66    10    63    1
    67    13    64    1
    68    13    65    1
    69    14    66    1
    70    14    67    1
    71    21    68    1
    72    22    69    1
    73    28    70    1
    74    29    71    1
    75    30    72    1
    76    30    73    1
    77    31    74    1
    78    31    75    1
    79    32    76    1
    80    32    77    1
    81    37    78    1
    82    39    79    1
    83    40    80    1
    84    46    81    1
    85    47    82    1
    86    47    83    1
    87    48    84    1
    88    48    85    1
    89    49    86    1
    90    50    87    1
    91    50    88    1
    92    51    89    1
    93    51    90    1
    94    52    91    1
