@<TRIPOS>MOLECULE
*****
 49 50 0 0 0
SMALL
GASTEIGER

@<TRIPOS>ATOM
      1 C          -7.8509    0.9072   -2.4858 C.3     1  UNL1        0.0125
      2 C          -6.7184    0.4643   -1.6387 C.2     1  UNL1        0.2141
      3 O          -6.7345   -0.7680   -1.4512 O.2     1  UNL1       -0.2758
      4 N          -5.7186    1.2640   -1.0826 N.am    1  UNL1       -0.2857
      5 C          -4.6115    0.9258   -0.2696 C.ar    1  UNL1        0.0336
      6 C          -4.3559   -0.3663    0.1140 C.ar    1  UNL1       -0.0370
      7 C          -3.2710   -0.5912    0.8944 C.ar    1  UNL1       -0.0182
      8 C          -2.3857    0.3234    1.3532 C.ar    1  UNL1        0.1208
      9 O          -1.2908    0.3555    2.0952 O.3     1  UNL1       -0.4886
     10 C          -0.4430   -0.4348    2.7823 C.3     1  UNL1        0.1265
     11 C           0.3423   -1.4647    2.0443 C.3     1  UNL1        0.1726
     12 C          -0.4200   -2.4600    1.2558 C.3     1  UNL1       -0.0242
     13 O           1.1566   -2.1365    2.9954 O.3     1  UNL1       -0.3764
     14 C           1.2319   -0.7117    1.0887 C.2     1  UNL1        0.2520
     15 O           0.7645   -0.0173    0.1222 O.2     1  UNL1       -0.2722
     16 N           2.6411   -0.7728    1.2641 N.am    1  UNL1       -0.2830
     17 C           3.6691   -0.1558    0.5006 C.ar    1  UNL1        0.0344
     18 C           4.2430   -0.7946   -0.5999 C.ar    1  UNL1       -0.0222
     19 C           5.2493   -0.1917   -1.3475 C.ar    1  UNL1        0.1333
     20 C           5.6575    1.0620   -0.9586 C.ar    1  UNL1        0.2849
     21 C           5.1181    1.7304    0.1221 C.ar    1  UNL1        0.0179
     22 C           4.1177    1.1199    0.8578 C.ar    1  UNL1       -0.0340
     23 N           6.6805    1.7594   -1.6606 N.pl3   1  UNL1        0.0802
     24 O           7.1294    1.7386   -2.9436 O.co2   1  UNL1       -0.5760
     25 O           7.4159    2.6104   -1.1219 O.2     1  UNL1        0.0415
     26 C           5.8673   -0.8766   -2.5291 C.3     1  UNL1        0.4237
     27 F           7.2197   -0.9869   -2.2143 F       1  UNL1       -0.1656
     28 F           5.6335   -0.2395   -3.7093 F       1  UNL1       -0.1656
     29 F           5.3260   -2.1534   -2.6147 F       1  UNL1       -0.1656
     30 C          -2.6833    1.6355    0.9378 C.ar    1  UNL1       -0.0182
     31 C          -3.7872    1.9459    0.1312 C.ar    1  UNL1       -0.0370
     32 H          -8.7853    0.5474   -1.9821 H       1  UNL1        0.0323
     33 H          -7.8074    0.4714   -3.4931 H       1  UNL1        0.0323
     34 H          -7.9120    2.0204   -2.5102 H       1  UNL1        0.0323
     35 H          -5.8947    2.2615   -1.3643 H       1  UNL1        0.1548
     36 H          -4.9575   -1.2135   -0.1621 H       1  UNL1        0.0637
     37 H          -3.0615   -1.5951    1.2199 H       1  UNL1        0.0655
     38 H          -0.8960   -0.9560    3.6749 H       1  UNL1        0.0731
     39 H           0.3314    0.2407    3.2897 H       1  UNL1        0.0731
     40 H           0.2975   -3.2732    0.9635 H       1  UNL1        0.0263
     41 H          -0.8116   -2.0781    0.2966 H       1  UNL1        0.0263
     42 H          -1.2082   -2.9769    1.8446 H       1  UNL1        0.0263
     43 H           1.5280   -2.9129    2.5052 H       1  UNL1        0.2109
     44 H           3.1131   -1.3113    2.0209 H       1  UNL1        0.1549
     45 H           3.9004   -1.7961   -0.8915 H       1  UNL1        0.0644
     46 H           5.4383    2.7232    0.4337 H       1  UNL1        0.0686
     47 H           3.6623    1.6000    1.7129 H       1  UNL1        0.0638
     48 H          -2.1168    2.5530    1.1786 H       1  UNL1        0.0655
     49 H          -4.0129    2.9749   -0.1892 H       1  UNL1        0.0637
@<TRIPOS>UNITY_ATOM_ATTR
23 1
charge 1
24 1
charge -1
@<TRIPOS>BOND
     1     1     2    1
     2     2     3    2
     3     2     4   am
     4     4     5    1
     5     5     6   ar
     6     6     7   ar
     7     7     8   ar
     8     8     9    1
     9     9    10    1
    10    10    11    1
    11    11    12    1
    12    11    13    1
    13    11    14    1
    14    14    15    2
    15    14    16   am
    16    16    17    1
    17    17    18   ar
    18    18    19   ar
    19    19    20   ar
    20    20    21   ar
    21    21    22   ar
    22    20    23    1
    23    23    24    1
    24    23    25    2
    25    19    26    1
    26    26    27    1
    27    26    28    1
    28    26    29    1
    29     8    30   ar
    30    30    31   ar
    31    31     5   ar
    32    22    17   ar
    33     1    32    1
    34     1    33    1
    35     1    34    1
    36     4    35    1
    37     6    36    1
    38     7    37    1
    39    10    38    1
    40    10    39    1
    41    12    40    1
    42    12    41    1
    43    12    42    1
    44    13    43    1
    45    16    44    1
    46    18    45    1
    47    21    46    1
    48    22    47    1
    49    30    48    1
    50    31    49    1
