
     RDKit          3D

 49 50  0  0  0  0  0  0  0  0999 V2000
   -7.8509    0.9072   -2.4858 C   0  0  0  0  0  0  0  0  0  0  0  0
   -6.7184    0.4643   -1.6387 C   0  0  0  0  0  0  0  0  0  0  0  0
   -6.7345   -0.7680   -1.4512 O   0  0  0  0  0  0  0  0  0  0  0  0
   -5.7186    1.2640   -1.0826 N   0  0  0  0  0  0  0  0  0  0  0  0
   -4.6115    0.9258   -0.2696 C   0  0  0  0  0  0  0  0  0  0  0  0
   -4.3559   -0.3663    0.1140 C   0  0  0  0  0  0  0  0  0  0  0  0
   -3.2710   -0.5912    0.8944 C   0  0  0  0  0  0  0  0  0  0  0  0
   -2.3857    0.3234    1.3532 C   0  0  0  0  0  0  0  0  0  0  0  0
   -1.2908    0.3555    2.0952 O   0  0  0  0  0  0  0  0  0  0  0  0
   -0.4430   -0.4348    2.7823 C   0  0  0  0  0  0  0  0  0  0  0  0
    0.3423   -1.4647    2.0443 C   0  0  2  0  0  0  0  0  0  0  0  0
   -0.4200   -2.4600    1.2558 C   0  0  0  0  0  0  0  0  0  0  0  0
    1.1566   -2.1365    2.9954 O   0  0  0  0  0  0  0  0  0  0  0  0
    1.2319   -0.7117    1.0887 C   0  0  0  0  0  0  0  0  0  0  0  0
    0.7645   -0.0173    0.1222 O   0  0  0  0  0  0  0  0  0  0  0  0
    2.6411   -0.7728    1.2641 N   0  0  0  0  0  0  0  0  0  0  0  0
    3.6691   -0.1558    0.5006 C   0  0  0  0  0  0  0  0  0  0  0  0
    4.2430   -0.7946   -0.5999 C   0  0  0  0  0  0  0  0  0  0  0  0
    5.2493   -0.1917   -1.3475 C   0  0  0  0  0  0  0  0  0  0  0  0
    5.6575    1.0620   -0.9586 C   0  0  0  0  0  0  0  0  0  0  0  0
    5.1181    1.7304    0.1221 C   0  0  0  0  0  0  0  0  0  0  0  0
    4.1177    1.1199    0.8578 C   0  0  0  0  0  0  0  0  0  0  0  0
    6.6805    1.7594   -1.6606 N   0  0  0  0  0  4  0  0  0  0  0  0
    7.1294    1.7386   -2.9436 O   0  0  0  0  0  1  0  0  0  0  0  0
    7.4159    2.6104   -1.1219 O   0  0  0  0  0  0  0  0  0  0  0  0
    5.8673   -0.8766   -2.5291 C   0  0  0  0  0  0  0  0  0  0  0  0
    7.2197   -0.9869   -2.2143 F   0  0  0  0  0  0  0  0  0  0  0  0
    5.6335   -0.2395   -3.7093 F   0  0  0  0  0  0  0  0  0  0  0  0
    5.3260   -2.1534   -2.6147 F   0  0  0  0  0  0  0  0  0  0  0  0
   -2.6833    1.6355    0.9378 C   0  0  0  0  0  0  0  0  0  0  0  0
   -3.7872    1.9459    0.1312 C   0  0  0  0  0  0  0  0  0  0  0  0
   -8.7853    0.5474   -1.9821 H   0  0  0  0  0  0  0  0  0  0  0  0
   -7.8074    0.4714   -3.4931 H   0  0  0  0  0  0  0  0  0  0  0  0
   -7.9120    2.0204   -2.5102 H   0  0  0  0  0  0  0  0  0  0  0  0
   -5.8947    2.2615   -1.3643 H   0  0  0  0  0  0  0  0  0  0  0  0
   -4.9575   -1.2135   -0.1621 H   0  0  0  0  0  0  0  0  0  0  0  0
   -3.0615   -1.5951    1.2199 H   0  0  0  0  0  0  0  0  0  0  0  0
   -0.8960   -0.9560    3.6749 H   0  0  0  0  0  0  0  0  0  0  0  0
    0.3314    0.2407    3.2897 H   0  0  0  0  0  0  0  0  0  0  0  0
    0.2975   -3.2732    0.9635 H   0  0  0  0  0  0  0  0  0  0  0  0
   -0.8116   -2.0781    0.2966 H   0  0  0  0  0  0  0  0  0  0  0  0
   -1.2082   -2.9769    1.8446 H   0  0  0  0  0  0  0  0  0  0  0  0
    1.5280   -2.9129    2.5052 H   0  0  0  0  0  0  0  0  0  0  0  0
    3.1131   -1.3113    2.0209 H   0  0  0  0  0  0  0  0  0  0  0  0
    3.9004   -1.7961   -0.8915 H   0  0  0  0  0  0  0  0  0  0  0  0
    5.4383    2.7232    0.4337 H   0  0  0  0  0  0  0  0  0  0  0  0
    3.6623    1.6000    1.7129 H   0  0  0  0  0  0  0  0  0  0  0  0
   -2.1168    2.5530    1.1786 H   0  0  0  0  0  0  0  0  0  0  0  0
   -4.0129    2.9749   -0.1892 H   0  0  0  0  0  0  0  0  0  0  0  0
  1  2  1  0
  2  3  2  0
  2  4  1  0
  4  5  1  0
  5  6  2  0
  6  7  1  0
  7  8  2  0
  8  9  1  0
  9 10  1  0
 10 11  1  0
 11 12  1  0
 11 13  1  1
 11 14  1  0
 14 15  2  0
 14 16  1  0
 16 17  1  0
 17 18  2  0
 18 19  1  0
 19 20  2  0
 20 21  1  0
 21 22  2  0
 20 23  1  0
 23 24  1  0
 23 25  2  0
 19 26  1  0
 26 27  1  0
 26 28  1  0
 26 29  1  0
  8 30  1  0
 30 31  2  0
 31  5  1  0
 22 17  1  0
  1 32  1  0
  1 33  1  0
  1 34  1  0
  4 35  1  0
  6 36  1  0
  7 37  1  0
 10 38  1  0
 10 39  1  0
 12 40  1  0
 12 41  1  0
 12 42  1  0
 13 43  1  0
 16 44  1  0
 18 45  1  0
 21 46  1  0
 22 47  1  0
 30 48  1  0
 31 49  1  0
M  CHG  2  23   1  24  -1
M  END
$$$$
