@<TRIPOS>MOLECULE
*****
 60 60 0 0 0
SMALL
GASTEIGER

@<TRIPOS>ATOM
      1 C          -5.4188   -3.8755   -0.1366 C.3     1  UNL1       -0.0653
      2 C          -4.6638   -2.6184    0.2400 C.3     1  UNL1       -0.0559
      3 C          -3.5578   -2.4225   -0.7442 C.3     1  UNL1       -0.0519
      4 C          -2.7324   -1.1808   -0.4562 C.3     1  UNL1       -0.0372
      5 C          -2.0895   -1.2162    0.8842 C.3     1  UNL1        0.0147
      6 N          -1.3065   -0.0195    1.0855 N.am    1  UNL1       -0.2999
      7 C          -1.5378    1.2606    1.6616 C.3     1  UNL1        0.0168
      8 C          -1.9740    2.2416    0.5996 C.3     1  UNL1       -0.0136
      9 C          -2.1783    3.5722    1.2753 C.3     1  UNL1        0.0487
     10 O          -2.5549    4.5439    0.3956 O.3     1  UNL1       -0.3829
     11 C          -3.7386    4.3053   -0.2727 C.3     1  UNL1        0.0364
     12 C           0.0396   -0.1762    0.6234 C.2     1  UNL1        0.2359
     13 O           0.9335    0.6755    0.6543 O.2     1  UNL1       -0.2736
     14 C           1.2076   -0.8574    0.0306 C.3     1  UNL1        0.1004
     15 C           0.9341   -1.3910   -1.3390 C.3     1  UNL1       -0.0159
     16 C           2.1736   -2.0824   -1.9133 C.3     1  UNL1        0.0469
     17 C           1.8051   -2.5831   -3.2832 C.2     1  UNL1        0.3048
     18 O           2.7124   -3.2583   -4.0727 O.3     1  UNL1       -0.4806
     19 O           0.6347   -2.3656   -3.6899 O.2     1  UNL1       -0.2510
     20 N           2.2983    0.1046   -0.0073 N.am    1  UNL1       -0.3000
     21 C           3.4942   -0.0959    0.7366 C.2     1  UNL1        0.2447
     22 O           3.5243   -1.1731    1.4262 O.2     1  UNL1       -0.2702
     23 C           4.6281    0.8257    0.7464 C.ar    1  UNL1        0.0382
     24 C           4.7258    2.0134    0.0539 C.ar    1  UNL1       -0.0299
     25 C           5.8436    2.8164    0.1295 C.ar    1  UNL1        0.0600
     26 CL          5.8176    4.2961   -0.8097 Cl      1  UNL1       -0.0820
     27 C           6.9282    2.4694    0.9074 C.ar    1  UNL1        0.0593
     28 CL          8.3257    3.4955    0.9881 Cl      1  UNL1       -0.0820
     29 C           6.8469    1.2854    1.6062 C.ar    1  UNL1       -0.0413
     30 C           5.7219    0.4960    1.5183 C.ar    1  UNL1       -0.0482
     31 H          -6.5099   -3.6511   -0.0983 H       1  UNL1        0.0230
     32 H          -5.1347   -4.2127   -1.1499 H       1  UNL1        0.0230
     33 H          -5.1703   -4.6928    0.5712 H       1  UNL1        0.0230
     34 H          -4.3169   -2.7314    1.2840 H       1  UNL1        0.0263
     35 H          -5.3571   -1.7359    0.2000 H       1  UNL1        0.0263
     36 H          -2.9062   -3.2988   -0.7408 H       1  UNL1        0.0266
     37 H          -4.0231   -2.2976   -1.7428 H       1  UNL1        0.0266
     38 H          -1.9985   -1.0881   -1.2765 H       1  UNL1        0.0280
     39 H          -3.3648   -0.2683   -0.5273 H       1  UNL1        0.0280
     40 H          -1.4523   -2.1382    1.0006 H       1  UNL1        0.0464
     41 H          -2.8453   -1.3112    1.7141 H       1  UNL1        0.0464
     42 H          -0.6203    1.6599    2.1709 H       1  UNL1        0.0465
     43 H          -2.3353    1.1760    2.4460 H       1  UNL1        0.0465
     44 H          -2.9699    1.9007    0.1976 H       1  UNL1        0.0302
     45 H          -1.2363    2.2763   -0.1972 H       1  UNL1        0.0302
     46 H          -1.2441    3.8908    1.8054 H       1  UNL1        0.0560
     47 H          -2.9309    3.4688    2.1008 H       1  UNL1        0.0560
     48 H          -3.9837    5.1690   -0.9515 H       1  UNL1        0.0523
     49 H          -3.5975    3.3885   -0.9185 H       1  UNL1        0.0523
     50 H          -4.5400    4.1363    0.4600 H       1  UNL1        0.0523
     51 H           1.5395   -1.7235    0.6508 H       1  UNL1        0.0595
     52 H           0.1188   -2.1666   -1.2491 H       1  UNL1        0.0293
     53 H           0.5895   -0.5823   -2.0024 H       1  UNL1        0.0293
     54 H           2.4724   -2.9297   -1.2772 H       1  UNL1        0.0378
     55 H           2.9778   -1.3493   -2.0367 H       1  UNL1        0.0378
     56 H           2.4299   -3.7766   -4.9167 H       1  UNL1        0.2951
     57 H           2.3173    0.9960   -0.5646 H       1  UNL1        0.1498
     58 H           3.8779    2.2875   -0.5561 H       1  UNL1        0.0640
     59 H           7.6685    0.9526    2.2392 H       1  UNL1        0.0633
     60 H           5.7024   -0.4342    2.0902 H       1  UNL1        0.0625
@<TRIPOS>BOND
     1     1     2    1
     2     2     3    1
     3     3     4    1
     4     4     5    1
     5     5     6    1
     6     6     7    1
     7     7     8    1
     8     8     9    1
     9     9    10    1
    10    10    11    1
    11     6    12   am
    12    12    13    2
    13    12    14    1
    14    14    15    1
    15    15    16    1
    16    16    17    1
    17    17    18    1
    18    17    19    2
    19    14    20    1
    20    20    21   am
    21    21    22    2
    22    21    23    1
    23    23    24   ar
    24    24    25   ar
    25    25    26    1
    26    25    27   ar
    27    27    28    1
    28    27    29   ar
    29    29    30   ar
    30    30    23   ar
    31     1    31    1
    32     1    32    1
    33     1    33    1
    34     2    34    1
    35     2    35    1
    36     3    36    1
    37     3    37    1
    38     4    38    1
    39     4    39    1
    40     5    40    1
    41     5    41    1
    42     7    42    1
    43     7    43    1
    44     8    44    1
    45     8    45    1
    46     9    46    1
    47     9    47    1
    48    11    48    1
    49    11    49    1
    50    11    50    1
    51    14    51    1
    52    15    52    1
    53    15    53    1
    54    16    54    1
    55    16    55    1
    56    18    56    1
    57    20    57    1
    58    24    58    1
    59    29    59    1
    60    30    60    1
