@<TRIPOS>MOLECULE
*****
 23 24 0 0 0
SMALL
GASTEIGER

@<TRIPOS>ATOM
      1 C          -3.8003   -0.4352    0.2528 C.3     1  UNL1        0.0193
      2 N          -2.6505    0.4872    0.0693 N.ar    1  UNL1       -0.3112
      3 S          -2.8289    2.2227   -0.0228 S.2     1  UNL1        0.0322
      4 C          -1.0998    2.5012   -0.2276 C.ar    1  UNL1        0.2417
      5 O          -0.5461    3.6612   -0.3619 O.2     1  UNL1       -0.2779
      6 C          -0.5421    1.2631   -0.2085 C.ar    1  UNL1        0.0558
      7 C           0.8352    1.0253   -0.3422 C.ar    1  UNL1       -0.0220
      8 C           1.3801   -0.2283   -0.3207 C.ar    1  UNL1        0.1058
      9 C           0.5096   -1.2987   -0.1579 C.ar    1  UNL1       -0.0334
     10 C          -0.8269   -1.0487   -0.0294 C.ar    1  UNL1       -0.0351
     11 C          -1.3740    0.2354   -0.0526 C.ar    1  UNL1        0.0596
     12 S           3.1012   -0.5152   -0.4884 S.O2    1  UNL1        0.0560
     13 N           3.7847   -0.4937    1.1107 N.3     1  UNL1       -0.2035
     14 O           3.3520   -1.8798   -1.0652 O.2     1  UNL1       -0.1533
     15 O           3.7656    0.5589   -1.2857 O.2     1  UNL1       -0.1533
     16 H          -3.9430   -0.7129    1.2983 H       1  UNL1        0.0462
     17 H          -3.5374   -1.2779   -0.4209 H       1  UNL1        0.0462
     18 H          -4.7262    0.0763   -0.1117 H       1  UNL1        0.0462
     19 H           1.5635    1.8139   -0.4715 H       1  UNL1        0.0645
     20 H           0.9445   -2.2970   -0.1408 H       1  UNL1        0.0638
     21 H          -1.4102   -1.9508    0.0916 H       1  UNL1        0.0639
     22 H           3.2473   -1.0782    1.7683 H       1  UNL1        0.1442
     23 H           4.8016   -0.6286    1.1169 H       1  UNL1        0.1442
@<TRIPOS>BOND
     1     1     2    1
     2     2     3   ar
     3     3     4   ar
     4     4     5    2
     5     4     6   ar
     6     6     7   ar
     7     7     8   ar
     8     8     9   ar
     9     9    10   ar
    10    10    11   ar
    11     8    12    1
    12    12    13    1
    13    12    14    2
    14    12    15    2
    15    11     2   ar
    16    11     6   ar
    17     1    16    1
    18     1    17    1
    19     1    18    1
    20     7    19    1
    21     9    20    1
    22    10    21    1
    23    13    22    1
    24    13    23    1
