
     RDKit          3D

 57 58  0  0  0  0  0  0  0  0999 V2000
    1.6946   -3.7858    0.8907 C   0  0  0  0  0  0  0  0  0  0  0  0
    0.5189   -2.8018    0.8864 C   0  0  0  0  0  0  0  0  0  0  0  0
    0.0130   -2.7301    2.2948 C   0  0  0  0  0  0  0  0  0  0  0  0
    1.0750   -1.4835    0.3890 C   0  0  2  0  0  0  0  0  0  0  0  0
    2.1166   -0.9887    1.2248 N   0  0  0  0  0  0  0  0  0  0  0  0
    3.4567   -0.8517    0.7037 C   0  0  0  0  0  0  0  0  0  0  0  0
    3.6693   -1.1812   -0.5003 O   0  0  0  0  0  0  0  0  0  0  0  0
    4.4663   -0.3836    1.4767 O   0  0  0  0  0  0  0  0  0  0  0  0
    5.7826   -0.2113    1.0834 C   0  0  0  0  0  0  0  0  0  0  0  0
    5.8909    0.7327   -0.0352 C   0  0  0  0  0  0  0  0  0  0  0  0
    5.8746    2.0961    0.2071 C   0  0  0  0  0  0  0  0  0  0  0  0
    5.9990    2.9848   -0.8100 C   0  0  0  0  0  0  0  0  0  0  0  0
    6.1435    2.5506   -2.1012 C   0  0  0  0  0  0  0  0  0  0  0  0
    6.1602    1.2101   -2.3427 C   0  0  0  0  0  0  0  0  0  0  0  0
    6.0355    0.2710   -1.3224 C   0  0  0  0  0  0  0  0  0  0  0  0
    0.0322   -0.4644    0.2182 C   0  0  0  0  0  0  0  0  0  0  0  0
    0.1906    0.6537    0.8034 O   0  0  0  0  0  0  0  0  0  0  0  0
   -1.1336   -0.6360   -0.5487 N   0  0  0  0  0  0  0  0  0  0  0  0
   -2.0954    0.4302   -0.6500 C   0  0  1  0  0  0  0  0  0  0  0  0
   -2.0803    0.9024   -2.1072 C   0  0  0  0  0  0  0  0  0  0  0  0
   -3.4567   -0.0038   -0.2593 C   0  0  0  0  0  0  0  0  0  0  0  0
   -3.6317   -1.1824    0.0991 O   0  0  0  0  0  0  0  0  0  0  0  0
   -4.5141    0.9131   -0.3002 N   0  0  0  0  0  0  0  0  0  0  0  0
   -5.8853    0.5657    0.0683 C   0  0  1  0  0  0  0  0  0  0  0  0
   -6.2773    1.5273    1.1896 C   0  0  0  0  0  0  0  0  0  0  0  0
   -6.5483    2.7595    0.4111 C   0  0  0  0  0  0  0  0  0  0  0  0
   -6.5879    3.9263    0.8603 O   0  0  0  0  0  0  0  0  0  0  0  0
   -6.7569    2.4293   -0.9176 O   0  0  0  0  0  0  0  0  0  0  0  0
   -6.7779    0.9991   -1.0462 C   0  0  0  0  0  0  0  0  0  0  0  0
   -8.1000    0.6166   -0.8698 O   0  0  0  0  0  0  0  0  0  0  0  0
    1.3568   -4.8116    1.0805 H   0  0  0  0  0  0  0  0  0  0  0  0
    2.2847   -3.6658   -0.0398 H   0  0  0  0  0  0  0  0  0  0  0  0
    2.3502   -3.4823    1.7330 H   0  0  0  0  0  0  0  0  0  0  0  0
   -0.2105   -3.1726    0.1572 H   0  0  0  0  0  0  0  0  0  0  0  0
    0.3364   -3.6133    2.9001 H   0  0  0  0  0  0  0  0  0  0  0  0
    0.3347   -1.8321    2.8446 H   0  0  0  0  0  0  0  0  0  0  0  0
   -1.1001   -2.7434    2.2959 H   0  0  0  0  0  0  0  0  0  0  0  0
    1.4754   -1.7127   -0.6432 H   0  0  0  0  0  0  0  0  0  0  0  0
    1.9522   -0.7201    2.2007 H   0  0  0  0  0  0  0  0  0  0  0  0
    6.3561    0.2003    1.9479 H   0  0  0  0  0  0  0  0  0  0  0  0
    6.2523   -1.1913    0.7582 H   0  0  0  0  0  0  0  0  0  0  0  0
    5.7612    2.4522    1.2221 H   0  0  0  0  0  0  0  0  0  0  0  0
    5.9849    4.0435   -0.6080 H   0  0  0  0  0  0  0  0  0  0  0  0
    6.2433    3.2508   -2.9206 H   0  0  0  0  0  0  0  0  0  0  0  0
    6.2712    0.8519   -3.3373 H   0  0  0  0  0  0  0  0  0  0  0  0
    6.0702   -0.7878   -1.5592 H   0  0  0  0  0  0  0  0  0  0  0  0
   -1.3064   -1.5226   -1.0411 H   0  0  0  0  0  0  0  0  0  0  0  0
   -1.7381    1.2848   -0.0643 H   0  0  0  0  0  0  0  0  0  0  0  0
   -1.1064    0.6768   -2.5371 H   0  0  0  0  0  0  0  0  0  0  0  0
   -2.9258    0.4071   -2.6259 H   0  0  0  0  0  0  0  0  0  0  0  0
   -2.2434    2.0077   -2.1403 H   0  0  0  0  0  0  0  0  0  0  0  0
   -4.3726    1.9058   -0.6013 H   0  0  0  0  0  0  0  0  0  0  0  0
   -5.9904   -0.4817    0.3729 H   0  0  0  0  0  0  0  0  0  0  0  0
   -7.2227    1.2044    1.6891 H   0  0  0  0  0  0  0  0  0  0  0  0
   -5.4521    1.6620    1.9161 H   0  0  0  0  0  0  0  0  0  0  0  0
   -6.3547    0.6752   -2.0154 H   0  0  0  0  0  0  0  0  0  0  0  0
   -8.2803    0.2503    0.0194 H   0  0  0  0  0  0  0  0  0  0  0  0
  1  2  1  0
  2  3  1  0
  2  4  1  0
  4  5  1  0
  5  6  1  0
  6  7  2  0
  6  8  1  0
  8  9  1  0
  9 10  1  0
 10 11  2  0
 11 12  1  0
 12 13  2  0
 13 14  1  0
 14 15  2  0
  4 16  1  0
 16 17  2  0
 16 18  1  0
 18 19  1  0
 19 20  1  0
 19 21  1  0
 21 22  2  0
 21 23  1  0
 23 24  1  0
 24 25  1  0
 25 26  1  0
 26 27  2  0
 26 28  1  0
 28 29  1  0
 29 30  1  0
 15 10  1  0
 29 24  1  0
  1 31  1  0
  1 32  1  0
  1 33  1  0
  2 34  1  0
  3 35  1  0
  3 36  1  0
  3 37  1  0
  4 38  1  6
  5 39  1  0
  9 40  1  0
  9 41  1  0
 11 42  1  0
 12 43  1  0
 13 44  1  0
 14 45  1  0
 15 46  1  0
 18 47  1  0
 19 48  1  1
 20 49  1  0
 20 50  1  0
 20 51  1  0
 23 52  1  0
 24 53  1  1
 25 54  1  0
 25 55  1  0
 29 56  1  0
 30 57  1  0
M  END
$$$$
