@<TRIPOS>MOLECULE
*****
 57 58 0 0 0
SMALL
GASTEIGER

@<TRIPOS>ATOM
      1 C           1.6946   -3.7858    0.8907 C.3     1  UNL1       -0.0605
      2 C           0.5189   -2.8018    0.8864 C.3     1  UNL1       -0.0196
      3 C           0.0130   -2.7301    2.2948 C.3     1  UNL1       -0.0605
      4 C           1.0750   -1.4835    0.3890 C.3     1  UNL1        0.1048
      5 N           2.1166   -0.9887    1.2248 N.am    1  UNL1       -0.2696
      6 C           3.4567   -0.8517    0.7037 C.2     1  UNL1        0.4012
      7 O           3.6693   -1.1812   -0.5003 O.2     1  UNL1       -0.2265
      8 O           4.4663   -0.3836    1.4767 O.3     1  UNL1       -0.4456
      9 C           5.7826   -0.2113    1.0834 C.3     1  UNL1        0.1191
     10 C           5.8909    0.7327   -0.0352 C.ar    1  UNL1       -0.0103
     11 C           5.8746    2.0961    0.2071 C.ar    1  UNL1       -0.0554
     12 C           5.9990    2.9848   -0.8100 C.ar    1  UNL1       -0.0614
     13 C           6.1435    2.5506   -2.1012 C.ar    1  UNL1       -0.0617
     14 C           6.1602    1.2101   -2.3427 C.ar    1  UNL1       -0.0614
     15 C           6.0355    0.2710   -1.3224 C.ar    1  UNL1       -0.0554
     16 C           0.0322   -0.4644    0.2182 C.2     1  UNL1        0.2343
     17 O           0.1906    0.6537    0.8034 O.2     1  UNL1       -0.2738
     18 N          -1.1336   -0.6360   -0.5487 N.am    1  UNL1       -0.3027
     19 C          -2.0954    0.4302   -0.6500 C.3     1  UNL1        0.0966
     20 C          -2.0803    0.9024   -2.1072 C.3     1  UNL1       -0.0381
     21 C          -3.4567   -0.0038   -0.2593 C.2     1  UNL1        0.2335
     22 O          -3.6317   -1.1824    0.0991 O.2     1  UNL1       -0.2738
     23 N          -4.5141    0.9131   -0.3002 N.am    1  UNL1       -0.3044
     24 C          -5.8853    0.5657    0.0683 C.3     1  UNL1        0.0954
     25 C          -6.2773    1.5273    1.1896 C.3     1  UNL1        0.0692
     26 C          -6.5483    2.7595    0.4111 C.2     1  UNL1        0.3113
     27 O          -6.5879    3.9263    0.8603 O.2     1  UNL1       -0.2507
     28 O          -6.7569    2.4293   -0.9176 O.3     1  UNL1       -0.4332
     29 C          -6.7779    0.9991   -1.0462 C.3     1  UNL1        0.2213
     30 O          -8.1000    0.6166   -0.8698 O.3     1  UNL1       -0.3563
     31 H           1.3568   -4.8116    1.0805 H       1  UNL1        0.0233
     32 H           2.2847   -3.6658   -0.0398 H       1  UNL1        0.0233
     33 H           2.3502   -3.4823    1.7330 H       1  UNL1        0.0233
     34 H          -0.2105   -3.1726    0.1572 H       1  UNL1        0.0318
     35 H           0.3364   -3.6133    2.9001 H       1  UNL1        0.0233
     36 H           0.3347   -1.8321    2.8446 H       1  UNL1        0.0233
     37 H          -1.1001   -2.7434    2.2959 H       1  UNL1        0.0233
     38 H           1.4754   -1.7127   -0.6432 H       1  UNL1        0.0598
     39 H           1.9522   -0.7201    2.2007 H       1  UNL1        0.1528
     40 H           6.3561    0.2003    1.9479 H       1  UNL1        0.0749
     41 H           6.2523   -1.1913    0.7582 H       1  UNL1        0.0749
     42 H           5.7612    2.4522    1.2221 H       1  UNL1        0.0621
     43 H           5.9849    4.0435   -0.6080 H       1  UNL1        0.0618
     44 H           6.2433    3.2508   -2.9206 H       1  UNL1        0.0618
     45 H           6.2712    0.8519   -3.3373 H       1  UNL1        0.0618
     46 H           6.0702   -0.7878   -1.5592 H       1  UNL1        0.0621
     47 H          -1.3064   -1.5226   -1.0411 H       1  UNL1        0.1495
     48 H          -1.7381    1.2848   -0.0643 H       1  UNL1        0.0592
     49 H          -1.1064    0.6768   -2.5371 H       1  UNL1        0.0252
     50 H          -2.9258    0.4071   -2.6259 H       1  UNL1        0.0252
     51 H          -2.2434    2.0077   -2.1403 H       1  UNL1        0.0252
     52 H          -4.3726    1.9058   -0.6013 H       1  UNL1        0.1493
     53 H          -5.9904   -0.4817    0.3729 H       1  UNL1        0.0565
     54 H          -7.2227    1.2044    1.6891 H       1  UNL1        0.0398
     55 H          -5.4521    1.6620    1.9161 H       1  UNL1        0.0398
     56 H          -6.3547    0.6752   -2.0154 H       1  UNL1        0.1074
     57 H          -8.2803    0.2503    0.0194 H       1  UNL1        0.2136
@<TRIPOS>BOND
     1     1     2    1
     2     2     3    1
     3     2     4    1
     4     4     5    1
     5     5     6   am
     6     6     7    2
     7     6     8    1
     8     8     9    1
     9     9    10    1
    10    10    11   ar
    11    11    12   ar
    12    12    13   ar
    13    13    14   ar
    14    14    15   ar
    15     4    16    1
    16    16    17    2
    17    16    18   am
    18    18    19    1
    19    19    20    1
    20    19    21    1
    21    21    22    2
    22    21    23   am
    23    23    24    1
    24    24    25    1
    25    25    26    1
    26    26    27    2
    27    26    28    1
    28    28    29    1
    29    29    30    1
    30    15    10   ar
    31    29    24    1
    32     1    31    1
    33     1    32    1
    34     1    33    1
    35     2    34    1
    36     3    35    1
    37     3    36    1
    38     3    37    1
    39     4    38    1
    40     5    39    1
    41     9    40    1
    42     9    41    1
    43    11    42    1
    44    12    43    1
    45    13    44    1
    46    14    45    1
    47    15    46    1
    48    18    47    1
    49    19    48    1
    50    20    49    1
    51    20    50    1
    52    20    51    1
    53    23    52    1
    54    24    53    1
    55    25    54    1
    56    25    55    1
    57    29    56    1
    58    30    57    1
