@<TRIPOS>MOLECULE
*****
 47 48 0 0 0
SMALL
GASTEIGER

@<TRIPOS>ATOM
      1 C          -2.5162    3.4685    1.7285 C.3     1  UNL1       -0.0611
      2 C          -2.7845    2.1918    1.0341 C.3     1  UNL1       -0.0271
      3 C          -1.5851    1.5115    0.4847 C.ar    1  UNL1       -0.0054
      4 C          -0.3108    1.7721    0.8719 C.ar    1  UNL1       -0.0516
      5 C           0.8003    1.1187    0.3377 C.ar    1  UNL1       -0.0422
      6 C           2.1337    1.4806    0.8798 C.3     1  UNL1        0.0023
      7 C           3.1335    0.4225    0.7502 C.ar    1  UNL1        0.0146
      8 C           3.4202   -0.4534    1.7615 C.ar    1  UNL1        0.0379
      9 N           4.3290   -1.4371    1.5835 N.ar    1  UNL1       -0.2227
     10 C           4.9680   -1.5736    0.4111 C.ar    1  UNL1        0.2142
     11 N           5.9171   -2.6075    0.2223 N.pl3   1  UNL1       -0.3274
     12 N           4.6961   -0.7154   -0.5957 N.ar    1  UNL1       -0.1999
     13 C           3.8073    0.2707   -0.4669 C.ar    1  UNL1        0.1247
     14 N           3.6099    1.1370   -1.5743 N.pl3   1  UNL1       -0.3428
     15 C           0.5686    0.1841   -0.6109 C.ar    1  UNL1       -0.0516
     16 C          -0.7235   -0.1410   -1.0641 C.ar    1  UNL1       -0.0054
     17 C          -0.7646   -1.1653   -2.1255 C.3     1  UNL1       -0.0271
     18 C          -1.0417   -2.5580   -1.7252 C.3     1  UNL1       -0.0611
     19 C          -1.7756    0.5234   -0.5119 C.ar    1  UNL1        0.1269
     20 O          -3.0439    0.2764   -0.8999 O.3     1  UNL1       -0.4892
     21 C          -4.1041   -0.4270   -0.4152 C.3     1  UNL1        0.1126
     22 C          -3.9923   -1.8797   -0.1219 C.3     1  UNL1        0.0783
     23 O          -3.0395   -2.1821    0.8323 O.3     1  UNL1       -0.3917
     24 H          -1.5704    3.9678    1.5115 H       1  UNL1        0.0233
     25 H          -2.5755    3.3908    2.8486 H       1  UNL1        0.0233
     26 H          -3.3274    4.2012    1.4385 H       1  UNL1        0.0233
     27 H          -3.1697    1.4773    1.8224 H       1  UNL1        0.0312
     28 H          -3.5892    2.2457    0.2743 H       1  UNL1        0.0312
     29 H          -0.1416    2.5229    1.6325 H       1  UNL1        0.0624
     30 H           2.4291    2.4166    0.3196 H       1  UNL1        0.0363
     31 H           1.9899    1.8024    1.9414 H       1  UNL1        0.0363
     32 H           2.9102   -0.3583    2.7158 H       1  UNL1        0.0834
     33 H           6.4760   -2.9970    0.9919 H       1  UNL1        0.1452
     34 H           6.0481   -2.9824   -0.7444 H       1  UNL1        0.1452
     35 H           3.1260    0.7637   -2.4081 H       1  UNL1        0.1437
     36 H           3.9516    2.1051   -1.5125 H       1  UNL1        0.1437
     37 H           1.4058   -0.3537   -1.0439 H       1  UNL1        0.0624
     38 H           0.1775   -1.1438   -2.7344 H       1  UNL1        0.0312
     39 H          -1.5575   -0.8874   -2.8946 H       1  UNL1        0.0312
     40 H          -0.1930   -3.2015   -2.1625 H       1  UNL1        0.0233
     41 H          -0.9555   -2.7617   -0.6401 H       1  UNL1        0.0233
     42 H          -1.9364   -3.0317   -2.1727 H       1  UNL1        0.0233
     43 H          -4.5819    0.0808    0.4973 H       1  UNL1        0.0720
     44 H          -4.9790   -0.3329   -1.1606 H       1  UNL1        0.0720
     45 H          -4.9731   -2.2586    0.3309 H       1  UNL1        0.0591
     46 H          -3.8760   -2.4979   -1.0283 H       1  UNL1        0.0591
     47 H          -2.7899   -1.3848    1.3911 H       1  UNL1        0.2095
@<TRIPOS>BOND
     1     1     2    1
     2     2     3    1
     3     3     4   ar
     4     4     5   ar
     5     5     6    1
     6     6     7    1
     7     7     8   ar
     8     8     9   ar
     9     9    10   ar
    10    10    11    1
    11    10    12   ar
    12    12    13   ar
    13    13    14    1
    14     5    15   ar
    15    15    16   ar
    16    16    17    1
    17    17    18    1
    18    16    19   ar
    19    19    20    1
    20    20    21    1
    21    21    22    1
    22    22    23    1
    23    19     3   ar
    24    13     7   ar
    25     1    24    1
    26     1    25    1
    27     1    26    1
    28     2    27    1
    29     2    28    1
    30     4    29    1
    31     6    30    1
    32     6    31    1
    33     8    32    1
    34    11    33    1
    35    11    34    1
    36    14    35    1
    37    14    36    1
    38    15    37    1
    39    17    38    1
    40    17    39    1
    41    18    40    1
    42    18    41    1
    43    18    42    1
    44    21    43    1
    45    21    44    1
    46    22    45    1
    47    22    46    1
    48    23    47    1
