
     RDKit          3D

 47 48  0  0  0  0  0  0  0  0999 V2000
   -2.5162    3.4685    1.7285 C   0  0  0  0  0  0  0  0  0  0  0  0
   -2.7845    2.1918    1.0341 C   0  0  0  0  0  0  0  0  0  0  0  0
   -1.5851    1.5115    0.4847 C   0  0  0  0  0  0  0  0  0  0  0  0
   -0.3108    1.7721    0.8719 C   0  0  0  0  0  0  0  0  0  0  0  0
    0.8003    1.1187    0.3377 C   0  0  0  0  0  0  0  0  0  0  0  0
    2.1337    1.4806    0.8798 C   0  0  0  0  0  0  0  0  0  0  0  0
    3.1335    0.4225    0.7502 C   0  0  0  0  0  0  0  0  0  0  0  0
    3.4202   -0.4534    1.7615 C   0  0  0  0  0  0  0  0  0  0  0  0
    4.3290   -1.4371    1.5835 N   0  0  0  0  0  0  0  0  0  0  0  0
    4.9680   -1.5736    0.4111 C   0  0  0  0  0  0  0  0  0  0  0  0
    5.9171   -2.6075    0.2223 N   0  0  0  0  0  0  0  0  0  0  0  0
    4.6961   -0.7154   -0.5957 N   0  0  0  0  0  0  0  0  0  0  0  0
    3.8073    0.2707   -0.4669 C   0  0  0  0  0  0  0  0  0  0  0  0
    3.6099    1.1370   -1.5743 N   0  0  0  0  0  0  0  0  0  0  0  0
    0.5686    0.1841   -0.6109 C   0  0  0  0  0  0  0  0  0  0  0  0
   -0.7235   -0.1410   -1.0641 C   0  0  0  0  0  0  0  0  0  0  0  0
   -0.7646   -1.1653   -2.1255 C   0  0  0  0  0  0  0  0  0  0  0  0
   -1.0417   -2.5580   -1.7252 C   0  0  0  0  0  0  0  0  0  0  0  0
   -1.7756    0.5234   -0.5119 C   0  0  0  0  0  0  0  0  0  0  0  0
   -3.0439    0.2764   -0.8999 O   0  0  0  0  0  0  0  0  0  0  0  0
   -4.1041   -0.4270   -0.4152 C   0  0  0  0  0  0  0  0  0  0  0  0
   -3.9923   -1.8797   -0.1219 C   0  0  0  0  0  0  0  0  0  0  0  0
   -3.0395   -2.1821    0.8323 O   0  0  0  0  0  0  0  0  0  0  0  0
   -1.5704    3.9678    1.5115 H   0  0  0  0  0  0  0  0  0  0  0  0
   -2.5755    3.3908    2.8486 H   0  0  0  0  0  0  0  0  0  0  0  0
   -3.3274    4.2012    1.4385 H   0  0  0  0  0  0  0  0  0  0  0  0
   -3.1697    1.4773    1.8224 H   0  0  0  0  0  0  0  0  0  0  0  0
   -3.5892    2.2457    0.2743 H   0  0  0  0  0  0  0  0  0  0  0  0
   -0.1416    2.5229    1.6325 H   0  0  0  0  0  0  0  0  0  0  0  0
    2.4291    2.4166    0.3196 H   0  0  0  0  0  0  0  0  0  0  0  0
    1.9899    1.8024    1.9414 H   0  0  0  0  0  0  0  0  0  0  0  0
    2.9102   -0.3583    2.7158 H   0  0  0  0  0  0  0  0  0  0  0  0
    6.4760   -2.9970    0.9919 H   0  0  0  0  0  0  0  0  0  0  0  0
    6.0481   -2.9824   -0.7444 H   0  0  0  0  0  0  0  0  0  0  0  0
    3.1260    0.7637   -2.4081 H   0  0  0  0  0  0  0  0  0  0  0  0
    3.9516    2.1051   -1.5125 H   0  0  0  0  0  0  0  0  0  0  0  0
    1.4058   -0.3537   -1.0439 H   0  0  0  0  0  0  0  0  0  0  0  0
    0.1775   -1.1438   -2.7344 H   0  0  0  0  0  0  0  0  0  0  0  0
   -1.5575   -0.8874   -2.8946 H   0  0  0  0  0  0  0  0  0  0  0  0
   -0.1930   -3.2015   -2.1625 H   0  0  0  0  0  0  0  0  0  0  0  0
   -0.9555   -2.7617   -0.6401 H   0  0  0  0  0  0  0  0  0  0  0  0
   -1.9364   -3.0317   -2.1727 H   0  0  0  0  0  0  0  0  0  0  0  0
   -4.5819    0.0808    0.4973 H   0  0  0  0  0  0  0  0  0  0  0  0
   -4.9790   -0.3329   -1.1606 H   0  0  0  0  0  0  0  0  0  0  0  0
   -4.9731   -2.2586    0.3309 H   0  0  0  0  0  0  0  0  0  0  0  0
   -3.8760   -2.4979   -1.0283 H   0  0  0  0  0  0  0  0  0  0  0  0
   -2.7899   -1.3848    1.3911 H   0  0  0  0  0  0  0  0  0  0  0  0
  1  2  1  0
  2  3  1  0
  3  4  2  0
  4  5  1  0
  5  6  1  0
  6  7  1  0
  7  8  2  0
  8  9  1  0
  9 10  2  0
 10 11  1  0
 10 12  1  0
 12 13  2  0
 13 14  1  0
  5 15  2  0
 15 16  1  0
 16 17  1  0
 17 18  1  0
 16 19  2  0
 19 20  1  0
 20 21  1  0
 21 22  1  0
 22 23  1  0
 19  3  1  0
 13  7  1  0
  1 24  1  0
  1 25  1  0
  1 26  1  0
  2 27  1  0
  2 28  1  0
  4 29  1  0
  6 30  1  0
  6 31  1  0
  8 32  1  0
 11 33  1  0
 11 34  1  0
 14 35  1  0
 14 36  1  0
 15 37  1  0
 17 38  1  0
 17 39  1  0
 18 40  1  0
 18 41  1  0
 18 42  1  0
 21 43  1  0
 21 44  1  0
 22 45  1  0
 22 46  1  0
 23 47  1  0
M  END
$$$$
