
     RDKit          3D

 55 59  0  0  0  0  0  0  0  0999 V2000
    2.5442   -3.0906    1.6259 C   0  0  0  0  0  0  0  0  0  0  0  0
    2.7237   -2.6685    0.1855 C   0  0  2  0  0  0  0  0  0  0  0  0
    4.1276   -3.1002   -0.2648 C   0  0  0  0  0  0  0  0  0  0  0  0
    4.4777   -2.5195   -1.4589 O   0  0  0  0  0  0  0  0  0  0  0  0
    4.5561   -1.1486   -1.4209 C   0  0  0  0  0  0  0  0  0  0  0  0
    3.9488   -0.5602   -0.1658 C   0  0  0  0  0  0  0  0  0  0  0  0
    2.6760   -1.2481    0.0410 N   0  0  0  0  0  0  0  0  0  0  0  0
    1.4466   -0.4924    0.0915 C   0  0  0  0  0  0  0  0  0  0  0  0
    1.4390    0.8325   -0.0471 N   0  0  0  0  0  0  0  0  0  0  0  0
    0.3034    1.6061   -0.0086 C   0  0  0  0  0  0  0  0  0  0  0  0
    0.4342    3.0407   -0.2420 C   0  0  0  0  0  0  0  0  0  0  0  0
    1.5480    3.4856   -0.9810 C   0  0  0  0  0  0  0  0  0  0  0  0
    1.7997    4.7594   -1.2410 N   0  0  0  0  0  0  0  0  0  0  0  0
    0.9808    5.7248   -0.7997 C   0  0  0  0  0  0  0  0  0  0  0  0
   -0.1243    5.3495   -0.0692 C   0  0  0  0  0  0  0  0  0  0  0  0
   -1.1002    6.0900    0.5205 N   0  0  0  0  0  0  0  0  0  0  0  0
   -1.9661    5.2942    1.1543 C   0  0  0  0  0  0  0  0  0  0  0  0
   -1.5472    3.9728    0.9770 C   0  0  0  0  0  0  0  0  0  0  0  0
   -0.4101    4.0206    0.2173 C   0  0  0  0  0  0  0  0  0  0  0  0
   -0.8525    0.9119    0.1846 C   0  0  0  0  0  0  0  0  0  0  0  0
   -0.8832   -0.4851    0.3357 C   0  0  0  0  0  0  0  0  0  0  0  0
    0.2932   -1.2098    0.2887 C   0  0  0  0  0  0  0  0  0  0  0  0
   -0.0325   -2.4978    0.4594 N   0  0  0  0  0  0  0  0  0  0  0  0
   -1.3636   -2.6018    0.6104 C   0  0  0  0  0  0  0  0  0  0  0  0
   -1.9000   -1.3477    0.5340 N   0  0  0  0  0  0  0  0  0  0  0  0
   -3.2919   -0.9859    0.6421 C   0  0  1  0  0  0  0  0  0  0  0  0
   -3.7986   -0.1977   -0.5304 C   0  0  0  0  0  0  0  0  0  0  0  0
   -4.3134   -2.4308    0.8769 S   0  0  0  0  0  6  0  0  0  0  0  0
   -4.2158   -3.5207   -0.5040 C   0  0  0  0  0  0  0  0  0  0  0  0
   -3.8967   -3.1540    2.1400 O   0  0  0  0  0  0  0  0  0  0  0  0
   -5.7497   -2.0404    1.0700 O   0  0  0  0  0  0  0  0  0  0  0  0
    1.9434   -4.0150    1.7314 H   0  0  0  0  0  0  0  0  0  0  0  0
    3.5448   -3.3436    2.0694 H   0  0  0  0  0  0  0  0  0  0  0  0
    2.1349   -2.2335    2.2074 H   0  0  0  0  0  0  0  0  0  0  0  0
    2.0315   -3.1402   -0.5126 H   0  0  0  0  0  0  0  0  0  0  0  0
    4.8228   -2.7364    0.5310 H   0  0  0  0  0  0  0  0  0  0  0  0
    4.1872   -4.1977   -0.3870 H   0  0  0  0  0  0  0  0  0  0  0  0
    5.5774   -0.7492   -1.5870 H   0  0  0  0  0  0  0  0  0  0  0  0
    3.9437   -0.7411   -2.2757 H   0  0  0  0  0  0  0  0  0  0  0  0
    3.7229    0.4987   -0.3905 H   0  0  0  0  0  0  0  0  0  0  0  0
    4.6098   -0.6499    0.7064 H   0  0  0  0  0  0  0  0  0  0  0  0
    2.2121    2.7254   -1.3403 H   0  0  0  0  0  0  0  0  0  0  0  0
    1.1618    6.7826   -0.9993 H   0  0  0  0  0  0  0  0  0  0  0  0
   -1.1390    7.1220    0.4677 H   0  0  0  0  0  0  0  0  0  0  0  0
   -2.8543    5.5336    1.7245 H   0  0  0  0  0  0  0  0  0  0  0  0
   -2.0106    3.1027    1.3775 H   0  0  0  0  0  0  0  0  0  0  0  0
   -1.8193    1.3797    0.1932 H   0  0  0  0  0  0  0  0  0  0  0  0
   -1.9852   -3.4718    0.7679 H   0  0  0  0  0  0  0  0  0  0  0  0
   -3.4201   -0.3591    1.5647 H   0  0  0  0  0  0  0  0  0  0  0  0
   -3.0241   -0.0616   -1.3079 H   0  0  0  0  0  0  0  0  0  0  0  0
   -4.1448    0.8247   -0.2524 H   0  0  0  0  0  0  0  0  0  0  0  0
   -4.6976   -0.7079   -0.9740 H   0  0  0  0  0  0  0  0  0  0  0  0
   -5.1728   -3.5138   -1.0856 H   0  0  0  0  0  0  0  0  0  0  0  0
   -4.1066   -4.5552   -0.1274 H   0  0  0  0  0  0  0  0  0  0  0  0
   -3.3711   -3.2817   -1.1820 H   0  0  0  0  0  0  0  0  0  0  0  0
  1  2  1  0
  2  3  1  0
  3  4  1  0
  4  5  1  0
  5  6  1  0
  6  7  1  0
  7  8  1  0
  8  9  2  0
  9 10  1  0
 10 11  1  0
 11 12  2  0
 12 13  1  0
 13 14  2  0
 14 15  1  0
 15 16  1  0
 16 17  1  0
 17 18  2  0
 18 19  1  0
 10 20  2  0
 20 21  1  0
 21 22  2  0
 22 23  1  0
 23 24  2  0
 24 25  1  0
 25 26  1  0
 26 27  1  0
 26 28  1  0
 28 29  1  0
 28 30  2  0
 28 31  2  0
  7  2  1  0
 22  8  1  0
 19 11  1  0
 25 21  1  0
 19 15  2  0
  1 32  1  0
  1 33  1  0
  1 34  1  0
  2 35  1  6
  3 36  1  0
  3 37  1  0
  5 38  1  0
  5 39  1  0
  6 40  1  0
  6 41  1  0
 12 42  1  0
 14 43  1  0
 16 44  1  0
 17 45  1  0
 18 46  1  0
 20 47  1  0
 24 48  1  0
 26 49  1  1
 27 50  1  0
 27 51  1  0
 27 52  1  0
 29 53  1  0
 29 54  1  0
 29 55  1  0
M  END
$$$$
