@<TRIPOS>MOLECULE
*****
 55 59 0 0 0
SMALL
GASTEIGER

@<TRIPOS>ATOM
      1 C           2.5442   -3.0906    1.6259 C.3     1  UNL1       -0.0443
      2 C           2.7237   -2.6685    0.1855 C.3     1  UNL1        0.0455
      3 C           4.1276   -3.1002   -0.2648 C.3     1  UNL1        0.0660
      4 O           4.4777   -2.5195   -1.4589 O.3     1  UNL1       -0.3764
      5 C           4.5561   -1.1486   -1.4209 C.3     1  UNL1        0.0634
      6 C           3.9488   -0.5602   -0.1658 C.3     1  UNL1        0.0374
      7 N           2.6760   -1.2481    0.0410 N.pl3   1  UNL1       -0.3063
      8 C           1.4466   -0.4924    0.0915 C.ar    1  UNL1        0.1500
      9 N           1.4390    0.8325   -0.0471 N.ar    1  UNL1       -0.2296
     10 C           0.3034    1.6061   -0.0086 C.ar    1  UNL1        0.0773
     11 C           0.4342    3.0407   -0.2420 C.ar    1  UNL1        0.0277
     12 C           1.5480    3.4856   -0.9810 C.ar    1  UNL1        0.0374
     13 N           1.7997    4.7594   -1.2410 N.ar    1  UNL1       -0.2605
     14 C           0.9808    5.7248   -0.7997 C.ar    1  UNL1        0.0514
     15 C          -0.1243    5.3495   -0.0692 C.ar    1  UNL1        0.0654
     16 N          -1.1002    6.0900    0.5205 N.ar    1  UNL1       -0.3595
     17 C          -1.9661    5.2942    1.1543 C.ar    1  UNL1        0.0028
     18 C          -1.5472    3.9728    0.9770 C.ar    1  UNL1       -0.0359
     19 C          -0.4101    4.0206    0.2173 C.ar    1  UNL1        0.0117
     20 C          -0.8525    0.9119    0.1846 C.ar    1  UNL1       -0.0098
     21 C          -0.8832   -0.4851    0.3357 C.ar    1  UNL1        0.0756
     22 C           0.2932   -1.2098    0.2887 C.ar    1  UNL1        0.1288
     23 N          -0.0325   -2.4978    0.4594 N.ar    1  UNL1       -0.2322
     24 C          -1.3636   -2.6018    0.6104 C.ar    1  UNL1        0.0987
     25 N          -1.9000   -1.3477    0.5340 N.ar    1  UNL1       -0.3073
     26 C          -3.2919   -0.9859    0.6421 C.3     1  UNL1        0.1499
     27 C          -3.7986   -0.1977   -0.5304 C.3     1  UNL1       -0.0239
     28 S          -4.3134   -2.4308    0.8769 S.O2    1  UNL1       -0.0129
     29 C          -4.2158   -3.5207   -0.5040 C.3     1  UNL1        0.0567
     30 O          -3.8967   -3.1540    2.1400 O.2     1  UNL1       -0.1726
     31 O          -5.7497   -2.0404    1.0700 O.2     1  UNL1       -0.1726
     32 H           1.9434   -4.0150    1.7314 H       1  UNL1        0.0248
     33 H           3.5448   -3.3436    2.0694 H       1  UNL1        0.0248
     34 H           2.1349   -2.2335    2.2074 H       1  UNL1        0.0248
     35 H           2.0315   -3.1402   -0.5126 H       1  UNL1        0.0520
     36 H           4.8228   -2.7364    0.5310 H       1  UNL1        0.0578
     37 H           4.1872   -4.1977   -0.3870 H       1  UNL1        0.0578
     38 H           5.5774   -0.7492   -1.5870 H       1  UNL1        0.0575
     39 H           3.9437   -0.7411   -2.2757 H       1  UNL1        0.0575
     40 H           3.7229    0.4987   -0.3905 H       1  UNL1        0.0487
     41 H           4.6098   -0.6499    0.7064 H       1  UNL1        0.0487
     42 H           2.2121    2.7254   -1.3403 H       1  UNL1        0.0836
     43 H           1.1618    6.7826   -0.9993 H       1  UNL1        0.0851
     44 H          -1.1390    7.1220    0.4677 H       1  UNL1        0.1654
     45 H          -2.8543    5.5336    1.7245 H       1  UNL1        0.0807
     46 H          -2.0106    3.1027    1.3775 H       1  UNL1        0.0639
     47 H          -1.8193    1.3797    0.1932 H       1  UNL1        0.0660
     48 H          -1.9852   -3.4718    0.7679 H       1  UNL1        0.1029
     49 H          -3.4201   -0.3591    1.5647 H       1  UNL1        0.0770
     50 H          -3.0241   -0.0616   -1.3079 H       1  UNL1        0.0266
     51 H          -4.1448    0.8247   -0.2524 H       1  UNL1        0.0266
     52 H          -4.6976   -0.7079   -0.9740 H       1  UNL1        0.0266
     53 H          -5.1728   -3.5138   -1.0856 H       1  UNL1        0.0464
     54 H          -4.1066   -4.5552   -0.1274 H       1  UNL1        0.0464
     55 H          -3.3711   -3.2817   -1.1820 H       1  UNL1        0.0464
@<TRIPOS>BOND
     1     1     2    1
     2     2     3    1
     3     3     4    1
     4     4     5    1
     5     5     6    1
     6     6     7    1
     7     7     8    1
     8     8     9   ar
     9     9    10   ar
    10    10    11    1
    11    11    12   ar
    12    12    13   ar
    13    13    14   ar
    14    14    15   ar
    15    15    16   ar
    16    16    17   ar
    17    17    18   ar
    18    18    19   ar
    19    10    20   ar
    20    20    21   ar
    21    21    22   ar
    22    22    23   ar
    23    23    24   ar
    24    24    25   ar
    25    25    26    1
    26    26    27    1
    27    26    28    1
    28    28    29    1
    29    28    30    2
    30    28    31    2
    31     7     2    1
    32    22     8   ar
    33    19    11   ar
    34    25    21   ar
    35    19    15   ar
    36     1    32    1
    37     1    33    1
    38     1    34    1
    39     2    35    1
    40     3    36    1
    41     3    37    1
    42     5    38    1
    43     5    39    1
    44     6    40    1
    45     6    41    1
    46    12    42    1
    47    14    43    1
    48    16    44    1
    49    17    45    1
    50    18    46    1
    51    20    47    1
    52    24    48    1
    53    26    49    1
    54    27    50    1
    55    27    51    1
    56    27    52    1
    57    29    53    1
    58    29    54    1
    59    29    55    1
