@<TRIPOS>MOLECULE
*****
 15 14 0 0 0
SMALL
GASTEIGER

@<TRIPOS>ATOM
      1 O          -1.0583    1.6223   -0.0082 O.3     1  UNL1       -0.3924
      2 C          -0.7927    0.4166   -0.6541 C.3     1  UNL1        0.0710
      3 C          -0.6540   -0.7264    0.3020 C.3     1  UNL1        0.0892
      4 O          -0.3972   -1.8727   -0.4319 O.3     1  UNL1       -0.3886
      5 C           0.4395   -0.4802    1.3313 C.3     1  UNL1        0.0477
      6 S           2.0424   -0.2537    0.5227 S.3     1  UNL1       -0.0088
      7 O           2.1028    1.1721   -0.4136 O.3     1  UNL1       -0.3288
      8 H          -0.6730    2.3670   -0.5284 H       1  UNL1        0.2095
      9 H          -1.6688    0.1656   -1.3082 H       1  UNL1        0.0583
     10 H           0.0658    0.4900   -1.3519 H       1  UNL1        0.0583
     11 H          -1.6281   -0.8577    0.8153 H       1  UNL1        0.0625
     12 H          -1.1983   -2.1364   -0.9452 H       1  UNL1        0.2099
     13 H           0.5294   -1.3669    1.9893 H       1  UNL1        0.0424
     14 H           0.2272    0.4409    1.9208 H       1  UNL1        0.0424
     15 H           2.6632    1.0196   -1.2397 H       1  UNL1        0.2273
@<TRIPOS>BOND
     1     1     2    1
     2     2     3    1
     3     3     4    1
     4     3     5    1
     5     5     6    1
     6     6     7    1
     7     1     8    1
     8     2     9    1
     9     2    10    1
    10     3    11    1
    11     4    12    1
    12     5    13    1
    13     5    14    1
    14     7    15    1
