
     RDKit          3D

 33 34  0  0  0  0  0  0  0  0999 V2000
    4.7046   -2.5368   -1.3812 O   0  0  0  0  0  0  0  0  0  0  0  0
    4.6965   -1.7772   -0.3885 C   0  0  0  0  0  0  0  0  0  0  0  0
    5.5184   -2.1113    0.6893 O   0  0  0  0  0  0  0  0  0  0  0  0
    3.8441   -0.5612   -0.3536 C   0  0  0  0  0  0  0  0  0  0  0  0
    4.0135    0.1541    0.8997 N   0  0  0  0  0  0  0  0  0  0  0  0
    3.0004    1.5360    0.8576 S   0  0  0  0  0  6  0  0  0  0  0  0
    3.3688    2.3958   -0.3178 O   0  0  0  0  0  0  0  0  0  0  0  0
    3.1743    2.3787    2.0962 O   0  0  0  0  0  0  0  0  0  0  0  0
    1.3166    1.1190    0.7119 C   0  0  0  0  0  0  0  0  0  0  0  0
    0.7904    0.9991   -0.5570 C   0  0  0  0  0  0  0  0  0  0  0  0
   -0.5163    0.6770   -0.8060 C   0  0  0  0  0  0  0  0  0  0  0  0
   -1.3836    0.4528    0.2645 C   0  0  0  0  0  0  0  0  0  0  0  0
   -2.7799    0.1092    0.0216 C   0  0  0  0  0  0  0  0  0  0  0  0
   -3.4848   -0.7050    0.8975 C   0  0  0  0  0  0  0  0  0  0  0  0
   -4.8077   -1.0306    0.6696 C   0  0  0  0  0  0  0  0  0  0  0  0
   -5.4277   -0.5282   -0.4573 C   0  0  0  0  0  0  0  0  0  0  0  0
   -7.2474   -0.9768   -0.7687 Br  0  0  0  0  0  0  0  0  0  0  0  0
   -4.7451    0.2911   -1.3541 C   0  0  0  0  0  0  0  0  0  0  0  0
   -3.4257    0.5975   -1.0979 C   0  0  0  0  0  0  0  0  0  0  0  0
   -0.8567    0.5728    1.5391 C   0  0  0  0  0  0  0  0  0  0  0  0
    0.4747    0.9012    1.7655 C   0  0  0  0  0  0  0  0  0  0  0  0
    5.7500   -3.0660    0.9336 H   0  0  0  0  0  0  0  0  0  0  0  0
    4.0811    0.1454   -1.1787 H   0  0  0  0  0  0  0  0  0  0  0  0
    2.7806   -0.8589   -0.5064 H   0  0  0  0  0  0  0  0  0  0  0  0
    3.8531   -0.4372    1.7267 H   0  0  0  0  0  0  0  0  0  0  0  0
    1.4292    1.1652   -1.4340 H   0  0  0  0  0  0  0  0  0  0  0  0
   -0.8960    0.5908   -1.7930 H   0  0  0  0  0  0  0  0  0  0  0  0
   -3.0235   -1.1121    1.7869 H   0  0  0  0  0  0  0  0  0  0  0  0
   -5.3743   -1.6664    1.3447 H   0  0  0  0  0  0  0  0  0  0  0  0
   -5.2951    0.6483   -2.2154 H   0  0  0  0  0  0  0  0  0  0  0  0
   -2.9124    1.2337   -1.8037 H   0  0  0  0  0  0  0  0  0  0  0  0
   -1.5021    0.4061    2.3682 H   0  0  0  0  0  0  0  0  0  0  0  0
    0.8820    0.9938    2.7671 H   0  0  0  0  0  0  0  0  0  0  0  0
  1  2  2  0
  2  3  1  0
  2  4  1  0
  4  5  1  0
  5  6  1  0
  6  7  2  0
  6  8  2  0
  6  9  1  0
  9 10  2  0
 10 11  1  0
 11 12  2  0
 12 13  1  0
 13 14  2  0
 14 15  1  0
 15 16  2  0
 16 17  1  0
 16 18  1  0
 18 19  2  0
 12 20  1  0
 20 21  2  0
 21  9  1  0
 19 13  1  0
  3 22  1  0
  4 23  1  0
  4 24  1  0
  5 25  1  0
 10 26  1  0
 11 27  1  0
 14 28  1  0
 15 29  1  0
 18 30  1  0
 19 31  1  0
 20 32  1  0
 21 33  1  0
M  END
$$$$
