@<TRIPOS>MOLECULE
*****
 33 34 0 0 0
SMALL
GASTEIGER

@<TRIPOS>ATOM
      1 O           4.7046   -2.5368   -1.3812 O.2     1  UNL1       -0.2495
      2 C           4.6965   -1.7772   -0.3885 C.2     1  UNL1        0.3204
      3 O           5.5184   -2.1113    0.6893 O.3     1  UNL1       -0.4797
      4 C           3.8441   -0.5612   -0.3536 C.3     1  UNL1        0.1144
      5 N           4.0135    0.1541    0.8997 N.3     1  UNL1       -0.1792
      6 S           3.0004    1.5360    0.8576 S.O2    1  UNL1        0.0589
      7 O           3.3688    2.3958   -0.3178 O.2     1  UNL1       -0.1530
      8 O           3.1743    2.3787    2.0962 O.2     1  UNL1       -0.1530
      9 C           1.3166    1.1190    0.7119 C.ar    1  UNL1        0.1053
     10 C           0.7904    0.9991   -0.5570 C.ar    1  UNL1       -0.0348
     11 C          -0.5163    0.6770   -0.8060 C.ar    1  UNL1       -0.0522
     12 C          -1.3836    0.4528    0.2645 C.ar    1  UNL1       -0.0178
     13 C          -2.7799    0.1092    0.0216 C.ar    1  UNL1       -0.0178
     14 C          -3.4848   -0.7050    0.8975 C.ar    1  UNL1       -0.0530
     15 C          -4.8077   -1.0306    0.6696 C.ar    1  UNL1       -0.0472
     16 C          -5.4277   -0.5282   -0.4573 C.ar    1  UNL1        0.0179
     17 BR         -7.2474   -0.9768   -0.7687 Br      1  UNL1       -0.0503
     18 C          -4.7451    0.2911   -1.3541 C.ar    1  UNL1       -0.0472
     19 C          -3.4257    0.5975   -1.0979 C.ar    1  UNL1       -0.0530
     20 C          -0.8567    0.5728    1.5391 C.ar    1  UNL1       -0.0522
     21 C           0.4747    0.9012    1.7655 C.ar    1  UNL1       -0.0348
     22 H           5.7500   -3.0660    0.9336 H       1  UNL1        0.2951
     23 H           4.0811    0.1454   -1.1787 H       1  UNL1        0.0556
     24 H           2.7806   -0.8589   -0.5064 H       1  UNL1        0.0556
     25 H           3.8531   -0.4372    1.7267 H       1  UNL1        0.1486
     26 H           1.4292    1.1652   -1.4340 H       1  UNL1        0.0637
     27 H          -0.8960    0.5908   -1.7930 H       1  UNL1        0.0624
     28 H          -3.0235   -1.1121    1.7869 H       1  UNL1        0.0624
     29 H          -5.3743   -1.6664    1.3447 H       1  UNL1        0.0629
     30 H          -5.2951    0.6483   -2.2154 H       1  UNL1        0.0629
     31 H          -2.9124    1.2337   -1.8037 H       1  UNL1        0.0624
     32 H          -1.5021    0.4061    2.3682 H       1  UNL1        0.0624
     33 H           0.8820    0.9938    2.7671 H       1  UNL1        0.0637
@<TRIPOS>BOND
     1     1     2    2
     2     2     3    1
     3     2     4    1
     4     4     5    1
     5     5     6    1
     6     6     7    2
     7     6     8    2
     8     6     9    1
     9     9    10   ar
    10    10    11   ar
    11    11    12   ar
    12    12    13    1
    13    13    14   ar
    14    14    15   ar
    15    15    16   ar
    16    16    17    1
    17    16    18   ar
    18    18    19   ar
    19    12    20   ar
    20    20    21   ar
    21    21     9   ar
    22    19    13   ar
    23     3    22    1
    24     4    23    1
    25     4    24    1
    26     5    25    1
    27    10    26    1
    28    11    27    1
    29    14    28    1
    30    15    29    1
    31    18    30    1
    32    19    31    1
    33    20    32    1
    34    21    33    1
