@<TRIPOS>MOLECULE
*****
 66 71 0 0 0
SMALL
GASTEIGER

@<TRIPOS>ATOM
      1 C          -1.1731    1.9304   -0.5851 C.3     1  UNL1       -0.0358
      2 C          -1.5600    0.5233   -0.4144 C.ar    1  UNL1        0.0011
      3 C          -2.8204    0.0361   -0.7388 C.ar    1  UNL1        0.0596
      4 N          -3.9033    0.7971   -1.2647 N.am    1  UNL1       -0.2494
      5 C          -5.1798    0.2391   -1.5917 C.2     1  UNL1        0.4047
      6 O          -5.3754   -0.9695   -1.4158 O.2     1  UNL1       -0.2261
      7 O          -6.2007    0.9960   -2.0958 O.3     1  UNL1       -0.4485
      8 C          -7.4878    0.6151   -2.4418 C.3     1  UNL1        0.1115
      9 C          -8.3122    0.2275   -1.2755 C.3     1  UNL1        0.0657
     10 C          -8.5436    1.3904   -0.3028 C.3     1  UNL1        0.0662
     11 O          -9.2200    0.9038    0.7889 O.3     1  UNL1       -0.3769
     12 C          -9.9383   -0.2393    0.5265 C.3     1  UNL1        0.0602
     13 C          -9.0273   -1.4123    0.1789 C.3     1  UNL1        0.0198
     14 N          -7.8168   -0.8538   -0.4901 N.3     1  UNL1       -0.3062
     15 C          -2.7834   -1.2936   -0.4471 C.ar    1  UNL1        0.0515
     16 N          -1.5528   -1.6262    0.0393 N.ar    1  UNL1       -0.2331
     17 N          -1.1036   -2.8207    0.4380 N.ar    1  UNL1       -0.1548
     18 C           0.1350   -2.9354    0.8773 C.ar    1  UNL1        0.1388
     19 N           0.9142   -1.8587    0.9152 N.ar    1  UNL1       -0.2167
     20 C           0.5044   -0.6349    0.5238 C.ar    1  UNL1        0.1507
     21 N           1.3452    0.4808    0.5684 N.pl3   1  UNL1       -0.2977
     22 C           2.7341    0.3312    0.8773 C.ar    1  UNL1        0.0332
     23 C           3.4470   -0.8084    0.6054 C.ar    1  UNL1       -0.0385
     24 C           4.8022   -0.9453    0.9281 C.ar    1  UNL1       -0.0343
     25 C           5.4694    0.0874    1.5418 C.ar    1  UNL1        0.0694
     26 C           4.7519    1.2331    1.8144 C.ar    1  UNL1        0.0215
     27 C           5.6698    2.0931    2.4253 C.ar    1  UNL1        0.0572
     28 N           6.8406    1.4511    2.4873 N.ar    1  UNL1       -0.1782
     29 N           6.7524    0.2413    1.9633 N.ar    1  UNL1       -0.2594
     30 C           7.8271   -0.7558    1.8540 C.3     1  UNL1        0.0673
     31 C           8.5380   -0.5846    0.5682 C.ar    1  UNL1       -0.0234
     32 C           8.1944   -1.2510   -0.5908 C.ar    1  UNL1       -0.0566
     33 C           8.8863   -1.0567   -1.7672 C.ar    1  UNL1       -0.0587
     34 C           9.9467   -0.1773   -1.7912 C.ar    1  UNL1       -0.0264
     35 C          10.2922    0.4864   -0.6447 C.ar    1  UNL1        0.1237
     36 F          11.3409    1.3524   -0.6793 F       1  UNL1       -0.2055
     37 C           9.6047    0.2954    0.5308 C.ar    1  UNL1       -0.0215
     38 C           3.4230    1.3727    1.5004 C.ar    1  UNL1       -0.0298
     39 C          -0.8101   -0.5066    0.0560 C.ar    1  UNL1        0.1101
     40 H          -0.3350    2.0299   -1.2833 H       1  UNL1        0.0279
     41 H          -0.9982    2.4087    0.3966 H       1  UNL1        0.0279
     42 H          -2.0259    2.5310   -1.0113 H       1  UNL1        0.0279
     43 H          -3.8255    1.8254   -1.4445 H       1  UNL1        0.1582
     44 H          -8.0038    1.3801   -3.0789 H       1  UNL1        0.0714
     45 H          -7.4234   -0.3216   -3.0965 H       1  UNL1        0.0714
     46 H          -9.3172   -0.1026   -1.6770 H       1  UNL1        0.0517
     47 H          -9.1212    2.1640   -0.8626 H       1  UNL1        0.0576
     48 H          -7.5430    1.7851   -0.0268 H       1  UNL1        0.0576
     49 H         -10.4337   -0.5325    1.4956 H       1  UNL1        0.0572
     50 H         -10.7323   -0.1414   -0.2148 H       1  UNL1        0.0572
     51 H          -8.7543   -1.9741    1.0841 H       1  UNL1        0.0447
     52 H          -9.5898   -2.0710   -0.4974 H       1  UNL1        0.0447
     53 H          -7.2688   -0.4990    0.3607 H       1  UNL1        0.1225
     54 H          -3.5696   -2.0185   -0.5611 H       1  UNL1        0.0849
     55 H           0.4711   -3.9205    1.1943 H       1  UNL1        0.1066
     56 H           1.0219    1.4295    0.3975 H       1  UNL1        0.1536
     57 H           3.0136   -1.6587    0.1164 H       1  UNL1        0.0637
     58 H           5.3416   -1.8429    0.7088 H       1  UNL1        0.0639
     59 H           5.3838    3.0759    2.7519 H       1  UNL1        0.0854
     60 H           8.5312   -0.5347    2.6812 H       1  UNL1        0.0559
     61 H           7.3934   -1.7837    1.9492 H       1  UNL1        0.0559
     62 H           7.3588   -1.9465   -0.5801 H       1  UNL1        0.0621
     63 H           8.6097   -1.5876   -2.6810 H       1  UNL1        0.0619
     64 H          10.4602   -0.0564   -2.7359 H       1  UNL1        0.0646
     65 H           9.8860    0.8242    1.4308 H       1  UNL1        0.0649
     66 H           2.8600    2.2656    1.7124 H       1  UNL1        0.0643
@<TRIPOS>BOND
     1     1     2    1
     2     2     3   ar
     3     3     4    1
     4     4     5   am
     5     5     6    2
     6     5     7    1
     7     7     8    1
     8     8     9    1
     9     9    10    1
    10    10    11    1
    11    11    12    1
    12    12    13    1
    13    13    14    1
    14     3    15   ar
    15    15    16   ar
    16    16    17   ar
    17    17    18   ar
    18    18    19   ar
    19    19    20   ar
    20    20    21    1
    21    21    22    1
    22    22    23   ar
    23    23    24   ar
    24    24    25   ar
    25    25    26   ar
    26    26    27   ar
    27    27    28   ar
    28    28    29   ar
    29    29    30    1
    30    30    31    1
    31    31    32   ar
    32    32    33   ar
    33    33    34   ar
    34    34    35   ar
    35    35    36    1
    36    35    37   ar
    37    26    38   ar
    38    20    39   ar
    39    39     2   ar
    40    14     9    1
    41    39    16   ar
    42    38    22   ar
    43    29    25   ar
    44    37    31   ar
    45     1    40    1
    46     1    41    1
    47     1    42    1
    48     4    43    1
    49     8    44    1
    50     8    45    1
    51     9    46    1
    52    10    47    1
    53    10    48    1
    54    12    49    1
    55    12    50    1
    56    13    51    1
    57    13    52    1
    58    14    53    1
    59    15    54    1
    60    18    55    1
    61    21    56    1
    62    23    57    1
    63    24    58    1
    64    27    59    1
    65    30    60    1
    66    30    61    1
    67    32    62    1
    68    33    63    1
    69    34    64    1
    70    37    65    1
    71    38    66    1
