
     RDKit          3D

 66 71  0  0  0  0  0  0  0  0999 V2000
   -1.1731    1.9304   -0.5851 C   0  0  0  0  0  0  0  0  0  0  0  0
   -1.5600    0.5233   -0.4144 C   0  0  0  0  0  0  0  0  0  0  0  0
   -2.8204    0.0361   -0.7388 C   0  0  0  0  0  0  0  0  0  0  0  0
   -3.9033    0.7971   -1.2647 N   0  0  0  0  0  0  0  0  0  0  0  0
   -5.1798    0.2391   -1.5917 C   0  0  0  0  0  0  0  0  0  0  0  0
   -5.3754   -0.9695   -1.4158 O   0  0  0  0  0  0  0  0  0  0  0  0
   -6.2007    0.9960   -2.0958 O   0  0  0  0  0  0  0  0  0  0  0  0
   -7.4878    0.6151   -2.4418 C   0  0  0  0  0  0  0  0  0  0  0  0
   -8.3122    0.2275   -1.2755 C   0  0  2  0  0  0  0  0  0  0  0  0
   -8.5436    1.3904   -0.3028 C   0  0  0  0  0  0  0  0  0  0  0  0
   -9.2200    0.9038    0.7889 O   0  0  0  0  0  0  0  0  0  0  0  0
   -9.9383   -0.2393    0.5265 C   0  0  0  0  0  0  0  0  0  0  0  0
   -9.0273   -1.4123    0.1789 C   0  0  0  0  0  0  0  0  0  0  0  0
   -7.8168   -0.8538   -0.4901 N   0  0  0  0  0  0  0  0  0  0  0  0
   -2.7834   -1.2936   -0.4471 C   0  0  0  0  0  0  0  0  0  0  0  0
   -1.5528   -1.6262    0.0393 N   0  0  0  0  0  0  0  0  0  0  0  0
   -1.1036   -2.8207    0.4380 N   0  0  0  0  0  0  0  0  0  0  0  0
    0.1350   -2.9354    0.8773 C   0  0  0  0  0  0  0  0  0  0  0  0
    0.9142   -1.8587    0.9152 N   0  0  0  0  0  0  0  0  0  0  0  0
    0.5044   -0.6349    0.5238 C   0  0  0  0  0  0  0  0  0  0  0  0
    1.3452    0.4808    0.5684 N   0  0  0  0  0  0  0  0  0  0  0  0
    2.7341    0.3312    0.8773 C   0  0  0  0  0  0  0  0  0  0  0  0
    3.4470   -0.8084    0.6054 C   0  0  0  0  0  0  0  0  0  0  0  0
    4.8022   -0.9453    0.9281 C   0  0  0  0  0  0  0  0  0  0  0  0
    5.4694    0.0874    1.5418 C   0  0  0  0  0  0  0  0  0  0  0  0
    4.7519    1.2331    1.8144 C   0  0  0  0  0  0  0  0  0  0  0  0
    5.6698    2.0931    2.4253 C   0  0  0  0  0  0  0  0  0  0  0  0
    6.8406    1.4511    2.4873 N   0  0  0  0  0  0  0  0  0  0  0  0
    6.7524    0.2413    1.9633 N   0  0  0  0  0  0  0  0  0  0  0  0
    7.8271   -0.7558    1.8540 C   0  0  0  0  0  0  0  0  0  0  0  0
    8.5380   -0.5846    0.5682 C   0  0  0  0  0  0  0  0  0  0  0  0
    8.1944   -1.2510   -0.5908 C   0  0  0  0  0  0  0  0  0  0  0  0
    8.8863   -1.0567   -1.7672 C   0  0  0  0  0  0  0  0  0  0  0  0
    9.9467   -0.1773   -1.7912 C   0  0  0  0  0  0  0  0  0  0  0  0
   10.2922    0.4864   -0.6447 C   0  0  0  0  0  0  0  0  0  0  0  0
   11.3409    1.3524   -0.6793 F   0  0  0  0  0  0  0  0  0  0  0  0
    9.6047    0.2954    0.5308 C   0  0  0  0  0  0  0  0  0  0  0  0
    3.4230    1.3727    1.5004 C   0  0  0  0  0  0  0  0  0  0  0  0
   -0.8101   -0.5066    0.0560 C   0  0  0  0  0  0  0  0  0  0  0  0
   -0.3350    2.0299   -1.2833 H   0  0  0  0  0  0  0  0  0  0  0  0
   -0.9982    2.4087    0.3966 H   0  0  0  0  0  0  0  0  0  0  0  0
   -2.0259    2.5310   -1.0113 H   0  0  0  0  0  0  0  0  0  0  0  0
   -3.8255    1.8254   -1.4445 H   0  0  0  0  0  0  0  0  0  0  0  0
   -8.0038    1.3801   -3.0789 H   0  0  0  0  0  0  0  0  0  0  0  0
   -7.4234   -0.3216   -3.0965 H   0  0  0  0  0  0  0  0  0  0  0  0
   -9.3172   -0.1026   -1.6770 H   0  0  0  0  0  0  0  0  0  0  0  0
   -9.1212    2.1640   -0.8626 H   0  0  0  0  0  0  0  0  0  0  0  0
   -7.5430    1.7851   -0.0268 H   0  0  0  0  0  0  0  0  0  0  0  0
  -10.4337   -0.5325    1.4956 H   0  0  0  0  0  0  0  0  0  0  0  0
  -10.7323   -0.1414   -0.2148 H   0  0  0  0  0  0  0  0  0  0  0  0
   -8.7543   -1.9741    1.0841 H   0  0  0  0  0  0  0  0  0  0  0  0
   -9.5898   -2.0710   -0.4974 H   0  0  0  0  0  0  0  0  0  0  0  0
   -7.2688   -0.4990    0.3607 H   0  0  0  0  0  0  0  0  0  0  0  0
   -3.5696   -2.0185   -0.5611 H   0  0  0  0  0  0  0  0  0  0  0  0
    0.4711   -3.9205    1.1943 H   0  0  0  0  0  0  0  0  0  0  0  0
    1.0219    1.4295    0.3975 H   0  0  0  0  0  0  0  0  0  0  0  0
    3.0136   -1.6587    0.1164 H   0  0  0  0  0  0  0  0  0  0  0  0
    5.3416   -1.8429    0.7088 H   0  0  0  0  0  0  0  0  0  0  0  0
    5.3838    3.0759    2.7519 H   0  0  0  0  0  0  0  0  0  0  0  0
    8.5312   -0.5347    2.6812 H   0  0  0  0  0  0  0  0  0  0  0  0
    7.3934   -1.7837    1.9492 H   0  0  0  0  0  0  0  0  0  0  0  0
    7.3588   -1.9465   -0.5801 H   0  0  0  0  0  0  0  0  0  0  0  0
    8.6097   -1.5876   -2.6810 H   0  0  0  0  0  0  0  0  0  0  0  0
   10.4602   -0.0564   -2.7359 H   0  0  0  0  0  0  0  0  0  0  0  0
    9.8860    0.8242    1.4308 H   0  0  0  0  0  0  0  0  0  0  0  0
    2.8600    2.2656    1.7124 H   0  0  0  0  0  0  0  0  0  0  0  0
  1  2  1  0
  2  3  1  0
  3  4  1  0
  4  5  1  0
  5  6  2  0
  5  7  1  0
  7  8  1  0
  8  9  1  0
  9 10  1  0
 10 11  1  0
 11 12  1  0
 12 13  1  0
 13 14  1  0
  3 15  2  0
 15 16  1  0
 16 17  1  0
 17 18  2  0
 18 19  1  0
 19 20  2  0
 20 21  1  0
 21 22  1  0
 22 23  2  0
 23 24  1  0
 24 25  2  0
 25 26  1  0
 26 27  1  0
 27 28  2  0
 28 29  1  0
 29 30  1  0
 30 31  1  0
 31 32  2  0
 32 33  1  0
 33 34  2  0
 34 35  1  0
 35 36  1  0
 35 37  2  0
 26 38  2  0
 20 39  1  0
 39  2  2  0
 14  9  1  0
 39 16  1  0
 38 22  1  0
 29 25  1  0
 37 31  1  0
  1 40  1  0
  1 41  1  0
  1 42  1  0
  4 43  1  0
  8 44  1  0
  8 45  1  0
  9 46  1  6
 10 47  1  0
 10 48  1  0
 12 49  1  0
 12 50  1  0
 13 51  1  0
 13 52  1  0
 14 53  1  0
 15 54  1  0
 18 55  1  0
 21 56  1  0
 23 57  1  0
 24 58  1  0
 27 59  1  0
 30 60  1  0
 30 61  1  0
 32 62  1  0
 33 63  1  0
 34 64  1  0
 37 65  1  0
 38 66  1  0
M  END
$$$$
