@<TRIPOS>MOLECULE
*****
 44 47 0 0 0
SMALL
GASTEIGER

@<TRIPOS>ATOM
      1 C          -2.2798   -1.7620   -0.0891 C.3     1  UNL1       -0.0354
      2 C          -2.8279   -0.3435   -0.0479 C.3     1  UNL1        0.0897
      3 C          -1.6457    0.5727   -0.1615 C.ar    1  UNL1        0.0154
      4 C          -0.3758    0.0909   -0.3697 C.ar    1  UNL1       -0.0464
      5 C           0.7448    0.9157   -0.4843 C.ar    1  UNL1        0.0021
      6 C           2.0960    0.3339   -0.7078 C.3     1  UNL1        0.0245
      7 N           2.8877    0.3518    0.4982 N.3     1  UNL1       -0.3065
      8 C           4.0847   -0.1329    0.4018 C.3     1  UNL1        0.0202
      9 C           5.1261   -0.2623    1.4883 C.3     1  UNL1       -0.0317
     10 C           5.8120   -0.8210    0.2723 C.3     1  UNL1       -0.0360
     11 C           4.5159   -1.5230   -0.0174 C.3     1  UNL1       -0.0317
     12 C           5.2239    0.3528   -0.4612 C.3     1  UNL1       -0.0317
     13 C           0.5572    2.2740   -0.3825 C.ar    1  UNL1        0.1305
     14 F           1.6113    3.1277   -0.4863 F       1  UNL1       -0.2051
     15 C          -0.7090    2.7730   -0.1739 C.ar    1  UNL1        0.0095
     16 C          -1.8011    1.9437   -0.0632 C.ar    1  UNL1        0.1316
     17 F          -3.0499    2.4363    0.1464 F       1  UNL1       -0.2050
     18 C          -3.6987   -0.0699   -1.2059 C.3     1  UNL1       -0.0142
     19 C          -5.1090   -0.5001   -1.1676 C.3     1  UNL1        0.0034
     20 S          -5.4181   -1.4269    0.3694 S.3     1  UNL1       -0.0910
     21 C          -4.5338   -0.5077    1.6020 C.2     1  UNL1        0.1475
     22 N          -5.0637   -0.2583    2.8659 N.pl3   1  UNL1       -0.3380
     23 N          -3.3822   -0.0874    1.2621 N.2     1  UNL1       -0.2524
     24 H          -3.0803   -2.5066    0.1311 H       1  UNL1        0.0256
     25 H          -1.5029   -1.9342    0.6838 H       1  UNL1        0.0256
     26 H          -1.8037   -1.9591   -1.0736 H       1  UNL1        0.0256
     27 H          -0.1654   -0.9589   -0.4587 H       1  UNL1        0.0626
     28 H           2.6145    0.8841   -1.5365 H       1  UNL1        0.0474
     29 H           1.9938   -0.7215   -1.0797 H       1  UNL1        0.0474
     30 H           2.3374    0.3546    1.3570 H       1  UNL1        0.1228
     31 H           5.4971    0.7118    1.8060 H       1  UNL1        0.0286
     32 H           4.8637   -0.9899    2.2834 H       1  UNL1        0.0286
     33 H           6.7391   -1.1826    0.1930 H       1  UNL1        0.0303
     34 H           4.2276   -2.3191    0.6843 H       1  UNL1        0.0286
     35 H           4.3281   -1.7337   -1.0992 H       1  UNL1        0.0286
     36 H           5.5772    1.3432   -0.1109 H       1  UNL1        0.0286
     37 H           5.0422    0.2336   -1.5360 H       1  UNL1        0.0286
     38 H          -0.8355    3.8524   -0.0960 H       1  UNL1        0.0675
     39 H          -3.2243   -0.5912   -2.0992 H       1  UNL1        0.0300
     40 H          -3.6546    1.0158   -1.5281 H       1  UNL1        0.0300
     41 H          -5.7716    0.4138   -1.0851 H       1  UNL1        0.0381
     42 H          -5.3953   -1.0880   -2.0581 H       1  UNL1        0.0381
     43 H          -6.0710   -0.4335    3.1372 H       1  UNL1        0.1442
     44 H          -4.4810    0.1312    3.6554 H       1  UNL1        0.1442
@<TRIPOS>BOND
     1     2     1    1
     2     2     3    1
     3     3     4   ar
     4     4     5   ar
     5     5     6    1
     6     6     7    1
     7     7     8    1
     8     8     9    1
     9     9    10    1
    10    10    11    1
    11    10    12    1
    12     5    13   ar
    13    13    14    1
    14    13    15   ar
    15    15    16   ar
    16    16    17    1
    17     2    18    1
    18    18    19    1
    19    19    20    1
    20    20    21    1
    21    21    22    1
    22    21    23    2
    23    23     2    1
    24    16     3   ar
    25    11     8    1
    26    12     8    1
    27     1    24    1
    28     1    25    1
    29     1    26    1
    30     4    27    1
    31     6    28    1
    32     6    29    1
    33     7    30    1
    34     9    31    1
    35     9    32    1
    36    10    33    1
    37    11    34    1
    38    11    35    1
    39    12    36    1
    40    12    37    1
    41    15    38    1
    42    18    39    1
    43    18    40    1
    44    19    41    1
    45    19    42    1
    46    22    43    1
    47    22    44    1
