
     RDKit          3D

 44 47  0  0  0  0  0  0  0  0999 V2000
   -2.2798   -1.7620   -0.0891 C   0  0  0  0  0  0  0  0  0  0  0  0
   -2.8279   -0.3435   -0.0479 C   0  0  1  0  0  0  0  0  0  0  0  0
   -1.6457    0.5727   -0.1615 C   0  0  0  0  0  0  0  0  0  0  0  0
   -0.3758    0.0909   -0.3697 C   0  0  0  0  0  0  0  0  0  0  0  0
    0.7448    0.9157   -0.4843 C   0  0  0  0  0  0  0  0  0  0  0  0
    2.0960    0.3339   -0.7078 C   0  0  0  0  0  0  0  0  0  0  0  0
    2.8877    0.3518    0.4982 N   0  0  0  0  0  0  0  0  0  0  0  0
    4.0847   -0.1329    0.4018 C   0  0  0  0  0  0  0  0  0  0  0  0
    5.1261   -0.2623    1.4883 C   0  0  0  0  0  0  0  0  0  0  0  0
    5.8120   -0.8210    0.2723 C   0  0  0  0  0  0  0  0  0  0  0  0
    4.5159   -1.5230   -0.0174 C   0  0  0  0  0  0  0  0  0  0  0  0
    5.2239    0.3528   -0.4612 C   0  0  0  0  0  0  0  0  0  0  0  0
    0.5572    2.2740   -0.3825 C   0  0  0  0  0  0  0  0  0  0  0  0
    1.6113    3.1277   -0.4863 F   0  0  0  0  0  0  0  0  0  0  0  0
   -0.7090    2.7730   -0.1739 C   0  0  0  0  0  0  0  0  0  0  0  0
   -1.8011    1.9437   -0.0632 C   0  0  0  0  0  0  0  0  0  0  0  0
   -3.0499    2.4363    0.1464 F   0  0  0  0  0  0  0  0  0  0  0  0
   -3.6987   -0.0699   -1.2059 C   0  0  0  0  0  0  0  0  0  0  0  0
   -5.1090   -0.5001   -1.1676 C   0  0  0  0  0  0  0  0  0  0  0  0
   -5.4181   -1.4269    0.3694 S   0  0  0  0  0  0  0  0  0  0  0  0
   -4.5338   -0.5077    1.6020 C   0  0  0  0  0  0  0  0  0  0  0  0
   -5.0637   -0.2583    2.8659 N   0  0  0  0  0  0  0  0  0  0  0  0
   -3.3822   -0.0874    1.2621 N   0  0  0  0  0  0  0  0  0  0  0  0
   -3.0803   -2.5066    0.1311 H   0  0  0  0  0  0  0  0  0  0  0  0
   -1.5029   -1.9342    0.6838 H   0  0  0  0  0  0  0  0  0  0  0  0
   -1.8037   -1.9591   -1.0736 H   0  0  0  0  0  0  0  0  0  0  0  0
   -0.1654   -0.9589   -0.4587 H   0  0  0  0  0  0  0  0  0  0  0  0
    2.6145    0.8841   -1.5365 H   0  0  0  0  0  0  0  0  0  0  0  0
    1.9938   -0.7215   -1.0797 H   0  0  0  0  0  0  0  0  0  0  0  0
    2.3374    0.3546    1.3570 H   0  0  0  0  0  0  0  0  0  0  0  0
    5.4971    0.7118    1.8060 H   0  0  0  0  0  0  0  0  0  0  0  0
    4.8637   -0.9899    2.2834 H   0  0  0  0  0  0  0  0  0  0  0  0
    6.7391   -1.1826    0.1930 H   0  0  0  0  0  0  0  0  0  0  0  0
    4.2276   -2.3191    0.6843 H   0  0  0  0  0  0  0  0  0  0  0  0
    4.3281   -1.7337   -1.0992 H   0  0  0  0  0  0  0  0  0  0  0  0
    5.5772    1.3432   -0.1109 H   0  0  0  0  0  0  0  0  0  0  0  0
    5.0422    0.2336   -1.5360 H   0  0  0  0  0  0  0  0  0  0  0  0
   -0.8355    3.8524   -0.0960 H   0  0  0  0  0  0  0  0  0  0  0  0
   -3.2243   -0.5912   -2.0992 H   0  0  0  0  0  0  0  0  0  0  0  0
   -3.6546    1.0158   -1.5281 H   0  0  0  0  0  0  0  0  0  0  0  0
   -5.7716    0.4138   -1.0851 H   0  0  0  0  0  0  0  0  0  0  0  0
   -5.3953   -1.0880   -2.0581 H   0  0  0  0  0  0  0  0  0  0  0  0
   -6.0710   -0.4335    3.1372 H   0  0  0  0  0  0  0  0  0  0  0  0
   -4.4810    0.1312    3.6554 H   0  0  0  0  0  0  0  0  0  0  0  0
  2  1  1  1
  2  3  1  0
  3  4  2  0
  4  5  1  0
  5  6  1  0
  6  7  1  0
  7  8  1  0
  8  9  1  0
  9 10  1  0
 10 11  1  0
 10 12  1  0
  5 13  2  0
 13 14  1  0
 13 15  1  0
 15 16  2  0
 16 17  1  0
  2 18  1  0
 18 19  1  0
 19 20  1  0
 20 21  1  0
 21 22  1  0
 21 23  2  0
 23  2  1  0
 16  3  1  0
 11  8  1  0
 12  8  1  0
  1 24  1  0
  1 25  1  0
  1 26  1  0
  4 27  1  0
  6 28  1  0
  6 29  1  0
  7 30  1  0
  9 31  1  0
  9 32  1  0
 10 33  1  0
 11 34  1  0
 11 35  1  0
 12 36  1  0
 12 37  1  0
 15 38  1  0
 18 39  1  0
 18 40  1  0
 19 41  1  0
 19 42  1  0
 22 43  1  0
 22 44  1  0
M  END
$$$$
