@<TRIPOS>MOLECULE
*****
 36 38 0 0 0
SMALL
GASTEIGER

@<TRIPOS>ATOM
      1 C          -1.5170    2.7493    1.5395 C.3     1  UNL1       -0.0242
      2 C          -2.1522    1.5622    0.8945 C.ar    1  UNL1        0.0171
      3 C          -1.5953    0.5472    0.1546 C.ar    1  UNL1       -0.0179
      4 C          -0.1271    0.5361   -0.1051 C.3     1  UNL1       -0.0098
      5 C           0.6048    0.0960    1.1290 C.3     1  UNL1        0.0160
      6 N           2.0573    0.0696    0.9216 N.am    1  UNL1       -0.3106
      7 C           2.5280   -0.7881   -0.0940 C.2     1  UNL1        0.2507
      8 O           1.8834   -1.5264   -0.8388 O.2     1  UNL1       -0.2696
      9 C           3.9892   -0.7716   -0.2552 C.ar    1  UNL1        0.0738
     10 C           5.0205   -0.0691    0.4020 C.ar    1  UNL1       -0.0425
     11 C           6.2812   -0.3068   -0.0187 C.ar    1  UNL1       -0.0540
     12 C           6.4735   -1.1969   -1.0361 C.ar    1  UNL1       -0.0236
     13 S           4.8865   -1.8007   -1.5145 S.2     1  UNL1       -0.0921
     14 C          -2.6117   -0.3006   -0.2093 C.ar    1  UNL1        0.0031
     15 C          -2.5179   -1.4556   -0.9583 C.ar    1  UNL1       -0.0523
     16 C          -3.7163   -2.1289   -1.1802 C.ar    1  UNL1       -0.0611
     17 C          -4.9157   -1.6561   -0.6745 C.ar    1  UNL1       -0.0598
     18 C          -4.9489   -0.4828    0.0758 C.ar    1  UNL1       -0.0378
     19 C          -3.7770    0.2242    0.3236 C.ar    1  UNL1        0.0469
     20 N          -3.4754    1.3544    0.9894 N.ar    1  UNL1       -0.3579
     21 H          -2.1734    3.6354    1.4794 H       1  UNL1        0.0292
     22 H          -0.5251    2.9433    1.1164 H       1  UNL1        0.0292
     23 H          -1.3797    2.5756    2.6357 H       1  UNL1        0.0292
     24 H           0.2271    1.5742   -0.3198 H       1  UNL1        0.0329
     25 H           0.0233   -0.1232   -0.9672 H       1  UNL1        0.0329
     26 H           0.3996    0.8226    1.9358 H       1  UNL1        0.0465
     27 H           0.2866   -0.9095    1.4835 H       1  UNL1        0.0465
     28 H           2.6912    0.6697    1.5138 H       1  UNL1        0.1490
     29 H           4.6982    0.6002    1.1883 H       1  UNL1        0.0630
     30 H           7.1221    0.2174    0.4632 H       1  UNL1        0.0623
     31 H           7.5116   -1.4550   -1.4514 H       1  UNL1        0.0693
     32 H          -1.5898   -1.8229   -1.3507 H       1  UNL1        0.0624
     33 H          -3.7187   -3.0526   -1.7660 H       1  UNL1        0.0618
     34 H          -5.8613   -2.1513   -0.8264 H       1  UNL1        0.0618
     35 H          -5.8749   -0.0982    0.4786 H       1  UNL1        0.0638
     36 H          -4.2069    1.9189    1.4731 H       1  UNL1        0.1656
@<TRIPOS>BOND
     1     1     2    1
     2     2     3   ar
     3     3     4    1
     4     4     5    1
     5     5     6    1
     6     6     7   am
     7     7     8    2
     8     7     9    1
     9     9    10   ar
    10    10    11   ar
    11    11    12   ar
    12    12    13   ar
    13     3    14   ar
    14    14    15   ar
    15    15    16   ar
    16    16    17   ar
    17    17    18   ar
    18    18    19   ar
    19    19    20   ar
    20    20     2   ar
    21    13     9   ar
    22    19    14   ar
    23     1    21    1
    24     1    22    1
    25     1    23    1
    26     4    24    1
    27     4    25    1
    28     5    26    1
    29     5    27    1
    30     6    28    1
    31    10    29    1
    32    11    30    1
    33    12    31    1
    34    15    32    1
    35    16    33    1
    36    17    34    1
    37    18    35    1
    38    20    36    1
