@<TRIPOS>MOLECULE
*****
 49 54 0 0 0
SMALL
GASTEIGER

@<TRIPOS>ATOM
      1 C          -7.9664    0.3632    1.0381 C.3     1  UNL1        0.0085
      2 N          -6.5760    0.7626    1.0595 N.am    1  UNL1       -0.2674
      3 C          -6.1550    2.0831    1.3640 C.2     1  UNL1        0.2573
      4 O          -7.0340    2.9558    1.5432 O.2     1  UNL1       -0.2715
      5 C          -4.7328    2.4951    1.4834 C.3     1  UNL1        0.1658
      6 O          -3.8383    1.4801    1.0864 O.3     1  UNL1       -0.4802
      7 C          -4.2564    0.2064    0.7932 C.ar    1  UNL1        0.1531
      8 C          -5.5742   -0.1943    0.7665 C.ar    1  UNL1        0.0970
      9 C          -5.9076   -1.4907    0.4631 C.ar    1  UNL1        0.0532
     10 N          -4.9893   -2.4214    0.1813 N.ar    1  UNL1       -0.2529
     11 C          -3.6974   -2.0349    0.2060 C.ar    1  UNL1        0.0747
     12 C          -2.7628   -3.0141   -0.0861 C.ar    1  UNL1       -0.0346
     13 C          -1.4407   -2.6541   -0.0670 C.ar    1  UNL1       -0.0458
     14 C          -1.0259   -1.3707    0.2290 C.ar    1  UNL1        0.0164
     15 S           0.7234   -0.9767    0.2429 S.3     1  UNL1       -0.0496
     16 C           1.2051   -0.4527   -1.4079 C.ar    1  UNL1        0.2007
     17 N           0.4549   -0.3541   -2.5040 N.ar    1  UNL1       -0.1214
     18 N           1.2467    0.0729   -3.4698 N.ar    1  UNL1       -0.1256
     19 C           2.4977    0.2500   -3.0074 C.ar    1  UNL1        0.1972
     20 C           3.6892    0.6695   -3.5647 C.ar    1  UNL1        0.1684
     21 F           3.6993    0.9971   -4.8647 F       1  UNL1       -0.2016
     22 C           4.8154    0.7364   -2.7731 C.ar    1  UNL1       -0.0135
     23 C           4.8029    0.3990   -1.4359 C.ar    1  UNL1        0.0045
     24 C           6.0247    0.4845   -0.6219 C.ar    1  UNL1        0.0210
     25 C           7.3280    0.2868   -1.0247 C.ar    1  UNL1        0.0571
     26 N           8.1054    0.4684    0.0529 N.ar    1  UNL1       -0.1793
     27 N           7.3531    0.7641    1.0841 N.ar    1  UNL1       -0.2739
     28 C           7.8188    1.0326    2.4304 C.3     1  UNL1        0.0302
     29 C           6.0579    0.7878    0.7241 C.ar    1  UNL1        0.0329
     30 C           3.5928   -0.0142   -0.9218 C.ar    1  UNL1        0.0216
     31 N           2.4783   -0.0804   -1.7048 N.ar    1  UNL1       -0.2744
     32 C          -1.9709   -0.4177    0.5149 C.ar    1  UNL1       -0.0351
     33 C          -3.2984   -0.7490    0.5032 C.ar    1  UNL1        0.0450
     34 H          -8.1416   -0.5109    1.7320 H       1  UNL1        0.0433
     35 H          -8.3159    0.0369    0.0499 H       1  UNL1        0.0433
     36 H          -8.6372    1.1745    1.3897 H       1  UNL1        0.0433
     37 H          -4.5480    2.8139    2.5351 H       1  UNL1        0.0795
     38 H          -4.5855    3.4222    0.8686 H       1  UNL1        0.0795
     39 H          -6.9686   -1.7674    0.4531 H       1  UNL1        0.0850
     40 H          -3.0568   -4.0392   -0.3245 H       1  UNL1        0.0639
     41 H          -0.7270   -3.4572   -0.3038 H       1  UNL1        0.0629
     42 H           5.7592    1.0672   -3.2078 H       1  UNL1        0.0654
     43 H           7.6110    0.0332   -2.0391 H       1  UNL1        0.0854
     44 H           8.0820    0.0565    2.8834 H       1  UNL1        0.0473
     45 H           7.0380    1.5016    3.0430 H       1  UNL1        0.0473
     46 H           8.7552    1.6212    2.3848 H       1  UNL1        0.0473
     47 H           5.1926    1.0002    1.3476 H       1  UNL1        0.0832
     48 H           3.5600   -0.2848    0.1280 H       1  UNL1        0.0820
     49 H          -1.6850    0.5827    0.7475 H       1  UNL1        0.0636
@<TRIPOS>BOND
     1     1     2    1
     2     2     3   am
     3     3     4    2
     4     3     5    1
     5     5     6    1
     6     6     7    1
     7     7     8   ar
     8     8     9   ar
     9     9    10   ar
    10    10    11   ar
    11    11    12   ar
    12    12    13   ar
    13    13    14   ar
    14    14    15    1
    15    15    16    1
    16    16    17   ar
    17    17    18   ar
    18    18    19   ar
    19    19    20   ar
    20    20    21    1
    21    20    22   ar
    22    22    23   ar
    23    23    24    1
    24    24    25   ar
    25    25    26   ar
    26    26    27   ar
    27    27    28    1
    28    27    29   ar
    29    23    30   ar
    30    30    31   ar
    31    14    32   ar
    32    32    33   ar
    33     8     2    1
    34    33    11   ar
    35    33     7   ar
    36    31    16   ar
    37    31    19   ar
    38    29    24   ar
    39     1    34    1
    40     1    35    1
    41     1    36    1
    42     5    37    1
    43     5    38    1
    44     9    39    1
    45    12    40    1
    46    13    41    1
    47    22    42    1
    48    25    43    1
    49    28    44    1
    50    28    45    1
    51    28    46    1
    52    29    47    1
    53    30    48    1
    54    32    49    1
