@<TRIPOS>MOLECULE
*****
 84 89 0 0 0
SMALL
GASTEIGER

@<TRIPOS>ATOM
      1 C           2.2400   -1.9904   -0.1635 C.3     1  UNL1       -0.0387
      2 C           3.5799   -1.3786   -0.3360 C.2     1  UNL1       -0.0346
      3 C           4.0191   -0.2759    0.2193 C.2     1  UNL1        0.0221
      4 C           3.3398    0.6538    1.1498 C.2     1  UNL1        0.2412
      5 O           3.9959    1.6914    1.5467 O.2     1  UNL1       -0.2705
      6 N           2.0496    0.5472    1.6646 N.am    1  UNL1       -0.3005
      7 C           1.4896    1.5386    2.5754 C.3     1  UNL1        0.0969
      8 C           1.2818    0.9057    3.9619 C.3     1  UNL1       -0.0381
      9 C           0.1705    2.0417    2.1583 C.2     1  UNL1        0.2337
     10 O          -0.4110    2.9731    2.7805 O.2     1  UNL1       -0.2738
     11 N          -0.5711    1.5331    1.0273 N.am    1  UNL1       -0.3022
     12 C          -1.8493    2.0658    0.6618 C.3     1  UNL1        0.1034
     13 C          -1.7606    2.6982   -0.6992 C.3     1  UNL1        0.0013
     14 C          -0.8009    3.7987   -0.8150 C.ar    1  UNL1       -0.0201
     15 C          -1.0983    5.1650   -0.6774 C.ar    1  UNL1        0.0060
     16 N           0.0355    5.8248   -0.8049 N.ar    1  UNL1       -0.3604
     17 C           1.0513    4.9804   -1.0172 C.ar    1  UNL1        0.0467
     18 C           2.3913    5.2282   -1.2122 C.ar    1  UNL1       -0.0378
     19 C           3.2275    4.1547   -1.4222 C.ar    1  UNL1       -0.0598
     20 C           2.7672    2.8560   -1.4428 C.ar    1  UNL1       -0.0611
     21 C           1.4276    2.6217   -1.2464 C.ar    1  UNL1       -0.0523
     22 C           0.5625    3.6686   -1.0325 C.ar    1  UNL1        0.0029
     23 C          -2.9248    1.0212    0.6783 C.2     1  UNL1        0.2342
     24 O          -4.0907    1.3818    0.3682 O.2     1  UNL1       -0.2738
     25 N          -2.7132   -0.3280    1.0185 N.am    1  UNL1       -0.3037
     26 C          -3.8094   -1.3133    1.0264 C.3     1  UNL1        0.0884
     27 C          -3.4967   -2.4379    0.0630 C.3     1  UNL1       -0.0022
     28 C          -3.3348   -1.9644   -1.3213 C.ar    1  UNL1       -0.0452
     29 C          -4.3995   -1.8738   -2.2089 C.ar    1  UNL1       -0.0585
     30 C          -4.2567   -1.4394   -3.4902 C.ar    1  UNL1       -0.0615
     31 C          -3.0178   -1.0701   -3.9459 C.ar    1  UNL1       -0.0617
     32 C          -1.9113   -1.1412   -3.0956 C.ar    1  UNL1       -0.0615
     33 C          -2.0962   -1.5884   -1.7981 C.ar    1  UNL1       -0.0585
     34 C          -3.9452   -1.7781    2.4319 C.2     1  UNL1        0.1871
     35 O          -3.1646   -1.3803    3.3150 O.2     1  UNL1       -0.2923
     36 C          -4.9800   -2.7231    2.9170 C.3     1  UNL1        0.1492
     37 C          -6.0100   -3.2643    1.9456 C.3     1  UNL1       -0.0266
     38 C          -4.4951   -3.7696    3.9214 C.3     1  UNL1        0.0847
     39 O          -5.3147   -2.6993    4.2732 O.3     1  UNL1       -0.3605
     40 C           5.4198   -0.0541   -0.2439 C.3     1  UNL1        0.0033
     41 C           5.7252   -1.1648   -1.1239 C.ar    1  UNL1       -0.0355
     42 C           6.8680   -1.5229   -1.8610 C.ar    1  UNL1       -0.0577
     43 C           6.9233   -2.6477   -2.6451 C.ar    1  UNL1       -0.0615
     44 C           5.8027   -3.4455   -2.6992 C.ar    1  UNL1       -0.0612
     45 C           4.6800   -3.1052   -1.9827 C.ar    1  UNL1       -0.0541
     46 C           4.6287   -1.9725   -1.1945 C.ar    1  UNL1       -0.0182
     47 H           2.2121   -2.9096   -0.8380 H       1  UNL1        0.0278
     48 H           1.4242   -1.3651   -0.5759 H       1  UNL1        0.0278
     49 H           2.0559   -2.3970    0.8455 H       1  UNL1        0.0278
     50 H           1.4551   -0.2514    1.4111 H       1  UNL1        0.1498
     51 H           2.2541    2.3246    2.7247 H       1  UNL1        0.0592
     52 H           1.4004    1.6739    4.7467 H       1  UNL1        0.0252
     53 H           0.2667    0.4791    4.0445 H       1  UNL1        0.0252
     54 H           1.9895    0.0663    4.1092 H       1  UNL1        0.0252
     55 H          -0.1318    0.7498    0.5074 H       1  UNL1        0.1495
     56 H          -2.1589    2.9068    1.3486 H       1  UNL1        0.0598
     57 H          -2.7700    3.0772   -1.0188 H       1  UNL1        0.0337
     58 H          -1.5172    1.9287   -1.4897 H       1  UNL1        0.0337
     59 H          -2.1040    5.5167   -0.5005 H       1  UNL1        0.0810
     60 H           0.1305    6.8806   -0.7471 H       1  UNL1        0.1653
     61 H           2.7998    6.2443   -1.2039 H       1  UNL1        0.0638
     62 H           4.2916    4.3444   -1.5770 H       1  UNL1        0.0618
     63 H           3.4768    2.0336   -1.6158 H       1  UNL1        0.0618
     64 H           1.0406    1.6190   -1.2715 H       1  UNL1        0.0624
     65 H          -1.7440   -0.6160    1.2686 H       1  UNL1        0.1495
     66 H          -4.7584   -0.8388    0.7375 H       1  UNL1        0.0581
     67 H          -4.1665   -3.3085    0.1612 H       1  UNL1        0.0335
     68 H          -2.4833   -2.8205    0.3934 H       1  UNL1        0.0335
     69 H          -5.3656   -2.1722   -1.8189 H       1  UNL1        0.0620
     70 H          -5.1538   -1.4054   -4.1055 H       1  UNL1        0.0618
     71 H          -2.9178   -0.7232   -4.9762 H       1  UNL1        0.0618
     72 H          -0.9704   -0.8448   -3.4889 H       1  UNL1        0.0618
     73 H          -1.2098   -1.6247   -1.1844 H       1  UNL1        0.0620
     74 H          -5.7249   -4.2855    1.6698 H       1  UNL1        0.0262
     75 H          -7.0111   -3.3843    2.4628 H       1  UNL1        0.0262
     76 H          -6.2221   -2.5794    1.1106 H       1  UNL1        0.0262
     77 H          -3.4610   -3.6720    4.3015 H       1  UNL1        0.0593
     78 H          -4.9509   -4.7637    3.9290 H       1  UNL1        0.0593
     79 H           5.4379    0.9128   -0.8312 H       1  UNL1        0.0363
     80 H           6.1207    0.0275    0.6166 H       1  UNL1        0.0363
     81 H           7.7331   -0.8755   -1.7999 H       1  UNL1        0.0621
     82 H           7.8297   -2.8739   -3.1897 H       1  UNL1        0.0618
     83 H           5.8691   -4.3374   -3.3314 H       1  UNL1        0.0618
     84 H           3.8089   -3.7576   -2.0490 H       1  UNL1        0.0624
@<TRIPOS>BOND
     1     1     2    1
     2     2     3    2
     3     3     4    1
     4     4     5    2
     5     4     6   am
     6     6     7    1
     7     7     8    1
     8     7     9    1
     9     9    10    2
    10     9    11   am
    11    11    12    1
    12    12    13    1
    13    13    14    1
    14    14    15   ar
    15    15    16   ar
    16    16    17   ar
    17    17    18   ar
    18    18    19   ar
    19    19    20   ar
    20    20    21   ar
    21    21    22   ar
    22    12    23    1
    23    23    24    2
    24    23    25   am
    25    25    26    1
    26    26    27    1
    27    27    28    1
    28    28    29   ar
    29    29    30   ar
    30    30    31   ar
    31    31    32   ar
    32    32    33   ar
    33    26    34    1
    34    34    35    2
    35    34    36    1
    36    36    37    1
    37    36    38    1
    38    38    39    1
    39     3    40    1
    40    40    41    1
    41    41    42   ar
    42    42    43   ar
    43    43    44   ar
    44    44    45   ar
    45    45    46   ar
    46    46     2    1
    47    22    14   ar
    48    33    28   ar
    49    39    36    1
    50    46    41   ar
    51    22    17   ar
    52     1    47    1
    53     1    48    1
    54     1    49    1
    55     6    50    1
    56     7    51    1
    57     8    52    1
    58     8    53    1
    59     8    54    1
    60    11    55    1
    61    12    56    1
    62    13    57    1
    63    13    58    1
    64    15    59    1
    65    16    60    1
    66    18    61    1
    67    19    62    1
    68    20    63    1
    69    21    64    1
    70    25    65    1
    71    26    66    1
    72    27    67    1
    73    27    68    1
    74    29    69    1
    75    30    70    1
    76    31    71    1
    77    32    72    1
    78    33    73    1
    79    37    74    1
    80    37    75    1
    81    37    76    1
    82    38    77    1
    83    38    78    1
    84    40    79    1
    85    40    80    1
    86    42    81    1
    87    43    82    1
    88    44    83    1
    89    45    84    1
