@<TRIPOS>MOLECULE
*****
 39 40 0 0 0
SMALL
GASTEIGER

@<TRIPOS>ATOM
      1 C          -0.0260   -2.2013   -2.2145 C.3     1  UNL1       -0.0242
      2 C          -0.0727   -2.1995   -0.7032 C.3     1  UNL1        0.1726
      3 O           0.0149   -3.4763   -0.1745 O.3     1  UNL1       -0.3764
      4 C          -1.3564   -1.5443   -0.2173 C.3     1  UNL1        0.1265
      5 O          -1.5058   -0.2441   -0.7189 O.3     1  UNL1       -0.4886
      6 C          -2.6449    0.5012   -0.3625 C.ar    1  UNL1        0.1207
      7 C          -3.5761   -0.0811    0.4722 C.ar    1  UNL1       -0.0187
      8 C          -4.7104    0.5795    0.8643 C.ar    1  UNL1       -0.0409
      9 C          -4.8884    1.8619    0.3884 C.ar    1  UNL1        0.0520
     10 C          -3.9733    2.4519   -0.4401 C.ar    1  UNL1       -0.0409
     11 C          -2.8121    1.7876   -0.8469 C.ar    1  UNL1       -0.0187
     12 C          -6.0912    2.5498    0.8099 C.1     1  UNL1        0.0992
     13 N          -7.0541    3.0778    1.1404 N.1     1  UNL1       -0.1909
     14 C           1.0387   -1.3334   -0.2205 C.2     1  UNL1        0.2520
     15 O           0.9361   -0.1705   -0.7185 O.2     1  UNL1       -0.2722
     16 N           2.1147   -1.6343    0.6625 N.am    1  UNL1       -0.2830
     17 C           2.9403   -0.4775    0.8337 C.ar    1  UNL1        0.0345
     18 C           2.8430    0.5235    1.7661 C.ar    1  UNL1       -0.0392
     19 C           3.7632    1.5549    1.7409 C.ar    1  UNL1       -0.0416
     20 C           4.7615    1.5700    0.7888 C.ar    1  UNL1        0.0650
     21 C           5.6974    2.6666    0.8029 C.1     1  UNL1        0.1002
     22 N           6.4469    3.5417    0.8302 N.1     1  UNL1       -0.1908
     23 C           4.8828    0.5753   -0.1618 C.ar    1  UNL1        0.0325
     24 I           6.4318    0.6748   -1.5753 I       1  UNL1       -0.0424
     25 C           3.9511   -0.4608   -0.1292 C.ar    1  UNL1       -0.0261
     26 H           0.9205   -2.7111   -2.5085 H       1  UNL1        0.0263
     27 H          -0.9167   -2.7274   -2.6308 H       1  UNL1        0.0263
     28 H          -0.0261   -1.1494   -2.5561 H       1  UNL1        0.0263
     29 H          -0.2951   -3.4110    0.7750 H       1  UNL1        0.2109
     30 H          -2.1933   -2.1734   -0.6089 H       1  UNL1        0.0731
     31 H          -1.3325   -1.5356    0.8792 H       1  UNL1        0.0731
     32 H          -3.4289   -1.0787    0.8372 H       1  UNL1        0.0654
     33 H          -5.4149    0.0927    1.5169 H       1  UNL1        0.0631
     34 H          -4.1728    3.4699   -0.7823 H       1  UNL1        0.0631
     35 H          -2.0882    2.2529   -1.5016 H       1  UNL1        0.0654
     36 H           2.0608   -2.6275    0.9861 H       1  UNL1        0.1549
     37 H           2.0208    0.3845    2.4443 H       1  UNL1        0.0636
     38 H           3.6333    2.3170    2.5048 H       1  UNL1        0.0631
     39 H           4.1219   -1.1965   -0.9106 H       1  UNL1        0.0647
@<TRIPOS>BOND
     1     1     2    1
     2     2     3    1
     3     2     4    1
     4     4     5    1
     5     5     6    1
     6     6     7   ar
     7     7     8   ar
     8     8     9   ar
     9     9    10   ar
    10    10    11   ar
    11     9    12    1
    12    12    13    3
    13     2    14    1
    14    14    15    2
    15    14    16   am
    16    16    17    1
    17    17    18   ar
    18    18    19   ar
    19    19    20   ar
    20    20    21    1
    21    21    22    3
    22    20    23   ar
    23    23    24    1
    24    23    25   ar
    25    11     6   ar
    26    25    17   ar
    27     1    26    1
    28     1    27    1
    29     1    28    1
    30     3    29    1
    31     4    30    1
    32     4    31    1
    33     7    32    1
    34     8    33    1
    35    10    34    1
    36    11    35    1
    37    16    36    1
    38    18    37    1
    39    19    38    1
    40    25    39    1
