
     RDKit          3D

 39 40  0  0  0  0  0  0  0  0999 V2000
   -0.0260   -2.2013   -2.2145 C   0  0  0  0  0  0  0  0  0  0  0  0
   -0.0727   -2.1995   -0.7032 C   0  0  2  0  0  0  0  0  0  0  0  0
    0.0149   -3.4763   -0.1745 O   0  0  0  0  0  0  0  0  0  0  0  0
   -1.3564   -1.5443   -0.2173 C   0  0  0  0  0  0  0  0  0  0  0  0
   -1.5058   -0.2441   -0.7189 O   0  0  0  0  0  0  0  0  0  0  0  0
   -2.6449    0.5012   -0.3625 C   0  0  0  0  0  0  0  0  0  0  0  0
   -3.5761   -0.0811    0.4722 C   0  0  0  0  0  0  0  0  0  0  0  0
   -4.7104    0.5795    0.8643 C   0  0  0  0  0  0  0  0  0  0  0  0
   -4.8884    1.8619    0.3884 C   0  0  0  0  0  0  0  0  0  0  0  0
   -3.9733    2.4519   -0.4401 C   0  0  0  0  0  0  0  0  0  0  0  0
   -2.8121    1.7876   -0.8469 C   0  0  0  0  0  0  0  0  0  0  0  0
   -6.0912    2.5498    0.8099 C   0  0  0  0  0  0  0  0  0  0  0  0
   -7.0541    3.0778    1.1404 N   0  0  0  0  0  0  0  0  0  0  0  0
    1.0387   -1.3334   -0.2205 C   0  0  0  0  0  0  0  0  0  0  0  0
    0.9361   -0.1705   -0.7185 O   0  0  0  0  0  0  0  0  0  0  0  0
    2.1147   -1.6343    0.6625 N   0  0  0  0  0  0  0  0  0  0  0  0
    2.9403   -0.4775    0.8337 C   0  0  0  0  0  0  0  0  0  0  0  0
    2.8430    0.5235    1.7661 C   0  0  0  0  0  0  0  0  0  0  0  0
    3.7632    1.5549    1.7409 C   0  0  0  0  0  0  0  0  0  0  0  0
    4.7615    1.5700    0.7888 C   0  0  0  0  0  0  0  0  0  0  0  0
    5.6974    2.6666    0.8029 C   0  0  0  0  0  0  0  0  0  0  0  0
    6.4469    3.5417    0.8302 N   0  0  0  0  0  0  0  0  0  0  0  0
    4.8828    0.5753   -0.1618 C   0  0  0  0  0  0  0  0  0  0  0  0
    6.4318    0.6748   -1.5753 I   0  0  0  0  0  0  0  0  0  0  0  0
    3.9511   -0.4608   -0.1292 C   0  0  0  0  0  0  0  0  0  0  0  0
    0.9205   -2.7111   -2.5085 H   0  0  0  0  0  0  0  0  0  0  0  0
   -0.9167   -2.7274   -2.6308 H   0  0  0  0  0  0  0  0  0  0  0  0
   -0.0261   -1.1494   -2.5561 H   0  0  0  0  0  0  0  0  0  0  0  0
   -0.2951   -3.4110    0.7750 H   0  0  0  0  0  0  0  0  0  0  0  0
   -2.1933   -2.1734   -0.6089 H   0  0  0  0  0  0  0  0  0  0  0  0
   -1.3325   -1.5356    0.8792 H   0  0  0  0  0  0  0  0  0  0  0  0
   -3.4289   -1.0787    0.8372 H   0  0  0  0  0  0  0  0  0  0  0  0
   -5.4149    0.0927    1.5169 H   0  0  0  0  0  0  0  0  0  0  0  0
   -4.1728    3.4699   -0.7823 H   0  0  0  0  0  0  0  0  0  0  0  0
   -2.0882    2.2529   -1.5016 H   0  0  0  0  0  0  0  0  0  0  0  0
    2.0608   -2.6275    0.9861 H   0  0  0  0  0  0  0  0  0  0  0  0
    2.0208    0.3845    2.4443 H   0  0  0  0  0  0  0  0  0  0  0  0
    3.6333    2.3170    2.5048 H   0  0  0  0  0  0  0  0  0  0  0  0
    4.1219   -1.1965   -0.9106 H   0  0  0  0  0  0  0  0  0  0  0  0
  1  2  1  0
  2  3  1  1
  2  4  1  0
  4  5  1  0
  5  6  1  0
  6  7  2  0
  7  8  1  0
  8  9  2  0
  9 10  1  0
 10 11  2  0
  9 12  1  0
 12 13  3  0
  2 14  1  0
 14 15  2  0
 14 16  1  0
 16 17  1  0
 17 18  2  0
 18 19  1  0
 19 20  2  0
 20 21  1  0
 21 22  3  0
 20 23  1  0
 23 24  1  0
 23 25  2  0
 11  6  1  0
 25 17  1  0
  1 26  1  0
  1 27  1  0
  1 28  1  0
  3 29  1  0
  4 30  1  0
  4 31  1  0
  7 32  1  0
  8 33  1  0
 10 34  1  0
 11 35  1  0
 16 36  1  0
 18 37  1  0
 19 38  1  0
 25 39  1  0
M  END
$$$$
