@<TRIPOS>MOLECULE
*****
 44 47 0 0 0
SMALL
GASTEIGER

@<TRIPOS>ATOM
      1 O           1.7064    1.2043   -0.3459 O.2     1  UNL1       -0.2505
      2 C           1.2431    0.0494   -0.2281 C.2     1  UNL1        0.3265
      3 N           2.0854   -0.9565    0.3024 N.am    1  UNL1       -0.2679
      4 C           3.4253   -0.6779    0.6957 C.ar    1  UNL1        0.0350
      5 C           4.4740   -0.8027   -0.2096 C.ar    1  UNL1       -0.0377
      6 C           5.7807   -0.5363    0.1550 C.ar    1  UNL1       -0.0247
      7 C           6.0212   -0.1381    1.4576 C.ar    1  UNL1        0.1235
      8 F           7.3203    0.1240    1.8106 F       1  UNL1       -0.2055
      9 C           4.9949   -0.0143    2.3495 C.ar    1  UNL1       -0.0247
     10 C           3.6732   -0.2819    1.9873 C.ar    1  UNL1       -0.0377
     11 N          -0.0811   -0.2073   -0.6212 N.am    1  UNL1       -0.1687
     12 N          -0.7105   -1.4478   -0.5398 N.2     1  UNL1       -0.1796
     13 C          -1.9922   -1.3423   -0.5080 C.2     1  UNL1        0.0690
     14 C          -2.9878   -2.4060   -0.4261 C.ar    1  UNL1        0.0007
     15 C          -2.6715   -3.7461   -0.3683 C.ar    1  UNL1       -0.0347
     16 C          -3.6989   -4.6857   -0.2918 C.ar    1  UNL1        0.0282
     17 N          -4.9881   -4.3229   -0.2727 N.ar    1  UNL1       -0.2632
     18 C          -5.3296   -3.0094   -0.3285 C.ar    1  UNL1        0.0282
     19 C          -4.3180   -2.0763   -0.4042 C.ar    1  UNL1       -0.0347
     20 C          -2.3183    0.0974   -0.5588 C.3     1  UNL1        0.0165
     21 C          -1.0669    0.6783   -1.1722 C.3     1  UNL1        0.0809
     22 C          -0.9279    2.0771   -0.7685 C.ar    1  UNL1       -0.0245
     23 C          -1.0277    3.1220   -1.6548 C.ar    1  UNL1       -0.0540
     24 C          -0.8927    4.4458   -1.2527 C.ar    1  UNL1       -0.0261
     25 C          -0.6508    4.7431    0.0714 C.ar    1  UNL1        0.1234
     26 F          -0.5181    6.0401    0.4677 F       1  UNL1       -0.2055
     27 C          -0.5484    3.7218    0.9660 C.ar    1  UNL1       -0.0261
     28 C          -0.6857    2.3920    0.5527 C.ar    1  UNL1       -0.0540
     29 H           1.7534   -1.9601    0.4291 H       1  UNL1        0.1564
     30 H           4.3004   -1.1123   -1.2284 H       1  UNL1        0.0637
     31 H           6.6177   -0.6267   -0.5351 H       1  UNL1        0.0647
     32 H           5.1733    0.2935    3.3599 H       1  UNL1        0.0647
     33 H           2.8979   -0.1714    2.7212 H       1  UNL1        0.0637
     34 H          -1.6391   -4.0300   -0.3839 H       1  UNL1        0.0639
     35 H          -3.4607   -5.7324   -0.2464 H       1  UNL1        0.0830
     36 H          -6.3835   -2.7681   -0.3102 H       1  UNL1        0.0830
     37 H          -4.6261   -1.0283   -0.4477 H       1  UNL1        0.0639
     38 H          -3.2228    0.3143   -1.1575 H       1  UNL1        0.0351
     39 H          -2.4123    0.4413    0.4922 H       1  UNL1        0.0351
     40 H          -1.1768    0.5608   -2.2741 H       1  UNL1        0.0575
     41 H          -1.2138    2.9195   -2.6814 H       1  UNL1        0.0622
     42 H          -0.9683    5.2761   -1.9360 H       1  UNL1        0.0646
     43 H          -0.3564    3.9493    2.0196 H       1  UNL1        0.0646
     44 H          -0.5932    1.6305    1.3141 H       1  UNL1        0.0622
@<TRIPOS>BOND
     1     1     2    2
     2     2     3   am
     3     3     4    1
     4     4     5   ar
     5     5     6   ar
     6     6     7   ar
     7     7     8    1
     8     7     9   ar
     9     9    10   ar
    10     2    11   am
    11    11    12    1
    12    12    13    2
    13    13    14    1
    14    14    15   ar
    15    15    16   ar
    16    16    17   ar
    17    17    18   ar
    18    18    19   ar
    19    13    20    1
    20    20    21    1
    21    21    22    1
    22    22    23   ar
    23    23    24   ar
    24    24    25   ar
    25    25    26    1
    26    25    27   ar
    27    27    28   ar
    28    10     4   ar
    29    21    11    1
    30    28    22   ar
    31    19    14   ar
    32     3    29    1
    33     5    30    1
    34     6    31    1
    35     9    32    1
    36    10    33    1
    37    15    34    1
    38    16    35    1
    39    18    36    1
    40    19    37    1
    41    20    38    1
    42    20    39    1
    43    21    40    1
    44    23    41    1
    45    24    42    1
    46    27    43    1
    47    28    44    1
