
     RDKit          3D

 47 49  0  0  0  0  0  0  0  0999 V2000
    1.0849   -4.2912    0.3054 C   0  0  0  0  0  0  0  0  0  0  0  0
    1.1441   -3.0102   -0.4612 C   0  0  0  0  0  0  0  0  0  0  0  0
    0.5556   -1.8470    0.3559 C   0  0  0  0  0  0  0  0  0  0  0  0
    0.5983   -0.6307   -0.3337 N   0  0  0  0  0  0  0  0  0  0  0  0
    1.8485   -0.0034   -0.5607 C   0  0  0  0  0  0  0  0  0  0  0  0
    2.5025    0.5233    0.6901 C   0  0  0  0  0  0  0  0  0  0  0  0
    3.7752    1.2041    0.2940 C   0  0  0  0  0  0  0  0  0  0  0  0
    5.0419    0.8569    0.1710 C   0  0  0  0  0  0  0  0  0  0  0  0
    5.9799    1.7790   -0.2022 C   0  0  0  0  0  0  0  0  0  0  0  0
    5.5545    3.0701   -0.4428 C   0  0  0  0  0  0  0  0  0  0  0  0
    3.7232    2.9250   -0.1119 S   0  0  0  0  0  0  0  0  0  0  0  0
   -0.5734    0.1460   -0.4518 C   0  0  1  0  0  0  0  0  0  0  0  0
   -1.6603   -0.6526   -1.1698 C   0  0  0  0  0  0  0  0  0  0  0  0
   -2.7035    0.3596   -1.6207 C   0  0  0  0  0  0  0  0  0  0  0  0
   -3.3999    0.8008   -0.3928 C   0  0  0  0  0  0  0  0  0  0  0  0
   -4.7394    1.0282   -0.3756 C   0  0  0  0  0  0  0  0  0  0  0  0
   -5.5194    0.8536   -1.5215 O   0  0  0  0  0  0  0  0  0  0  0  0
   -5.3081    1.4415    0.8282 C   0  0  0  0  0  0  0  0  0  0  0  0
   -4.5126    1.6063    1.9572 C   0  0  0  0  0  0  0  0  0  0  0  0
   -3.1586    1.3647    1.9041 C   0  0  0  0  0  0  0  0  0  0  0  0
   -2.5810    0.9512    0.7012 C   0  0  0  0  0  0  0  0  0  0  0  0
   -1.1182    0.7273    0.8056 C   0  0  0  0  0  0  0  0  0  0  0  0
    2.0703   -4.7522    0.4451 H   0  0  0  0  0  0  0  0  0  0  0  0
    0.4374   -5.0236   -0.2311 H   0  0  0  0  0  0  0  0  0  0  0  0
    0.6266   -4.1375    1.3306 H   0  0  0  0  0  0  0  0  0  0  0  0
    0.5146   -3.1417   -1.3921 H   0  0  0  0  0  0  0  0  0  0  0  0
    2.1778   -2.8012   -0.7638 H   0  0  0  0  0  0  0  0  0  0  0  0
   -0.4726   -2.1634    0.6282 H   0  0  0  0  0  0  0  0  0  0  0  0
    1.1293   -1.8585    1.3157 H   0  0  0  0  0  0  0  0  0  0  0  0
    2.5822   -0.6498   -1.0815 H   0  0  0  0  0  0  0  0  0  0  0  0
    1.6689    0.8721   -1.2295 H   0  0  0  0  0  0  0  0  0  0  0  0
    1.8731    1.2642    1.2003 H   0  0  0  0  0  0  0  0  0  0  0  0
    2.8332   -0.2978    1.3640 H   0  0  0  0  0  0  0  0  0  0  0  0
    5.3232   -0.1860    0.3735 H   0  0  0  0  0  0  0  0  0  0  0  0
    7.0406    1.5952   -0.3220 H   0  0  0  0  0  0  0  0  0  0  0  0
    6.1359    3.9397   -0.7445 H   0  0  0  0  0  0  0  0  0  0  0  0
   -0.3509    0.9980   -1.1568 H   0  0  0  0  0  0  0  0  0  0  0  0
   -2.1721   -1.3731   -0.4978 H   0  0  0  0  0  0  0  0  0  0  0  0
   -1.2381   -1.1365   -2.0733 H   0  0  0  0  0  0  0  0  0  0  0  0
   -3.4005   -0.0783   -2.3590 H   0  0  0  0  0  0  0  0  0  0  0  0
   -2.1380    1.2271   -2.0245 H   0  0  0  0  0  0  0  0  0  0  0  0
   -5.5220    1.6209   -2.2003 H   0  0  0  0  0  0  0  0  0  0  0  0
   -6.3700    1.6367    0.8814 H   0  0  0  0  0  0  0  0  0  0  0  0
   -5.0350    1.9292    2.8568 H   0  0  0  0  0  0  0  0  0  0  0  0
   -2.6726    1.5320    2.8526 H   0  0  0  0  0  0  0  0  0  0  0  0
   -0.6673    1.7356    1.0180 H   0  0  0  0  0  0  0  0  0  0  0  0
   -0.9083    0.0464    1.6319 H   0  0  0  0  0  0  0  0  0  0  0  0
  1  2  1  0
  2  3  1  0
  3  4  1  0
  4  5  1  0
  5  6  1  0
  6  7  1  0
  7  8  2  0
  8  9  1  0
  9 10  2  0
 10 11  1  0
  4 12  1  0
 12 13  1  0
 13 14  1  0
 14 15  1  0
 15 16  2  0
 16 17  1  0
 16 18  1  0
 18 19  2  0
 19 20  1  0
 20 21  2  0
 21 22  1  0
 11  7  1  0
 22 12  1  0
 21 15  1  0
  1 23  1  0
  1 24  1  0
  1 25  1  0
  2 26  1  0
  2 27  1  0
  3 28  1  0
  3 29  1  0
  5 30  1  0
  5 31  1  0
  6 32  1  0
  6 33  1  0
  8 34  1  0
  9 35  1  0
 10 36  1  0
 12 37  1  6
 13 38  1  0
 13 39  1  0
 14 40  1  0
 14 41  1  0
 17 42  1  0
 18 43  1  0
 19 44  1  0
 20 45  1  0
 22 46  1  0
 22 47  1  0
M  END
$$$$
