@<TRIPOS>MOLECULE
*****
 34 35 0 0 0
SMALL
GASTEIGER

@<TRIPOS>ATOM
      1 N           6.4021   -0.7812    0.4971 N.3     1  UNL1       -0.2035
      2 S           5.6467    0.6930    1.0470 S.O2    1  UNL1        0.0559
      3 O           5.7343    0.8525    2.5171 O.2     1  UNL1       -0.1533
      4 O           6.3353    1.8548    0.3846 O.2     1  UNL1       -0.1533
      5 C           3.9615    0.6484    0.5670 C.ar    1  UNL1        0.1050
      6 C           3.6619    1.2100   -0.6780 C.ar    1  UNL1       -0.0346
      7 C           2.3352    1.2033   -1.1187 C.ar    1  UNL1       -0.0478
      8 C           1.3192    0.6598   -0.3613 C.ar    1  UNL1        0.0368
      9 C           1.6740    0.1251    0.8485 C.ar    1  UNL1       -0.0478
     10 C           2.9658    0.1070    1.3278 C.ar    1  UNL1       -0.0346
     11 C          -0.0082    0.7078   -0.9076 C.2     1  UNL1        0.2443
     12 O          -0.1862    1.2647   -2.0192 O.2     1  UNL1       -0.2702
     13 N          -1.1781    0.1726   -0.3001 N.am    1  UNL1       -0.3070
     14 C          -2.3528    0.3967   -1.1223 C.3     1  UNL1        0.0428
     15 C          -3.5795   -0.1596   -0.5198 C.ar    1  UNL1        0.0458
     16 C          -3.6566   -1.5294   -0.6527 C.ar    1  UNL1        0.1688
     17 F          -2.7270   -2.3173   -1.2670 F       1  UNL1       -0.2019
     18 C          -4.7592   -2.2185   -0.1331 C.ar    1  UNL1        0.1967
     19 F          -4.8897   -3.5663   -0.2345 F       1  UNL1       -0.1993
     20 C          -5.7408   -1.4977    0.5006 C.ar    1  UNL1        0.1991
     21 F          -6.8138   -2.1784    1.0052 F       1  UNL1       -0.1993
     22 C          -5.6584   -0.1247    0.6311 C.ar    1  UNL1        0.1967
     23 F          -6.6239    0.5958    1.2566 F       1  UNL1       -0.1993
     24 C          -4.5653    0.5516    0.1149 C.ar    1  UNL1        0.1688
     25 F          -4.3935    1.8929    0.1928 F       1  UNL1       -0.2019
     26 H           5.8260   -1.5655    0.8977 H       1  UNL1        0.1442
     27 H           6.2594   -0.8286   -0.5299 H       1  UNL1        0.1442
     28 H           4.4314    1.6374   -1.2839 H       1  UNL1        0.0637
     29 H           2.1679    1.6532   -2.0901 H       1  UNL1        0.0626
     30 H           0.8932   -0.3070    1.4606 H       1  UNL1        0.0626
     31 H           3.2234   -0.3230    2.2918 H       1  UNL1        0.0637
     32 H          -1.0159   -0.2974    0.6397 H       1  UNL1        0.1493
     33 H          -2.2278   -0.0240   -2.1397 H       1  UNL1        0.0513
     34 H          -2.4603    1.4920   -1.2444 H       1  UNL1        0.0513
@<TRIPOS>BOND
     1     1     2    1
     2     2     3    2
     3     2     4    2
     4     2     5    1
     5     5     6   ar
     6     6     7   ar
     7     7     8   ar
     8     8     9   ar
     9     9    10   ar
    10     8    11    1
    11    11    12    2
    12    11    13   am
    13    13    14    1
    14    14    15    1
    15    15    16   ar
    16    16    17    1
    17    16    18   ar
    18    18    19    1
    19    18    20   ar
    20    20    21    1
    21    20    22   ar
    22    22    23    1
    23    22    24   ar
    24    24    25    1
    25    10     5   ar
    26    24    15   ar
    27     1    26    1
    28     1    27    1
    29     6    28    1
    30     7    29    1
    31     9    30    1
    32    10    31    1
    33    13    32    1
    34    14    33    1
    35    14    34    1
