
     RDKit          3D

 25 27  0  0  0  0  0  0  0  0999 V2000
    4.5415    1.6038   -0.1892 N   0  0  0  0  0  0  0  0  0  0  0  0
    5.2159    0.4536    0.0118 C   0  0  0  0  0  0  0  0  0  0  0  0
    4.2141   -0.4980    0.2014 C   0  0  0  0  0  0  0  0  0  0  0  0
    2.9913    0.0876    0.1121 C   0  0  0  0  0  0  0  0  0  0  0  0
    3.2362    1.3857   -0.1298 N   0  0  0  0  0  0  0  0  0  0  0  0
    1.6758   -0.5237    0.2438 C   0  0  0  0  0  0  0  0  0  0  0  0
    0.4618    0.1222    0.1433 C   0  0  0  0  0  0  0  0  0  0  0  0
   -0.5579   -0.7551    0.3194 C   0  0  0  0  0  0  0  0  0  0  0  0
    0.0672   -1.9202    0.5240 N   0  0  0  0  0  0  0  0  0  0  0  0
    1.3657   -1.7576    0.4749 O   0  0  0  0  0  0  0  0  0  0  0  0
   -1.9698   -0.4731    0.2887 C   0  0  0  0  0  0  0  0  0  0  0  0
   -2.9434   -1.4212    0.4771 C   0  0  0  0  0  0  0  0  0  0  0  0
   -4.3019   -1.1341    0.4446 C   0  0  0  0  0  0  0  0  0  0  0  0
   -4.6941    0.1691    0.2113 C   0  0  0  0  0  0  0  0  0  0  0  0
   -3.7458    1.1734    0.0129 C   0  0  0  0  0  0  0  0  0  0  0  0
   -2.4155    0.8119    0.0595 C   0  0  0  0  0  0  0  0  0  0  0  0
    4.8432    2.5908   -0.3749 H   0  0  0  0  0  0  0  0  0  0  0  0
    6.2940    0.4079    0.0042 H   0  0  0  0  0  0  0  0  0  0  0  0
    4.4416   -1.5305    0.3875 H   0  0  0  0  0  0  0  0  0  0  0  0
    0.3859    1.2004   -0.0535 H   0  0  0  0  0  0  0  0  0  0  0  0
   -2.6683   -2.4501    0.6619 H   0  0  0  0  0  0  0  0  0  0  0  0
   -5.0868   -1.8669    0.5907 H   0  0  0  0  0  0  0  0  0  0  0  0
   -5.7155    0.5356    0.1592 H   0  0  0  0  0  0  0  0  0  0  0  0
   -3.9819    2.2115   -0.1741 H   0  0  0  0  0  0  0  0  0  0  0  0
   -1.6532    1.5770   -0.0923 H   0  0  0  0  0  0  0  0  0  0  0  0
  1  2  1  0
  2  3  2  0
  3  4  1  0
  4  5  2  0
  4  6  1  0
  6  7  2  0
  7  8  1  0
  8  9  2  0
  9 10  1  0
  8 11  1  0
 11 12  2  0
 12 13  1  0
 13 14  2  0
 14 15  1  0
 15 16  2  0
  5  1  1  0
 10  6  1  0
 16 11  1  0
  1 17  1  0
  2 18  1  0
  3 19  1  0
  7 20  1  0
 12 21  1  0
 13 22  1  0
 14 23  1  0
 15 24  1  0
 16 25  1  0
M  END
$$$$
