@<TRIPOS>MOLECULE
*****
 65 69 0 0 0
SMALL
GASTEIGER

@<TRIPOS>ATOM
      1 C          10.1799    0.5764    1.1654 C.3     1  UNL1        0.0596
      2 S           9.6020    0.3260   -0.4983 S.O2    1  UNL1       -0.0059
      3 O           9.1691    1.6776   -1.0161 O.2     1  UNL1       -0.1696
      4 O          10.7051   -0.2151   -1.3237 O.2     1  UNL1       -0.1696
      5 C           8.1869   -0.7138   -0.5248 C.ar    1  UNL1        0.0881
      6 C           8.3289   -2.0899   -0.3189 C.ar    1  UNL1       -0.0369
      7 C           7.2157   -2.8958   -0.3600 C.ar    1  UNL1       -0.0597
      8 C           5.9639   -2.3747   -0.5990 C.ar    1  UNL1       -0.0584
      9 C           5.8546   -1.0096   -0.7991 C.ar    1  UNL1       -0.0433
     10 C           4.5327   -0.4468   -1.0759 C.3     1  UNL1        0.0013
     11 CA          3.7661   -0.0053    0.1269 C.3     1  UNL1        0.1244
     12 N           2.4872    0.5175   -0.3774 N.am    1  UNL1       -0.2980
     13 C           1.2883    0.0575    0.1563 C.2     1  UNL1        0.2476
     14 O           1.3424   -0.7912    1.0772 O.2     1  UNL1       -0.2701
     15 C          -0.0066    0.5044   -0.2838 C.ar    1  UNL1        0.0735
     16 C          -0.2956    0.9967   -1.5292 C.ar    1  UNL1        0.0548
     17 CL          0.9247    1.0423   -2.8009 Cl      1  UNL1       -0.0827
     18 C          -1.5802    1.4603   -1.8703 C.ar    1  UNL1       -0.0376
     19 C          -2.6148    1.4449   -0.9744 C.ar    1  UNL1       -0.0241
     20 C          -2.3427    0.9498    0.2953 C.ar    1  UNL1       -0.0221
     21 C          -1.0929    0.4993    0.6224 C.ar    1  UNL1        0.0580
     22 CL         -0.7481   -0.1310    2.2259 Cl      1  UNL1       -0.0824
     23 C          -3.4218    0.9334    1.3334 C.3     1  UNL1       -0.0101
     24 C          -4.7674    0.6816    0.7827 C.3     1  UNL1        0.0194
     25 N          -4.9405    1.0811   -0.5789 N.am    1  UNL1       -0.2929
     26 C          -6.1238    0.6813   -1.3135 C.2     1  UNL1        0.2470
     27 O          -6.2327    1.0227   -2.4935 O.2     1  UNL1       -0.2700
     28 C          -7.1223   -0.1008   -0.6117 C.ar    1  UNL1        0.0404
     29 C          -6.9938   -1.4267   -0.3166 C.ar    1  UNL1       -0.0488
     30 C          -7.9656   -2.1295    0.3792 C.ar    1  UNL1       -0.0503
     31 C          -9.0971   -1.4510    0.7812 C.ar    1  UNL1        0.0202
     32 C         -10.2471   -1.7866    1.4694 C.ar    1  UNL1       -0.0161
     33 C         -11.0407   -0.6390    1.5663 C.ar    1  UNL1        0.0931
     34 O         -10.3872    0.3186    0.9656 O.2     1  UNL1       -0.4629
     35 C          -9.2472   -0.0895    0.4866 C.ar    1  UNL1        0.1355
     36 C          -8.2744    0.5713   -0.1984 C.ar    1  UNL1       -0.0067
     37 C          -3.9806    1.9145   -1.2450 C.3     1  UNL1        0.0404
     38 C           4.4296    1.0533    0.9222 C.2     1  UNL1        0.3256
     39 O           3.8342    2.1764    1.0599 O.2     1  UNL1       -0.2489
     40 OXT         5.6573    0.9250    1.5360 O.3     1  UNL1       -0.4793
     41 C           6.9586   -0.1895   -0.7613 C.ar    1  UNL1       -0.0336
     42 H          10.5886    1.6002    1.2319 H       1  UNL1        0.0468
     43 H           9.3827    0.4760    1.9057 H       1  UNL1        0.0468
     44 H          10.9495   -0.1905    1.4156 H       1  UNL1        0.0468
     45 H           9.3115   -2.4502   -0.1374 H       1  UNL1        0.0636
     46 H           7.3311   -3.9724   -0.1998 H       1  UNL1        0.0618
     47 H           5.0696   -2.9781   -0.6367 H       1  UNL1        0.0620
     48 H           4.5719    0.3730   -1.8298 H       1  UNL1        0.0337
     49 H           3.9160   -1.2411   -1.5749 H       1  UNL1        0.0337
     50 HA          3.5620   -0.8535    0.8195 H       1  UNL1        0.0618
     51 H           2.5835    1.2347   -1.1109 H       1  UNL1        0.1498
     52 H          -1.7849    1.8462   -2.8674 H       1  UNL1        0.0636
     53 H          -3.4071    1.8751    1.9277 H       1  UNL1        0.0329
     54 H          -3.1539    0.0976    2.0373 H       1  UNL1        0.0329
     55 H          -5.0294   -0.4147    0.8518 H       1  UNL1        0.0468
     56 H          -5.5341    1.1680    1.4422 H       1  UNL1        0.0468
     57 H          -6.0925   -1.9329   -0.6483 H       1  UNL1        0.0625
     58 H          -7.8811   -3.1699    0.6199 H       1  UNL1        0.0625
     59 H         -10.4998   -2.7484    1.8641 H       1  UNL1        0.0655
     60 H         -12.0067   -0.5550    2.0444 H       1  UNL1        0.1029
     61 H          -8.3839    1.6314   -0.4301 H       1  UNL1        0.0662
     62 H          -4.1167    2.9948   -0.9880 H       1  UNL1        0.0514
     63 H          -4.1322    1.7952   -2.3597 H       1  UNL1        0.0514
     64 HXT         6.0049    1.5950    2.2348 H       1  UNL1        0.2951
     65 H           6.8470    0.8938   -0.9259 H       1  UNL1        0.0639
@<TRIPOS>BOND
     1     1     2    1
     2     2     3    2
     3     2     4    2
     4     2     5    1
     5     5     6   ar
     6     6     7   ar
     7     7     8   ar
     8     8     9   ar
     9     9    10    1
    10    10    11    1
    11    11    12    1
    12    12    13   am
    13    13    14    2
    14    13    15    1
    15    15    16   ar
    16    16    17    1
    17    16    18   ar
    18    18    19   ar
    19    19    20   ar
    20    20    21   ar
    21    21    22    1
    22    20    23    1
    23    23    24    1
    24    24    25    1
    25    25    26   am
    26    26    27    2
    27    26    28    1
    28    28    29   ar
    29    29    30   ar
    30    30    31   ar
    31    31    32   ar
    32    32    33   ar
    33    33    34   ar
    34    34    35   ar
    35    35    36   ar
    36    25    37    1
    37    11    38    1
    38    38    39    2
    39    38    40    1
    40     9    41   ar
    41    41     5   ar
    42    21    15   ar
    43    36    28   ar
    44    37    19    1
    45    35    31   ar
    46     1    42    1
    47     1    43    1
    48     1    44    1
    49     6    45    1
    50     7    46    1
    51     8    47    1
    52    10    48    1
    53    10    49    1
    54    11    50    1
    55    12    51    1
    56    18    52    1
    57    23    53    1
    58    23    54    1
    59    24    55    1
    60    24    56    1
    61    29    57    1
    62    30    58    1
    63    32    59    1
    64    33    60    1
    65    36    61    1
    66    37    62    1
    67    37    63    1
    68    40    64    1
    69    41    65    1
