
     RDKit          3D

 65 69  0  0  0  0  0  0  0  0999 V2000
   10.1799    0.5764    1.1654 C   0  0  0  0  0  0  0  0  0  0  0  0
    9.6020    0.3260   -0.4983 S   0  0  0  0  0  6  0  0  0  0  0  0
    9.1691    1.6776   -1.0161 O   0  0  0  0  0  0  0  0  0  0  0  0
   10.7051   -0.2151   -1.3237 O   0  0  0  0  0  0  0  0  0  0  0  0
    8.1869   -0.7138   -0.5248 C   0  0  0  0  0  0  0  0  0  0  0  0
    8.3289   -2.0899   -0.3189 C   0  0  0  0  0  0  0  0  0  0  0  0
    7.2157   -2.8958   -0.3600 C   0  0  0  0  0  0  0  0  0  0  0  0
    5.9639   -2.3747   -0.5990 C   0  0  0  0  0  0  0  0  0  0  0  0
    5.8546   -1.0096   -0.7991 C   0  0  0  0  0  0  0  0  0  0  0  0
    4.5327   -0.4468   -1.0759 C   0  0  0  0  0  0  0  0  0  0  0  0
    3.7661   -0.0053    0.1269 C   0  0  2  0  0  0  0  0  0  0  0  0
    2.4872    0.5175   -0.3774 N   0  0  0  0  0  0  0  0  0  0  0  0
    1.2883    0.0575    0.1563 C   0  0  0  0  0  0  0  0  0  0  0  0
    1.3424   -0.7912    1.0772 O   0  0  0  0  0  0  0  0  0  0  0  0
   -0.0066    0.5044   -0.2838 C   0  0  0  0  0  0  0  0  0  0  0  0
   -0.2956    0.9967   -1.5292 C   0  0  0  0  0  0  0  0  0  0  0  0
    0.9247    1.0423   -2.8009 Cl  0  0  0  0  0  0  0  0  0  0  0  0
   -1.5802    1.4603   -1.8703 C   0  0  0  0  0  0  0  0  0  0  0  0
   -2.6148    1.4449   -0.9744 C   0  0  0  0  0  0  0  0  0  0  0  0
   -2.3427    0.9498    0.2953 C   0  0  0  0  0  0  0  0  0  0  0  0
   -1.0929    0.4993    0.6224 C   0  0  0  0  0  0  0  0  0  0  0  0
   -0.7481   -0.1310    2.2259 Cl  0  0  0  0  0  0  0  0  0  0  0  0
   -3.4218    0.9334    1.3334 C   0  0  0  0  0  0  0  0  0  0  0  0
   -4.7674    0.6816    0.7827 C   0  0  0  0  0  0  0  0  0  0  0  0
   -4.9405    1.0811   -0.5789 N   0  0  0  0  0  0  0  0  0  0  0  0
   -6.1238    0.6813   -1.3135 C   0  0  0  0  0  0  0  0  0  0  0  0
   -6.2327    1.0227   -2.4935 O   0  0  0  0  0  0  0  0  0  0  0  0
   -7.1223   -0.1008   -0.6117 C   0  0  0  0  0  0  0  0  0  0  0  0
   -6.9938   -1.4267   -0.3166 C   0  0  0  0  0  0  0  0  0  0  0  0
   -7.9656   -2.1295    0.3792 C   0  0  0  0  0  0  0  0  0  0  0  0
   -9.0971   -1.4510    0.7812 C   0  0  0  0  0  0  0  0  0  0  0  0
  -10.2471   -1.7866    1.4694 C   0  0  0  0  0  0  0  0  0  0  0  0
  -11.0407   -0.6390    1.5663 C   0  0  0  0  0  0  0  0  0  0  0  0
  -10.3872    0.3186    0.9656 O   0  0  0  0  0  0  0  0  0  0  0  0
   -9.2472   -0.0895    0.4866 C   0  0  0  0  0  0  0  0  0  0  0  0
   -8.2744    0.5713   -0.1984 C   0  0  0  0  0  0  0  0  0  0  0  0
   -3.9806    1.9145   -1.2450 C   0  0  0  0  0  0  0  0  0  0  0  0
    4.4296    1.0533    0.9222 C   0  0  0  0  0  0  0  0  0  0  0  0
    3.8342    2.1764    1.0599 O   0  0  0  0  0  0  0  0  0  0  0  0
    5.6573    0.9250    1.5360 O   0  0  0  0  0  0  0  0  0  0  0  0
    6.9586   -0.1895   -0.7613 C   0  0  0  0  0  0  0  0  0  0  0  0
   10.5886    1.6002    1.2319 H   0  0  0  0  0  0  0  0  0  0  0  0
    9.3827    0.4760    1.9057 H   0  0  0  0  0  0  0  0  0  0  0  0
   10.9495   -0.1905    1.4156 H   0  0  0  0  0  0  0  0  0  0  0  0
    9.3115   -2.4502   -0.1374 H   0  0  0  0  0  0  0  0  0  0  0  0
    7.3311   -3.9724   -0.1998 H   0  0  0  0  0  0  0  0  0  0  0  0
    5.0696   -2.9781   -0.6367 H   0  0  0  0  0  0  0  0  0  0  0  0
    4.5719    0.3730   -1.8298 H   0  0  0  0  0  0  0  0  0  0  0  0
    3.9160   -1.2411   -1.5749 H   0  0  0  0  0  0  0  0  0  0  0  0
    3.5620   -0.8535    0.8195 H   0  0  0  0  0  0  0  0  0  0  0  0
    2.5835    1.2347   -1.1109 H   0  0  0  0  0  0  0  0  0  0  0  0
   -1.7849    1.8462   -2.8674 H   0  0  0  0  0  0  0  0  0  0  0  0
   -3.4071    1.8751    1.9277 H   0  0  0  0  0  0  0  0  0  0  0  0
   -3.1539    0.0976    2.0373 H   0  0  0  0  0  0  0  0  0  0  0  0
   -5.0294   -0.4147    0.8518 H   0  0  0  0  0  0  0  0  0  0  0  0
   -5.5341    1.1680    1.4422 H   0  0  0  0  0  0  0  0  0  0  0  0
   -6.0925   -1.9329   -0.6483 H   0  0  0  0  0  0  0  0  0  0  0  0
   -7.8811   -3.1699    0.6199 H   0  0  0  0  0  0  0  0  0  0  0  0
  -10.4998   -2.7484    1.8641 H   0  0  0  0  0  0  0  0  0  0  0  0
  -12.0067   -0.5550    2.0444 H   0  0  0  0  0  0  0  0  0  0  0  0
   -8.3839    1.6314   -0.4301 H   0  0  0  0  0  0  0  0  0  0  0  0
   -4.1167    2.9948   -0.9880 H   0  0  0  0  0  0  0  0  0  0  0  0
   -4.1322    1.7952   -2.3597 H   0  0  0  0  0  0  0  0  0  0  0  0
    6.0049    1.5950    2.2348 H   0  0  0  0  0  0  0  0  0  0  0  0
    6.8470    0.8938   -0.9259 H   0  0  0  0  0  0  0  0  0  0  0  0
  1  2  1  0
  2  3  2  0
  2  4  2  0
  2  5  1  0
  5  6  2  0
  6  7  1  0
  7  8  2  0
  8  9  1  0
  9 10  1  0
 10 11  1  0
 11 12  1  0
 12 13  1  0
 13 14  2  0
 13 15  1  0
 15 16  2  0
 16 17  1  0
 16 18  1  0
 18 19  2  0
 19 20  1  0
 20 21  2  0
 21 22  1  0
 20 23  1  0
 23 24  1  0
 24 25  1  0
 25 26  1  0
 26 27  2  0
 26 28  1  0
 28 29  2  0
 29 30  1  0
 30 31  2  0
 31 32  1  0
 32 33  2  0
 33 34  1  0
 34 35  1  0
 35 36  2  0
 25 37  1  0
 11 38  1  0
 38 39  2  0
 38 40  1  0
  9 41  2  0
 41  5  1  0
 21 15  1  0
 36 28  1  0
 37 19  1  0
 35 31  1  0
  1 42  1  0
  1 43  1  0
  1 44  1  0
  6 45  1  0
  7 46  1  0
  8 47  1  0
 10 48  1  0
 10 49  1  0
 11 50  1  1
 12 51  1  0
 18 52  1  0
 23 53  1  0
 23 54  1  0
 24 55  1  0
 24 56  1  0
 29 57  1  0
 30 58  1  0
 32 59  1  0
 33 60  1  0
 36 61  1  0
 37 62  1  0
 37 63  1  0
 40 64  1  0
 41 65  1  0
M  END
$$$$
