@<TRIPOS>MOLECULE
*****
 43 45 0 0 0
SMALL
GASTEIGER

@<TRIPOS>ATOM
      1 C           1.2106    1.3859   -0.0479 C.3     1  UNL1        0.1042
      2 S           1.3129    0.3655    1.4397 S.3     1  UNL1       -0.1311
      3 C           2.8239    0.8900    2.2759 C.3     1  UNL1        0.0186
      4 C           3.7847    1.4083    1.2812 C.2     1  UNL1       -0.0344
      5 C           5.1146    1.8685    1.8264 C.3     1  UNL1       -0.0407
      6 CA          3.7079    1.5536   -0.0244 C.2     1  UNL1        0.1217
      7 N           2.5124    1.1679   -0.7030 N.am    1  UNL1       -0.2490
      8 C           1.8752    0.6034   -1.8328 C.2     1  UNL1        0.2440
      9 O           2.2186    0.0977   -2.9260 O.2     1  UNL1       -0.2731
     10 CA          0.5607    0.8288   -1.2435 C.3     1  UNL1        0.1284
     11 N          -0.1915   -0.4008   -1.1298 N.am    1  UNL1       -0.3002
     12 C          -1.5137   -0.4559   -1.6026 C.2     1  UNL1        0.2347
     13 O          -2.1475    0.5226   -2.1468 O.2     1  UNL1       -0.2737
     14 CA         -2.6998   -1.2782   -1.7845 C.3     1  UNL1        0.1042
     15 N          -3.7775   -0.5624   -2.4458 N.3     1  UNL1       -0.3166
     16 C          -3.2138   -1.7264   -0.4616 C.2     1  UNL1       -0.0441
     17 C          -4.4459   -1.3574   -0.0452 C.2     1  UNL1       -0.0788
     18 C          -4.9323   -1.8217    1.2855 C.3     1  UNL1       -0.0162
     19 C          -3.8811   -1.4347    2.2793 C.2     1  UNL1       -0.0839
     20 C          -2.6625   -1.8452    1.8761 C.2     1  UNL1       -0.0836
     21 C          -2.5793   -2.5745    0.5799 C.3     1  UNL1       -0.0116
     22 C           4.7958    2.0926   -0.8716 C.2     1  UNL1        0.3513
     23 O           4.6757    2.2249   -2.2346 O.3     1  UNL1       -0.4763
     24 OXT         5.9339    2.4935   -0.5248 O.2     1  UNL1       -0.2437
     25 H           0.9876    2.4508    0.1706 H       1  UNL1        0.0644
     26 H           2.6239    1.7071    3.0089 H       1  UNL1        0.0423
     27 H           3.2909    0.0431    2.8476 H       1  UNL1        0.0423
     28 H           5.2765    2.9612    1.6323 H       1  UNL1        0.0275
     29 H           5.9571    1.2782    1.4390 H       1  UNL1        0.0275
     30 H           5.0578    1.7851    2.9279 H       1  UNL1        0.0275
     31 HA          0.0120    1.6366   -1.7915 H       1  UNL1        0.0622
     32 H          -0.0624   -1.3655   -0.7764 H       1  UNL1        0.1496
     33 HA         -2.5295   -2.1871   -2.3999 H       1  UNL1        0.0602
     34 H1         -4.5985   -1.1755   -2.6037 H       1  UNL1        0.1192
     35 H2         -3.3802   -0.2653   -3.3886 H       1  UNL1        0.1192
     36 H          -5.0798   -0.7271   -0.6726 H       1  UNL1        0.0575
     37 H          -5.0123   -2.9059    1.2799 H       1  UNL1        0.0350
     38 H          -5.8964   -1.3058    1.5031 H       1  UNL1        0.0350
     39 H          -3.8034   -0.9116    3.2481 H       1  UNL1        0.0572
     40 H          -1.7149   -1.6897    2.4194 H       1  UNL1        0.0572
     41 H          -1.5395   -2.8484    0.3316 H       1  UNL1        0.0353
     42 H          -3.1635   -3.5330    0.7248 H       1  UNL1        0.0353
     43 H           5.0926    3.0065   -2.7195 H       1  UNL1        0.2954
@<TRIPOS>BOND
     1     1     2    1
     2     2     3    1
     3     3     4    1
     4     4     5    1
     5     4     6    2
     6     6     7    1
     7     7     8   am
     8     8     9    2
     9     8    10    1
    10    10    11    1
    11    11    12   am
    12    12    13    2
    13    12    14    1
    14    14    15    1
    15    14    16    1
    16    16    17    2
    17    17    18    1
    18    18    19    1
    19    19    20    2
    20    20    21    1
    21     6    22    1
    22    22    23    1
    23    22    24    2
    24     7     1    1
    25    21    16    1
    26    10     1    1
    27     1    25    1
    28     3    26    1
    29     3    27    1
    30     5    28    1
    31     5    29    1
    32     5    30    1
    33    10    31    1
    34    11    32    1
    35    14    33    1
    36    15    34    1
    37    15    35    1
    38    17    36    1
    39    18    37    1
    40    18    38    1
    41    19    39    1
    42    20    40    1
    43    21    41    1
    44    21    42    1
    45    23    43    1
