
     RDKit          3D

 45 47  0  0  0  0  0  0  0  0999 V2000
    1.5954    5.1950   -2.1556 C   0  0  0  0  0  0  0  0  0  0  0  0
    0.5702    4.3090   -1.8222 O   0  0  0  0  0  0  0  0  0  0  0  0
    0.7353    3.0527   -1.2686 C   0  0  0  0  0  0  0  0  0  0  0  0
    1.9495    2.5206   -0.9770 C   0  0  0  0  0  0  0  0  0  0  0  0
    2.0508    1.2461   -0.4199 C   0  0  0  0  0  0  0  0  0  0  0  0
    0.9509    0.4592   -0.1362 C   0  0  0  0  0  0  0  0  0  0  0  0
   -0.2789    1.0366   -0.4456 C   0  0  0  0  0  0  0  0  0  0  0  0
   -0.3877    2.2936   -0.9956 C   0  0  0  0  0  0  0  0  0  0  0  0
   -1.2393    0.1244   -0.0595 C   0  0  0  0  0  0  0  0  0  0  0  0
   -2.6849    0.3560   -0.2242 C   0  0  0  0  0  0  0  0  0  0  0  0
   -3.5708   -0.5590    0.4856 C   0  0  0  0  0  0  0  0  0  0  0  0
   -3.2513   -1.5090    1.2281 O   0  0  0  0  0  0  0  0  0  0  0  0
   -4.9889   -0.3430    0.3110 N   0  0  0  0  0  0  0  0  0  0  0  0
   -6.1468   -1.3431    1.0869 S   0  0  0  0  0  6  0  0  0  0  0  0
   -7.4160   -0.5133    1.2350 O   0  0  0  0  0  0  0  0  0  0  0  0
   -5.6950   -1.6990    2.4538 O   0  0  0  0  0  0  0  0  0  0  0  0
   -6.5902   -2.7524    0.1041 C   0  0  0  0  0  0  0  0  0  0  0  0
   -7.5214   -3.4783    0.8239 F   0  0  0  0  0  0  0  0  0  0  0  0
   -5.4978   -3.5495   -0.1782 F   0  0  0  0  0  0  0  0  0  0  0  0
   -7.2091   -2.3136   -1.0438 F   0  0  0  0  0  0  0  0  0  0  0  0
   -0.5677   -0.9274    0.4465 C   0  0  0  0  0  0  0  0  0  0  0  0
    0.7901   -0.7537    0.4117 N   0  0  0  0  0  0  0  0  0  0  0  0
    1.7286   -1.6563    0.9336 C   0  0  0  0  0  0  0  0  0  0  0  0
    1.2007   -2.6776    1.5812 O   0  0  0  0  0  0  0  0  0  0  0  0
    3.1593   -1.6644    0.8834 C   0  0  0  0  0  0  0  0  0  0  0  0
    3.9283   -2.0265    2.0053 C   0  0  0  0  0  0  0  0  0  0  0  0
    5.2908   -2.1433    1.8986 C   0  0  0  0  0  0  0  0  0  0  0  0
    5.9626   -1.9169    0.7137 C   0  0  0  0  0  0  0  0  0  0  0  0
    7.7146   -2.0767    0.6152 Cl  0  0  0  0  0  0  0  0  0  0  0  0
    5.2410   -1.5663   -0.3839 C   0  0  0  0  0  0  0  0  0  0  0  0
    3.8740   -1.4529   -0.2637 C   0  0  0  0  0  0  0  0  0  0  0  0
    1.2694    5.7888   -3.0398 H   0  0  0  0  0  0  0  0  0  0  0  0
    2.5348    4.6729   -2.4462 H   0  0  0  0  0  0  0  0  0  0  0  0
    1.7875    5.8821   -1.2935 H   0  0  0  0  0  0  0  0  0  0  0  0
    2.8343    3.1016   -1.1846 H   0  0  0  0  0  0  0  0  0  0  0  0
    3.0246    0.9260   -0.1886 H   0  0  0  0  0  0  0  0  0  0  0  0
   -1.3669    2.7117   -1.2272 H   0  0  0  0  0  0  0  0  0  0  0  0
   -2.9697    0.4272   -1.3144 H   0  0  0  0  0  0  0  0  0  0  0  0
   -2.9441    1.3929    0.1546 H   0  0  0  0  0  0  0  0  0  0  0  0
   -5.2846    0.4419   -0.3037 H   0  0  0  0  0  0  0  0  0  0  0  0
   -1.0444   -1.8169    0.8330 H   0  0  0  0  0  0  0  0  0  0  0  0
    3.4216   -2.2071    2.9350 H   0  0  0  0  0  0  0  0  0  0  0  0
    5.9189   -2.4227    2.7442 H   0  0  0  0  0  0  0  0  0  0  0  0
    5.7557   -1.3885   -1.3112 H   0  0  0  0  0  0  0  0  0  0  0  0
    3.3665   -1.1807   -1.2013 H   0  0  0  0  0  0  0  0  0  0  0  0
  1  2  1  0
  2  3  1  0
  3  4  2  0
  4  5  1  0
  5  6  2  0
  6  7  1  0
  7  8  2  0
  7  9  1  0
  9 10  1  0
 10 11  1  0
 11 12  2  0
 11 13  1  0
 13 14  1  0
 14 15  2  0
 14 16  2  0
 14 17  1  0
 17 18  1  0
 17 19  1  0
 17 20  1  0
  9 21  2  0
 21 22  1  0
 22 23  1  0
 23 24  2  0
 23 25  1  0
 25 26  2  0
 26 27  1  0
 27 28  2  0
 28 29  1  0
 28 30  1  0
 30 31  2  0
  8  3  1  0
 31 25  1  0
 22  6  1  0
  1 32  1  0
  1 33  1  0
  1 34  1  0
  4 35  1  0
  5 36  1  0
  8 37  1  0
 10 38  1  0
 10 39  1  0
 13 40  1  0
 21 41  1  0
 26 42  1  0
 27 43  1  0
 30 44  1  0
 31 45  1  0
M  END
$$$$
