@<TRIPOS>MOLECULE
*****
 45 47 0 0 0
SMALL
GASTEIGER

@<TRIPOS>ATOM
      1 C           1.5954    5.1950   -2.1556 C.3     1  UNL1        0.0788
      2 O           0.5702    4.3090   -1.8222 O.3     1  UNL1       -0.4951
      3 C           0.7353    3.0527   -1.2686 C.ar    1  UNL1        0.1208
      4 C           1.9495    2.5206   -0.9770 C.ar    1  UNL1       -0.0180
      5 C           2.0508    1.2461   -0.4199 C.ar    1  UNL1       -0.0337
      6 C           0.9509    0.4592   -0.1362 C.ar    1  UNL1        0.0571
      7 C          -0.2789    1.0366   -0.4456 C.ar    1  UNL1        0.0074
      8 C          -0.3877    2.2936   -0.9956 C.ar    1  UNL1       -0.0105
      9 C          -1.2393    0.1244   -0.0595 C.ar    1  UNL1       -0.0128
     10 C          -2.6849    0.3560   -0.2242 C.3     1  UNL1        0.0526
     11 C          -3.5708   -0.5590    0.4856 C.2     1  UNL1        0.2363
     12 O          -3.2513   -1.5090    1.2281 O.2     1  UNL1       -0.2739
     13 N          -4.9889   -0.3430    0.3110 N.am    1  UNL1       -0.1819
     14 S          -6.1468   -1.3431    1.0869 S.O2    1  UNL1        0.1431
     15 O          -7.4160   -0.5133    1.2350 O.2     1  UNL1       -0.1466
     16 O          -5.6950   -1.6990    2.4538 O.2     1  UNL1       -0.1466
     17 C          -6.5902   -2.7524    0.1041 C.3     1  UNL1        0.5385
     18 F          -7.5214   -3.4783    0.8239 F       1  UNL1       -0.1491
     19 F          -5.4978   -3.5495   -0.1782 F       1  UNL1       -0.1491
     20 F          -7.2091   -2.3136   -1.0438 F       1  UNL1       -0.1491
     21 C          -0.5677   -0.9274    0.4465 C.ar    1  UNL1        0.0175
     22 N           0.7901   -0.7537    0.4117 N.ar    1  UNL1       -0.2828
     23 C           1.7286   -1.6563    0.9336 C.2     1  UNL1        0.2629
     24 O           1.2007   -2.6776    1.5812 O.2     1  UNL1       -0.2667
     25 C           3.1593   -1.6644    0.8834 C.ar    1  UNL1        0.0399
     26 C           3.9283   -2.0265    2.0053 C.ar    1  UNL1       -0.0480
     27 C           5.2908   -2.1433    1.8986 C.ar    1  UNL1       -0.0427
     28 C           5.9626   -1.9169    0.7137 C.ar    1  UNL1        0.0410
     29 CL          7.7146   -2.0767    0.6152 Cl      1  UNL1       -0.0835
     30 C           5.2410   -1.5663   -0.3839 C.ar    1  UNL1       -0.0427
     31 C           3.8740   -1.4529   -0.2637 C.ar    1  UNL1       -0.0480
     32 H           1.2694    5.7888   -3.0398 H       1  UNL1        0.0660
     33 H           2.5348    4.6729   -2.4462 H       1  UNL1        0.0660
     34 H           1.7875    5.8821   -1.2935 H       1  UNL1        0.0660
     35 H           2.8343    3.1016   -1.1846 H       1  UNL1        0.0655
     36 H           3.0246    0.9260   -0.1886 H       1  UNL1        0.0640
     37 H          -1.3669    2.7117   -1.2272 H       1  UNL1        0.0661
     38 H          -2.9697    0.4272   -1.3144 H       1  UNL1        0.0408
     39 H          -2.9441    1.3929    0.1546 H       1  UNL1        0.0408
     40 H          -5.2846    0.4419   -0.3037 H       1  UNL1        0.1764
     41 H          -1.0444   -1.8169    0.8330 H       1  UNL1        0.0817
     42 H           3.4216   -2.2071    2.9350 H       1  UNL1        0.0626
     43 H           5.9189   -2.4227    2.7442 H       1  UNL1        0.0632
     44 H           5.7557   -1.3885   -1.3112 H       1  UNL1        0.0632
     45 H           3.3665   -1.1807   -1.2013 H       1  UNL1        0.0626
@<TRIPOS>BOND
     1     1     2    1
     2     2     3    1
     3     3     4   ar
     4     4     5   ar
     5     5     6   ar
     6     6     7   ar
     7     7     8   ar
     8     7     9   ar
     9     9    10    1
    10    10    11    1
    11    11    12    2
    12    11    13   am
    13    13    14    1
    14    14    15    2
    15    14    16    2
    16    14    17    1
    17    17    18    1
    18    17    19    1
    19    17    20    1
    20     9    21   ar
    21    21    22   ar
    22    22    23   am
    23    23    24    2
    24    23    25    1
    25    25    26   ar
    26    26    27   ar
    27    27    28   ar
    28    28    29    1
    29    28    30   ar
    30    30    31   ar
    31     8     3   ar
    32    31    25   ar
    33    22     6   ar
    34     1    32    1
    35     1    33    1
    36     1    34    1
    37     4    35    1
    38     5    36    1
    39     8    37    1
    40    10    38    1
    41    10    39    1
    42    13    40    1
    43    21    41    1
    44    26    42    1
    45    27    43    1
    46    30    44    1
    47    31    45    1
