
     RDKit          3D

 56 59  0  0  0  0  0  0  0  0999 V2000
    1.3745   -1.2995   -0.1524 C   0  0  2  0  0  0  0  0  0  0  0  0
    1.4147   -2.7834   -0.3614 C   0  0  0  0  0  0  0  0  0  0  0  0
    2.7121   -0.7156    0.2212 C   0  0  0  0  0  0  0  0  0  0  0  0
    3.7580   -0.9579   -0.8415 C   0  0  0  0  0  0  0  0  0  0  0  0
    5.0412   -0.3484   -0.3833 C   0  0  0  0  0  0  0  0  0  0  0  0
    5.9304   -1.1283    0.3661 C   0  0  0  0  0  0  0  0  0  0  0  0
    7.1214   -0.5748    0.7947 C   0  0  0  0  0  0  0  0  0  0  0  0
    7.4857    0.7204    0.5206 C   0  0  0  0  0  0  0  0  0  0  0  0
    8.7056    1.1352    1.0143 O   0  0  0  0  0  0  0  0  0  0  0  0
    6.6002    1.4554   -0.2107 C   0  0  0  0  0  0  0  0  0  0  0  0
    5.3947    0.9728   -0.6725 C   0  0  0  0  0  0  0  0  0  0  0  0
    0.3731   -0.9941    0.8403 N   0  0  0  0  0  0  0  0  0  0  0  0
   -0.7240   -0.2314    0.3605 C   0  0  0  0  0  0  0  0  0  0  0  0
   -0.8320    0.1564   -0.8332 O   0  0  0  0  0  0  0  0  0  0  0  0
   -1.8105    0.1280    1.3377 C   0  0  0  0  0  0  0  0  0  0  0  0
   -2.8824    0.9159    0.7025 C   0  0  0  0  0  0  0  0  0  0  0  0
   -3.8593    0.4115   -0.1052 C   0  0  0  0  0  0  0  0  0  0  0  0
   -4.5969    1.4730   -0.4554 N   0  0  0  0  0  0  0  0  0  0  0  0
   -4.1461    2.6088    0.0799 C   0  0  0  0  0  0  0  0  0  0  0  0
   -3.0420    2.2910    0.8331 C   0  0  0  0  0  0  0  0  0  0  0  0
   -2.3261    3.2444    1.5295 C   0  0  0  0  0  0  0  0  0  0  0  0
   -2.6789    4.5775    1.5101 C   0  0  0  0  0  0  0  0  0  0  0  0
   -3.7833    4.9156    0.7606 C   0  0  0  0  0  0  0  0  0  0  0  0
   -4.4798    3.9449    0.0751 C   0  0  0  0  0  0  0  0  0  0  0  0
   -4.2155   -0.8928   -0.6001 C   0  0  0  0  0  0  0  0  0  0  0  0
   -5.2997   -1.0483   -1.4368 C   0  0  0  0  0  0  0  0  0  0  0  0
   -5.7139   -2.2531   -1.9543 C   0  0  0  0  0  0  0  0  0  0  0  0
   -5.0515   -3.4177   -1.6607 C   0  0  0  0  0  0  0  0  0  0  0  0
   -3.9604   -3.3213   -0.8290 C   0  0  0  0  0  0  0  0  0  0  0  0
   -3.6045   -2.0845   -0.3496 C   0  0  0  0  0  0  0  0  0  0  0  0
    1.1034   -0.8637   -1.1548 H   0  0  0  0  0  0  0  0  0  0  0  0
    0.3481   -3.0893   -0.5717 H   0  0  0  0  0  0  0  0  0  0  0  0
    1.9671   -3.0774   -1.2696 H   0  0  0  0  0  0  0  0  0  0  0  0
    1.6811   -3.3594    0.5474 H   0  0  0  0  0  0  0  0  0  0  0  0
    3.0361   -1.1042    1.2046 H   0  0  0  0  0  0  0  0  0  0  0  0
    2.5752    0.3806    0.3240 H   0  0  0  0  0  0  0  0  0  0  0  0
    3.4987   -0.4470   -1.7897 H   0  0  0  0  0  0  0  0  0  0  0  0
    3.9288   -2.0152   -1.0524 H   0  0  0  0  0  0  0  0  0  0  0  0
    5.6224   -2.1586    0.5748 H   0  0  0  0  0  0  0  0  0  0  0  0
    7.7218   -1.2756    1.3631 H   0  0  0  0  0  0  0  0  0  0  0  0
    9.5001    0.4990    1.0508 H   0  0  0  0  0  0  0  0  0  0  0  0
    6.8964    2.4921   -0.4276 H   0  0  0  0  0  0  0  0  0  0  0  0
    4.7135    1.5836   -1.2516 H   0  0  0  0  0  0  0  0  0  0  0  0
    0.5039   -1.3354    1.8147 H   0  0  0  0  0  0  0  0  0  0  0  0
   -2.1867   -0.7158    1.9195 H   0  0  0  0  0  0  0  0  0  0  0  0
   -1.2819    0.8407    2.0586 H   0  0  0  0  0  0  0  0  0  0  0  0
   -5.4581    1.5879   -1.0670 H   0  0  0  0  0  0  0  0  0  0  0  0
   -1.4629    2.9354    2.1074 H   0  0  0  0  0  0  0  0  0  0  0  0
   -2.0996    5.3014    2.0650 H   0  0  0  0  0  0  0  0  0  0  0  0
   -4.1092    5.9474    0.7064 H   0  0  0  0  0  0  0  0  0  0  0  0
   -5.3310    4.2404   -0.4959 H   0  0  0  0  0  0  0  0  0  0  0  0
   -5.9373   -0.2191   -1.7699 H   0  0  0  0  0  0  0  0  0  0  0  0
   -6.5683   -2.3333   -2.6067 H   0  0  0  0  0  0  0  0  0  0  0  0
   -5.3860   -4.3498   -2.0715 H   0  0  0  0  0  0  0  0  0  0  0  0
   -3.4354   -4.2262   -0.5929 H   0  0  0  0  0  0  0  0  0  0  0  0
   -2.7449   -2.1382    0.2849 H   0  0  0  0  0  0  0  0  0  0  0  0
  1  2  1  0
  1  3  1  0
  3  4  1  0
  4  5  1  0
  5  6  2  0
  6  7  1  0
  7  8  2  0
  8  9  1  0
  8 10  1  0
 10 11  2  0
  1 12  1  0
 12 13  1  0
 13 14  2  0
 13 15  1  0
 15 16  1  0
 16 17  2  0
 17 18  1  0
 18 19  1  0
 19 20  2  0
 20 21  1  0
 21 22  2  0
 22 23  1  0
 23 24  2  0
 17 25  1  0
 25 26  2  0
 26 27  1  0
 27 28  2  0
 28 29  1  0
 29 30  2  0
 11  5  1  0
 20 16  1  0
 30 25  1  0
 24 19  1  0
  1 31  1  6
  2 32  1  0
  2 33  1  0
  2 34  1  0
  3 35  1  0
  3 36  1  0
  4 37  1  0
  4 38  1  0
  6 39  1  0
  7 40  1  0
  9 41  1  0
 10 42  1  0
 11 43  1  0
 12 44  1  0
 15 45  1  0
 15 46  1  0
 18 47  1  0
 21 48  1  0
 22 49  1  0
 23 50  1  0
 24 51  1  0
 26 52  1  0
 27 53  1  0
 28 54  1  0
 29 55  1  0
 30 56  1  0
M  END
$$$$
