@<TRIPOS>MOLECULE
*****
 29 30 0 0 0
SMALL
GASTEIGER

@<TRIPOS>ATOM
      1 N          -4.7012    1.5687   -0.9655 N.pl3   1  UNL1       -0.3546
      2 C          -3.7085    0.7475   -0.3608 C.ar    1  UNL1        0.0789
      3 C          -3.7788   -0.6265   -0.5488 C.ar    1  UNL1        0.1472
      4 F          -4.7636   -1.1856   -1.2880 F       1  UNL1       -0.2035
      5 C          -2.8035   -1.3694    0.0517 C.ar    1  UNL1        0.0021
      6 C          -1.7629   -0.8472    0.8258 C.ar    1  UNL1        0.1128
      7 C          -1.7400    0.5213    0.9804 C.ar    1  UNL1       -0.0148
      8 C          -2.6973    1.3259    0.3986 C.ar    1  UNL1        0.0662
      9 CL         -2.5959    3.0453    0.6432 Cl      1  UNL1       -0.0815
     10 S          -0.6380   -1.9993    1.4904 S.O2    1  UNL1        0.0740
     11 O          -0.0935   -1.4179    2.7735 O.2     1  UNL1       -0.1499
     12 O          -1.3814   -3.2824    1.7846 O.2     1  UNL1       -0.1499
     13 N           0.6819   -2.3400    0.4503 N.pl3   1  UNL1       -0.1923
     14 C           1.4296   -1.1294    0.2189 C.ar    1  UNL1        0.2022
     15 N           1.4816    0.0446    0.4808 N.ar    1  UNL1       -0.1228
     16 N           2.3644    0.8740    0.0545 N.ar    1  UNL1       -0.1190
     17 C           3.2975    0.5091   -0.7127 C.ar    1  UNL1        0.2556
     18 S           2.9531   -1.2472   -0.9118 S.2     1  UNL1       -0.0094
     19 S           4.6306    1.3471   -1.4627 S.O2    1  UNL1        0.0815
     20 N           5.9612    1.2710   -0.3967 N.3     1  UNL1       -0.2015
     21 O           4.2470    2.7549   -1.7613 O.2     1  UNL1       -0.1512
     22 O           4.9660    0.5809   -2.7212 O.2     1  UNL1       -0.1512
     23 H          -5.2160    2.3934   -0.5819 H       1  UNL1        0.1424
     24 H          -5.0803    1.4528   -1.9469 H       1  UNL1        0.1424
     25 H          -2.8821   -2.4471   -0.1120 H       1  UNL1        0.0666
     26 H          -0.9434    0.9017    1.5722 H       1  UNL1        0.0652
     27 H           0.9508   -3.2557    0.0228 H       1  UNL1        0.1758
     28 H           6.2193    0.2544   -0.2795 H       1  UNL1        0.1443
     29 H           5.6033    1.5550    0.5603 H       1  UNL1        0.1443
@<TRIPOS>BOND
     1     1     2    1
     2     2     3   ar
     3     3     4    1
     4     3     5   ar
     5     5     6   ar
     6     6     7   ar
     7     7     8   ar
     8     8     9    1
     9     6    10    1
    10    10    11    2
    11    10    12    2
    12    10    13    1
    13    13    14    1
    14    14    15   ar
    15    15    16   ar
    16    16    17   ar
    17    17    18   ar
    18    17    19    1
    19    19    20    1
    20    19    21    2
    21    19    22    2
    22     8     2   ar
    23    18    14   ar
    24     1    23    1
    25     1    24    1
    26     5    25    1
    27     7    26    1
    28    13    27    1
    29    20    28    1
    30    20    29    1
