@<TRIPOS>MOLECULE
*****
 68 73 0 0 0
SMALL
GASTEIGER

@<TRIPOS>ATOM
      1 C          -8.6648   -2.3524    1.0914 C.3     1  UNL1        0.0032
      2 N          -7.2857   -2.1220    0.7910 N.am    1  UNL1       -0.3024
      3 C          -6.7369   -2.6088   -0.4541 C.3     1  UNL1        0.0032
      4 C          -6.4426   -1.4245    1.6883 C.2     1  UNL1        0.2627
      5 O          -6.9220   -1.0045    2.7677 O.2     1  UNL1       -0.2684
      6 C          -5.0282   -1.1706    1.4092 C.ar    1  UNL1        0.1070
      7 C          -4.0140   -1.8908    1.9652 C.ar    1  UNL1       -0.0209
      8 C          -2.8442   -1.3889    1.4956 C.ar    1  UNL1        0.0378
      9 C          -1.5151   -1.7105    1.7073 C.ar    1  UNL1        0.0419
     10 N          -0.6154   -0.9715    1.0527 N.ar    1  UNL1       -0.2219
     11 C          -0.8946    0.0396    0.2214 C.ar    1  UNL1        0.2224
     12 N           0.0743    0.8144   -0.4575 N.pl3   1  UNL1       -0.2684
     13 C           1.4667    0.6680   -0.3280 C.ar    1  UNL1        0.1251
     14 C           2.0976   -0.2249    0.4733 C.ar    1  UNL1       -0.0197
     15 C           3.4998   -0.3240    0.5635 C.ar    1  UNL1       -0.0355
     16 C           4.2474    0.5224   -0.1953 C.ar    1  UNL1        0.0545
     17 N           5.6733    0.4564   -0.1282 N.am    1  UNL1       -0.2685
     18 C           6.2491   -0.4535   -1.0642 C.3     1  UNL1        0.0352
     19 C           7.5105   -1.1109   -0.6185 C.3     1  UNL1        0.0241
     20 C           8.7174   -0.7171   -1.4279 C.3     1  UNL1       -0.0347
     21 C           9.0289    0.6645   -0.8408 C.3     1  UNL1       -0.0356
     22 C           8.6279    0.4850    0.6038 C.3     1  UNL1        0.0162
     23 C           7.6968    1.6063    0.9826 C.3     1  UNL1        0.0399
     24 C           6.2845    1.2755    0.8261 C.2     1  UNL1        0.2213
     25 O           5.5200    1.8065    1.6705 O.2     1  UNL1       -0.2752
     26 N           7.9159   -0.7503    0.7173 N.3     1  UNL1       -0.3086
     27 C           3.6187    1.4302   -1.0105 C.ar    1  UNL1        0.0511
     28 N           2.2883    1.4905   -1.0650 N.ar    1  UNL1       -0.2383
     29 N          -2.2193    0.3289    0.0363 N.ar    1  UNL1       -0.1962
     30 C          -3.1826   -0.3454    0.6400 C.ar    1  UNL1        0.1466
     31 N          -4.5367   -0.2206    0.5956 N.ar    1  UNL1       -0.3180
     32 C          -5.3187    0.7352   -0.1651 C.3     1  UNL1        0.0366
     33 C          -5.1567    2.1385    0.3799 C.3     1  UNL1       -0.0320
     34 C          -5.7481    2.9744   -0.7150 C.3     1  UNL1       -0.0511
     35 C          -5.5246    2.2095   -1.9920 C.3     1  UNL1       -0.0511
     36 C          -4.8652    0.8867   -1.5799 C.3     1  UNL1       -0.0320
     37 H          -9.1255   -3.0360    0.3369 H       1  UNL1        0.0428
     38 H          -8.8147   -2.7707    2.0993 H       1  UNL1        0.0428
     39 H          -9.2409   -1.3969    1.0159 H       1  UNL1        0.0428
     40 H          -7.0668   -1.9747   -1.2961 H       1  UNL1        0.0428
     41 H          -7.0453   -3.6519   -0.6703 H       1  UNL1        0.0428
     42 H          -5.6412   -2.5623   -0.4308 H       1  UNL1        0.0428
     43 H          -4.0560   -2.7354    2.6734 H       1  UNL1        0.0647
     44 H          -1.1759   -2.5004    2.3525 H       1  UNL1        0.0838
     45 H          -0.3136    1.5600   -1.1137 H       1  UNL1        0.1564
     46 H           1.5589   -0.9199    1.0974 H       1  UNL1        0.0652
     47 H           3.9497   -1.0538    1.2198 H       1  UNL1        0.0638
     48 H           6.4960    0.1444   -1.9924 H       1  UNL1        0.0484
     49 H           5.5071   -1.1984   -1.3851 H       1  UNL1        0.0484
     50 H           7.3847   -2.2095   -0.6863 H       1  UNL1        0.0476
     51 H           9.5560   -1.4102   -1.1820 H       1  UNL1        0.0281
     52 H           8.5237   -0.6621   -2.5127 H       1  UNL1        0.0281
     53 H          10.0755    0.9387   -0.9839 H       1  UNL1        0.0281
     54 H           8.3256    1.3621   -1.3424 H       1  UNL1        0.0281
     55 H           9.5345    0.5531    1.2241 H       1  UNL1        0.0465
     56 H           7.8898    1.8435    2.0589 H       1  UNL1        0.0374
     57 H           7.9326    2.5620    0.4371 H       1  UNL1        0.0374
     58 H           7.1314   -0.7334    1.4020 H       1  UNL1        0.1225
     59 H           4.1909    2.1156   -1.6238 H       1  UNL1        0.0849
     60 H          -6.3673    0.4178   -0.1698 H       1  UNL1        0.0528
     61 H          -5.6172    2.2682    1.3581 H       1  UNL1        0.0285
     62 H          -4.0492    2.3136    0.4535 H       1  UNL1        0.0285
     63 H          -6.8136    3.1295   -0.4844 H       1  UNL1        0.0266
     64 H          -5.2357    3.9591   -0.7113 H       1  UNL1        0.0266
     65 H          -4.9196    2.7808   -2.6943 H       1  UNL1        0.0266
     66 H          -6.5307    2.0206   -2.4439 H       1  UNL1        0.0266
     67 H          -3.7804    0.9756   -1.7123 H       1  UNL1        0.0285
     68 H          -5.2644    0.1298   -2.2763 H       1  UNL1        0.0285
@<TRIPOS>BOND
     1     1     2    1
     2     2     3    1
     3     2     4   am
     4     4     5    2
     5     4     6    1
     6     6     7   ar
     7     7     8   ar
     8     8     9   ar
     9     9    10   ar
    10    10    11   ar
    11    11    12    1
    12    12    13    1
    13    13    14   ar
    14    14    15   ar
    15    15    16   ar
    16    16    17    1
    17    17    18    1
    18    18    19    1
    19    19    20    1
    20    20    21    1
    21    21    22    1
    22    22    23    1
    23    23    24    1
    24    24    25    2
    25    22    26    1
    26    16    27   ar
    27    27    28   ar
    28    11    29   ar
    29    29    30   ar
    30    30    31   ar
    31    31    32    1
    32    32    33    1
    33    33    34    1
    34    34    35    1
    35    35    36    1
    36    31     6   ar
    37    36    32    1
    38    30     8   ar
    39    28    13   ar
    40    24    17   am
    41    26    19    1
    42     1    37    1
    43     1    38    1
    44     1    39    1
    45     3    40    1
    46     3    41    1
    47     3    42    1
    48     7    43    1
    49     9    44    1
    50    12    45    1
    51    14    46    1
    52    15    47    1
    53    18    48    1
    54    18    49    1
    55    19    50    1
    56    20    51    1
    57    20    52    1
    58    21    53    1
    59    21    54    1
    60    22    55    1
    61    23    56    1
    62    23    57    1
    63    26    58    1
    64    27    59    1
    65    32    60    1
    66    33    61    1
    67    33    62    1
    68    34    63    1
    69    34    64    1
    70    35    65    1
    71    35    66    1
    72    36    67    1
    73    36    68    1
