
     RDKit          3D

 68 73  0  0  0  0  0  0  0  0999 V2000
   -8.6648   -2.3524    1.0914 C   0  0  0  0  0  0  0  0  0  0  0  0
   -7.2857   -2.1220    0.7910 N   0  0  0  0  0  0  0  0  0  0  0  0
   -6.7369   -2.6088   -0.4541 C   0  0  0  0  0  0  0  0  0  0  0  0
   -6.4426   -1.4245    1.6883 C   0  0  0  0  0  0  0  0  0  0  0  0
   -6.9220   -1.0045    2.7677 O   0  0  0  0  0  0  0  0  0  0  0  0
   -5.0282   -1.1706    1.4092 C   0  0  0  0  0  0  0  0  0  0  0  0
   -4.0140   -1.8908    1.9652 C   0  0  0  0  0  0  0  0  0  0  0  0
   -2.8442   -1.3889    1.4956 C   0  0  0  0  0  0  0  0  0  0  0  0
   -1.5151   -1.7105    1.7073 C   0  0  0  0  0  0  0  0  0  0  0  0
   -0.6154   -0.9715    1.0527 N   0  0  0  0  0  0  0  0  0  0  0  0
   -0.8946    0.0396    0.2214 C   0  0  0  0  0  0  0  0  0  0  0  0
    0.0743    0.8144   -0.4575 N   0  0  0  0  0  0  0  0  0  0  0  0
    1.4667    0.6680   -0.3280 C   0  0  0  0  0  0  0  0  0  0  0  0
    2.0976   -0.2249    0.4733 C   0  0  0  0  0  0  0  0  0  0  0  0
    3.4998   -0.3240    0.5635 C   0  0  0  0  0  0  0  0  0  0  0  0
    4.2474    0.5224   -0.1953 C   0  0  0  0  0  0  0  0  0  0  0  0
    5.6733    0.4564   -0.1282 N   0  0  0  0  0  0  0  0  0  0  0  0
    6.2491   -0.4535   -1.0642 C   0  0  0  0  0  0  0  0  0  0  0  0
    7.5105   -1.1109   -0.6185 C   0  0  1  0  0  0  0  0  0  0  0  0
    8.7174   -0.7171   -1.4279 C   0  0  0  0  0  0  0  0  0  0  0  0
    9.0289    0.6645   -0.8408 C   0  0  0  0  0  0  0  0  0  0  0  0
    8.6279    0.4850    0.6038 C   0  0  1  0  0  0  0  0  0  0  0  0
    7.6968    1.6063    0.9826 C   0  0  0  0  0  0  0  0  0  0  0  0
    6.2845    1.2755    0.8261 C   0  0  0  0  0  0  0  0  0  0  0  0
    5.5200    1.8065    1.6705 O   0  0  0  0  0  0  0  0  0  0  0  0
    7.9159   -0.7503    0.7173 N   0  0  0  0  0  0  0  0  0  0  0  0
    3.6187    1.4302   -1.0105 C   0  0  0  0  0  0  0  0  0  0  0  0
    2.2883    1.4905   -1.0650 N   0  0  0  0  0  0  0  0  0  0  0  0
   -2.2193    0.3289    0.0363 N   0  0  0  0  0  0  0  0  0  0  0  0
   -3.1826   -0.3454    0.6400 C   0  0  0  0  0  0  0  0  0  0  0  0
   -4.5367   -0.2206    0.5956 N   0  0  0  0  0  0  0  0  0  0  0  0
   -5.3187    0.7352   -0.1651 C   0  0  0  0  0  0  0  0  0  0  0  0
   -5.1567    2.1385    0.3799 C   0  0  0  0  0  0  0  0  0  0  0  0
   -5.7481    2.9744   -0.7150 C   0  0  0  0  0  0  0  0  0  0  0  0
   -5.5246    2.2095   -1.9920 C   0  0  0  0  0  0  0  0  0  0  0  0
   -4.8652    0.8867   -1.5799 C   0  0  0  0  0  0  0  0  0  0  0  0
   -9.1255   -3.0360    0.3369 H   0  0  0  0  0  0  0  0  0  0  0  0
   -8.8147   -2.7707    2.0993 H   0  0  0  0  0  0  0  0  0  0  0  0
   -9.2409   -1.3969    1.0159 H   0  0  0  0  0  0  0  0  0  0  0  0
   -7.0668   -1.9747   -1.2961 H   0  0  0  0  0  0  0  0  0  0  0  0
   -7.0453   -3.6519   -0.6703 H   0  0  0  0  0  0  0  0  0  0  0  0
   -5.6412   -2.5623   -0.4308 H   0  0  0  0  0  0  0  0  0  0  0  0
   -4.0560   -2.7354    2.6734 H   0  0  0  0  0  0  0  0  0  0  0  0
   -1.1759   -2.5004    2.3525 H   0  0  0  0  0  0  0  0  0  0  0  0
   -0.3136    1.5600   -1.1137 H   0  0  0  0  0  0  0  0  0  0  0  0
    1.5589   -0.9199    1.0974 H   0  0  0  0  0  0  0  0  0  0  0  0
    3.9497   -1.0538    1.2198 H   0  0  0  0  0  0  0  0  0  0  0  0
    6.4960    0.1444   -1.9924 H   0  0  0  0  0  0  0  0  0  0  0  0
    5.5071   -1.1984   -1.3851 H   0  0  0  0  0  0  0  0  0  0  0  0
    7.3847   -2.2095   -0.6863 H   0  0  0  0  0  0  0  0  0  0  0  0
    9.5560   -1.4102   -1.1820 H   0  0  0  0  0  0  0  0  0  0  0  0
    8.5237   -0.6621   -2.5127 H   0  0  0  0  0  0  0  0  0  0  0  0
   10.0755    0.9387   -0.9839 H   0  0  0  0  0  0  0  0  0  0  0  0
    8.3256    1.3621   -1.3424 H   0  0  0  0  0  0  0  0  0  0  0  0
    9.5345    0.5531    1.2241 H   0  0  0  0  0  0  0  0  0  0  0  0
    7.8898    1.8435    2.0589 H   0  0  0  0  0  0  0  0  0  0  0  0
    7.9326    2.5620    0.4371 H   0  0  0  0  0  0  0  0  0  0  0  0
    7.1314   -0.7334    1.4020 H   0  0  0  0  0  0  0  0  0  0  0  0
    4.1909    2.1156   -1.6238 H   0  0  0  0  0  0  0  0  0  0  0  0
   -6.3673    0.4178   -0.1698 H   0  0  0  0  0  0  0  0  0  0  0  0
   -5.6172    2.2682    1.3581 H   0  0  0  0  0  0  0  0  0  0  0  0
   -4.0492    2.3136    0.4535 H   0  0  0  0  0  0  0  0  0  0  0  0
   -6.8136    3.1295   -0.4844 H   0  0  0  0  0  0  0  0  0  0  0  0
   -5.2357    3.9591   -0.7113 H   0  0  0  0  0  0  0  0  0  0  0  0
   -4.9196    2.7808   -2.6943 H   0  0  0  0  0  0  0  0  0  0  0  0
   -6.5307    2.0206   -2.4439 H   0  0  0  0  0  0  0  0  0  0  0  0
   -3.7804    0.9756   -1.7123 H   0  0  0  0  0  0  0  0  0  0  0  0
   -5.2644    0.1298   -2.2763 H   0  0  0  0  0  0  0  0  0  0  0  0
  1  2  1  0
  2  3  1  0
  2  4  1  0
  4  5  2  0
  4  6  1  0
  6  7  2  0
  7  8  1  0
  8  9  2  0
  9 10  1  0
 10 11  2  0
 11 12  1  0
 12 13  1  0
 13 14  2  0
 14 15  1  0
 15 16  2  0
 16 17  1  0
 17 18  1  0
 18 19  1  0
 19 20  1  0
 20 21  1  0
 21 22  1  0
 22 23  1  0
 23 24  1  0
 24 25  2  0
 22 26  1  0
 16 27  1  0
 27 28  2  0
 11 29  1  0
 29 30  2  0
 30 31  1  0
 31 32  1  0
 32 33  1  0
 33 34  1  0
 34 35  1  0
 35 36  1  0
 31  6  1  0
 36 32  1  0
 30  8  1  0
 28 13  1  0
 24 17  1  0
 26 19  1  0
  1 37  1  0
  1 38  1  0
  1 39  1  0
  3 40  1  0
  3 41  1  0
  3 42  1  0
  7 43  1  0
  9 44  1  0
 12 45  1  0
 14 46  1  0
 15 47  1  0
 18 48  1  0
 18 49  1  0
 19 50  1  1
 20 51  1  0
 20 52  1  0
 21 53  1  0
 21 54  1  0
 22 55  1  1
 23 56  1  0
 23 57  1  0
 26 58  1  0
 27 59  1  0
 32 60  1  0
 33 61  1  0
 33 62  1  0
 34 63  1  0
 34 64  1  0
 35 65  1  0
 35 66  1  0
 36 67  1  0
 36 68  1  0
M  END
$$$$
