
     RDKit          3D

 62 64  0  0  0  0  0  0  0  0999 V2000
   -9.3902   -1.9263    0.6605 C   0  0  0  0  0  0  0  0  0  0  0  0
   -8.1942   -1.8240    1.3671 O   0  0  0  0  0  0  0  0  0  0  0  0
   -7.1459   -0.9917    0.9923 C   0  0  0  0  0  0  0  0  0  0  0  0
   -7.1965   -0.1872   -0.1198 C   0  0  0  0  0  0  0  0  0  0  0  0
   -6.1326    0.6322   -0.4665 C   0  0  0  0  0  0  0  0  0  0  0  0
   -4.9929    0.6592    0.3003 C   0  0  0  0  0  0  0  0  0  0  0  0
   -3.8343    1.4932   -0.0004 C   0  0  0  0  0  0  0  0  0  0  0  0
   -2.8090    1.4683    0.7379 O   0  0  0  0  0  0  0  0  0  0  0  0
   -3.8150    2.3451   -1.1085 N   0  0  0  0  0  0  0  0  0  0  0  0
   -2.7305    3.2008   -1.4948 C   0  0  0  0  0  0  0  0  0  0  0  0
   -1.6063    2.5320   -2.1569 C   0  0  0  0  0  0  0  0  0  0  0  0
   -1.5807    2.2904   -3.5261 C   0  0  0  0  0  0  0  0  0  0  0  0
   -0.4875    1.6685   -4.0810 C   0  0  0  0  0  0  0  0  0  0  0  0
    0.5901    1.2772   -3.3034 C   0  0  0  0  0  0  0  0  0  0  0  0
    0.5805    1.5063   -1.9643 C   0  0  0  0  0  0  0  0  0  0  0  0
    1.6899    1.1138   -1.1028 C   0  0  0  0  0  0  0  0  0  0  0  0
    1.6446    1.3652    0.1492 O   0  0  0  0  0  0  0  0  0  0  0  0
    2.8536    0.4549   -1.5509 N   0  0  0  0  0  0  0  0  0  0  0  0
    3.8850    0.1086   -0.6570 C   0  0  0  0  0  0  0  0  0  0  0  0
    4.9140    0.9864   -0.4128 C   0  0  0  0  0  0  0  0  0  0  0  0
    5.9419    0.6468    0.4753 C   0  0  0  0  0  0  0  0  0  0  0  0
    5.9005   -0.5908    1.1019 C   0  0  0  0  0  0  0  0  0  0  0  0
    6.9995   -0.9324    2.0476 C   0  0  0  0  0  0  0  0  0  0  0  0
    8.0984   -1.5424    1.3880 N   0  0  0  0  0  0  0  0  0  0  0  0
    8.6908   -0.7553    0.3586 C   0  0  0  0  0  0  0  0  0  0  0  0
    7.9585   -2.9054    1.0162 C   0  0  0  0  0  0  0  0  0  0  0  0
    4.8653   -1.4897    0.8650 C   0  0  0  0  0  0  0  0  0  0  0  0
    3.8794   -1.0969   -0.0223 C   0  0  0  0  0  0  0  0  0  0  0  0
   -0.5197    2.1306   -1.4160 C   0  0  0  0  0  0  0  0  0  0  0  0
   -4.9229   -0.1438    1.4241 C   0  0  0  0  0  0  0  0  0  0  0  0
   -5.9862   -0.9375    1.7369 C   0  0  0  0  0  0  0  0  0  0  0  0
   -5.9488   -1.7652    2.8709 O   0  0  0  0  0  0  0  0  0  0  0  0
   -4.8080   -1.7846    3.7003 C   0  0  0  0  0  0  0  0  0  0  0  0
   -9.2448   -2.0307   -0.4377 H   0  0  0  0  0  0  0  0  0  0  0  0
   -9.9570   -2.7834    1.0328 H   0  0  0  0  0  0  0  0  0  0  0  0
  -10.0371   -1.0095    0.7859 H   0  0  0  0  0  0  0  0  0  0  0  0
   -8.0846   -0.1911   -0.7407 H   0  0  0  0  0  0  0  0  0  0  0  0
   -6.2295    1.2345   -1.3411 H   0  0  0  0  0  0  0  0  0  0  0  0
   -4.6648    2.3911   -1.7488 H   0  0  0  0  0  0  0  0  0  0  0  0
   -2.3437    3.6819   -0.5488 H   0  0  0  0  0  0  0  0  0  0  0  0
   -3.0562    4.0492   -2.1243 H   0  0  0  0  0  0  0  0  0  0  0  0
   -2.4245    2.5999   -4.1178 H   0  0  0  0  0  0  0  0  0  0  0  0
   -0.5201    1.5049   -5.1521 H   0  0  0  0  0  0  0  0  0  0  0  0
    1.4154    0.7958   -3.7927 H   0  0  0  0  0  0  0  0  0  0  0  0
    2.9310    0.2254   -2.5885 H   0  0  0  0  0  0  0  0  0  0  0  0
    4.9727    1.9659   -0.8908 H   0  0  0  0  0  0  0  0  0  0  0  0
    6.7695    1.2937    0.7035 H   0  0  0  0  0  0  0  0  0  0  0  0
    6.5508   -1.6040    2.8326 H   0  0  0  0  0  0  0  0  0  0  0  0
    7.2651   -0.0067    2.6011 H   0  0  0  0  0  0  0  0  0  0  0  0
    8.9367    0.2736    0.7153 H   0  0  0  0  0  0  0  0  0  0  0  0
    9.6279   -1.2214   -0.0275 H   0  0  0  0  0  0  0  0  0  0  0  0
    7.9806   -0.6306   -0.4895 H   0  0  0  0  0  0  0  0  0  0  0  0
    6.9585   -3.2092    0.6563 H   0  0  0  0  0  0  0  0  0  0  0  0
    8.2261   -3.5745    1.8615 H   0  0  0  0  0  0  0  0  0  0  0  0
    8.6836   -3.1948    0.1994 H   0  0  0  0  0  0  0  0  0  0  0  0
    4.8174   -2.4541    1.3482 H   0  0  0  0  0  0  0  0  0  0  0  0
    3.0644   -1.7795   -0.2221 H   0  0  0  0  0  0  0  0  0  0  0  0
   -0.4746    2.3006   -0.3290 H   0  0  0  0  0  0  0  0  0  0  0  0
   -4.0378   -0.1454    2.0496 H   0  0  0  0  0  0  0  0  0  0  0  0
   -4.9150   -2.7000    4.3447 H   0  0  0  0  0  0  0  0  0  0  0  0
   -4.7306   -0.8911    4.3374 H   0  0  0  0  0  0  0  0  0  0  0  0
   -3.8705   -1.8965    3.0806 H   0  0  0  0  0  0  0  0  0  0  0  0
  1  2  1  0
  2  3  1  0
  3  4  2  0
  4  5  1  0
  5  6  2  0
  6  7  1  0
  7  8  2  0
  7  9  1  0
  9 10  1  0
 10 11  1  0
 11 12  2  0
 12 13  1  0
 13 14  2  0
 14 15  1  0
 15 16  1  0
 16 17  2  0
 16 18  1  0
 18 19  1  0
 19 20  2  0
 20 21  1  0
 21 22  2  0
 22 23  1  0
 23 24  1  0
 24 25  1  0
 24 26  1  0
 22 27  1  0
 27 28  2  0
 15 29  2  0
  6 30  1  0
 30 31  2  0
 31 32  1  0
 32 33  1  0
 31  3  1  0
 29 11  1  0
 28 19  1  0
  1 34  1  0
  1 35  1  0
  1 36  1  0
  4 37  1  0
  5 38  1  0
  9 39  1  0
 10 40  1  0
 10 41  1  0
 12 42  1  0
 13 43  1  0
 14 44  1  0
 18 45  1  0
 20 46  1  0
 21 47  1  0
 23 48  1  0
 23 49  1  0
 25 50  1  0
 25 51  1  0
 25 52  1  0
 26 53  1  0
 26 54  1  0
 26 55  1  0
 27 56  1  0
 28 57  1  0
 29 58  1  0
 30 59  1  0
 33 60  1  0
 33 61  1  0
 33 62  1  0
M  END
$$$$
