@<TRIPOS>MOLECULE
*****
 62 64 0 0 0
SMALL
GASTEIGER

@<TRIPOS>ATOM
      1 C          -9.3902   -1.9263    0.6605 C.3     1  UNL1        0.0790
      2 O          -8.1942   -1.8240    1.3671 O.3     1  UNL1       -0.4915
      3 C          -7.1459   -0.9917    0.9923 C.ar    1  UNL1        0.1615
      4 C          -7.1965   -0.1872   -0.1198 C.ar    1  UNL1       -0.0156
      5 C          -6.1326    0.6322   -0.4665 C.ar    1  UNL1       -0.0459
      6 C          -4.9929    0.6592    0.3003 C.ar    1  UNL1        0.0404
      7 C          -3.8343    1.4932   -0.0004 C.2     1  UNL1        0.2445
      8 O          -2.8090    1.4683    0.7379 O.2     1  UNL1       -0.2702
      9 N          -3.8150    2.3451   -1.1085 N.am    1  UNL1       -0.3072
     10 C          -2.7305    3.2008   -1.4948 C.3     1  UNL1        0.0372
     11 C          -1.6063    2.5320   -2.1569 C.ar    1  UNL1       -0.0296
     12 C          -1.5807    2.2904   -3.5261 C.ar    1  UNL1       -0.0570
     13 C          -0.4875    1.6685   -4.0810 C.ar    1  UNL1       -0.0607
     14 C           0.5901    1.2772   -3.3034 C.ar    1  UNL1       -0.0496
     15 C           0.5805    1.5063   -1.9643 C.ar    1  UNL1        0.0373
     16 C           1.6899    1.1138   -1.1028 C.2     1  UNL1        0.2483
     17 O           1.6446    1.3652    0.1492 O.2     1  UNL1       -0.2699
     18 N           2.8536    0.4549   -1.5509 N.am    1  UNL1       -0.2815
     19 C           3.8850    0.1086   -0.6570 C.ar    1  UNL1        0.0337
     20 C           4.9140    0.9864   -0.4128 C.ar    1  UNL1       -0.0402
     21 C           5.9419    0.6468    0.4753 C.ar    1  UNL1       -0.0556
     22 C           5.9005   -0.5908    1.1019 C.ar    1  UNL1       -0.0333
     23 C           6.9995   -0.9324    2.0476 C.3     1  UNL1        0.0235
     24 N           8.0984   -1.5424    1.3880 N.3     1  UNL1       -0.3042
     25 C           8.6908   -0.7553    0.3586 C.3     1  UNL1       -0.0127
     26 C           7.9585   -2.9054    1.0162 C.3     1  UNL1       -0.0127
     27 C           4.8653   -1.4897    0.8650 C.ar    1  UNL1       -0.0556
     28 C           3.8794   -1.0969   -0.0223 C.ar    1  UNL1       -0.0402
     29 C          -0.5197    2.1306   -1.4160 C.ar    1  UNL1       -0.0449
     30 C          -4.9229   -0.1438    1.4241 C.ar    1  UNL1       -0.0042
     31 C          -5.9862   -0.9375    1.7369 C.ar    1  UNL1        0.1622
     32 O          -5.9488   -1.7652    2.8709 O.3     1  UNL1       -0.4914
     33 C          -4.8080   -1.7846    3.7003 C.3     1  UNL1        0.0790
     34 H          -9.2448   -2.0307   -0.4377 H       1  UNL1        0.0660
     35 H          -9.9570   -2.7834    1.0328 H       1  UNL1        0.0660
     36 H         -10.0371   -1.0095    0.7859 H       1  UNL1        0.0660
     37 H          -8.0846   -0.1911   -0.7407 H       1  UNL1        0.0655
     38 H          -6.2295    1.2345   -1.3411 H       1  UNL1        0.0626
     39 H          -4.6648    2.3911   -1.7488 H       1  UNL1        0.1493
     40 H          -2.3437    3.6819   -0.5488 H       1  UNL1        0.0512
     41 H          -3.0562    4.0492   -2.1243 H       1  UNL1        0.0512
     42 H          -2.4245    2.5999   -4.1178 H       1  UNL1        0.0621
     43 H          -0.5201    1.5049   -5.1521 H       1  UNL1        0.0618
     44 H           1.4154    0.7958   -3.7927 H       1  UNL1        0.0625
     45 H           2.9310    0.2254   -2.5885 H       1  UNL1        0.1551
     46 H           4.9727    1.9659   -0.8908 H       1  UNL1        0.0636
     47 H           6.7695    1.2937    0.7035 H       1  UNL1        0.0621
     48 H           6.5508   -1.6040    2.8326 H       1  UNL1        0.0475
     49 H           7.2651   -0.0067    2.6011 H       1  UNL1        0.0475
     50 H           8.9367    0.2736    0.7153 H       1  UNL1        0.0391
     51 H           9.6279   -1.2214   -0.0275 H       1  UNL1        0.0391
     52 H           7.9806   -0.6306   -0.4895 H       1  UNL1        0.0391
     53 H           6.9585   -3.2092    0.6563 H       1  UNL1        0.0391
     54 H           8.2261   -3.5745    1.8615 H       1  UNL1        0.0391
     55 H           8.6836   -3.1948    0.1994 H       1  UNL1        0.0391
     56 H           4.8174   -2.4541    1.3482 H       1  UNL1        0.0621
     57 H           3.0644   -1.7795   -0.2221 H       1  UNL1        0.0636
     58 H          -0.4746    2.3006   -0.3290 H       1  UNL1        0.0628
     59 H          -4.0378   -0.1454    2.0496 H       1  UNL1        0.0663
     60 H          -4.9150   -2.7000    4.3447 H       1  UNL1        0.0660
     61 H          -4.7306   -0.8911    4.3374 H       1  UNL1        0.0660
     62 H          -3.8705   -1.8965    3.0806 H       1  UNL1        0.0660
@<TRIPOS>BOND
     1     1     2    1
     2     2     3    1
     3     3     4   ar
     4     4     5   ar
     5     5     6   ar
     6     6     7    1
     7     7     8    2
     8     7     9   am
     9     9    10    1
    10    10    11    1
    11    11    12   ar
    12    12    13   ar
    13    13    14   ar
    14    14    15   ar
    15    15    16    1
    16    16    17    2
    17    16    18   am
    18    18    19    1
    19    19    20   ar
    20    20    21   ar
    21    21    22   ar
    22    22    23    1
    23    23    24    1
    24    24    25    1
    25    24    26    1
    26    22    27   ar
    27    27    28   ar
    28    15    29   ar
    29     6    30   ar
    30    30    31   ar
    31    31    32    1
    32    32    33    1
    33    31     3   ar
    34    29    11   ar
    35    28    19   ar
    36     1    34    1
    37     1    35    1
    38     1    36    1
    39     4    37    1
    40     5    38    1
    41     9    39    1
    42    10    40    1
    43    10    41    1
    44    12    42    1
    45    13    43    1
    46    14    44    1
    47    18    45    1
    48    20    46    1
    49    21    47    1
    50    23    48    1
    51    23    49    1
    52    25    50    1
    53    25    51    1
    54    25    52    1
    55    26    53    1
    56    26    54    1
    57    26    55    1
    58    27    56    1
    59    28    57    1
    60    29    58    1
    61    30    59    1
    62    33    60    1
    63    33    61    1
    64    33    62    1
