@<TRIPOS>MOLECULE
*****
 55 57 0 0 0
SMALL
GASTEIGER

@<TRIPOS>ATOM
      1 C           8.4627    1.7133   -2.9843 C.3     1  UNL1        0.0788
      2 O           7.0757    1.9756   -2.7783 O.3     1  UNL1       -0.4951
      3 C           6.3525    1.2846   -1.8288 C.ar    1  UNL1        0.1201
      4 C           5.0012    1.5846   -1.6735 C.ar    1  UNL1       -0.0193
      5 C           4.2383    0.9041   -0.7211 C.ar    1  UNL1       -0.0477
      6 C           4.7969   -0.0654    0.0750 C.ar    1  UNL1        0.0176
      7 C           3.9239   -0.7315    1.0510 C.ar    1  UNL1        0.1411
      8 N           4.3476   -1.6946    1.8867 N.ar    1  UNL1       -0.2083
      9 C           3.3019   -2.0749    2.6309 C.ar    1  UNL1        0.1802
     10 N           3.1085   -2.9778    3.6163 N.ar    1  UNL1       -0.2332
     11 C           1.9056   -3.1406    4.1929 C.ar    1  UNL1        0.0458
     12 C           0.8017   -2.4042    3.8204 C.ar    1  UNL1        0.0589
     13 BR         -0.9008   -2.6775    4.6804 Br      1  UNL1       -0.0467
     14 C           0.9511   -1.4728    2.8211 C.ar    1  UNL1        0.0701
     15 N          -0.1608   -0.7149    2.4296 N.pl3   1  UNL1       -0.3412
     16 C          -1.0343   -1.1854    1.3731 C.3     1  UNL1        0.0106
     17 C          -2.1657   -0.2110    1.1158 C.3     1  UNL1       -0.0218
     18 C          -3.0678   -0.7046    0.0204 C.3     1  UNL1        0.0130
     19 N          -4.1328    0.2455   -0.1996 N.am    1  UNL1       -0.3148
     20 C          -5.1298    0.0075   -1.1948 C.2     1  UNL1        0.2184
     21 O          -5.0269   -1.0639   -1.8592 O.2     1  UNL1       -0.2752
     22 C          -6.1983    0.9965   -1.3907 C.3     1  UNL1        0.0386
     23 C          -5.6211    2.3544   -1.7834 C.3     1  UNL1       -0.0518
     24 C          -7.0715    1.1968   -0.1903 C.3     1  UNL1       -0.0518
     25 C          -7.1039    0.4706   -2.5115 C.3     1  UNL1       -0.0518
     26 C           2.2139   -1.3290    2.2432 C.ar    1  UNL1        0.1077
     27 N           2.6253   -0.5176    1.2767 N.ar    1  UNL1       -0.3351
     28 C           6.1319   -0.3666   -0.0735 C.ar    1  UNL1       -0.0477
     29 C           6.9044    0.3105   -1.0257 C.ar    1  UNL1       -0.0193
     30 H           9.0373    2.0722   -2.1114 H       1  UNL1        0.0660
     31 H           8.6414    0.6064   -3.0655 H       1  UNL1        0.0660
     32 H           8.8369    2.1946   -3.8981 H       1  UNL1        0.0660
     33 H           4.5727    2.3518   -2.3081 H       1  UNL1        0.0654
     34 H           3.1916    1.1398   -0.6042 H       1  UNL1        0.0626
     35 H           1.7448   -3.8741    4.9947 H       1  UNL1        0.0842
     36 H          -0.3941    0.1967    2.8761 H       1  UNL1        0.1462
     37 H          -0.4141   -1.3231    0.4645 H       1  UNL1        0.0462
     38 H          -1.4587   -2.1850    1.6155 H       1  UNL1        0.0462
     39 H          -2.7089    0.0181    2.0480 H       1  UNL1        0.0295
     40 H          -1.7052    0.7459    0.7662 H       1  UNL1        0.0295
     41 H          -2.4490   -0.8223   -0.9007 H       1  UNL1        0.0462
     42 H          -3.4634   -1.7218    0.2387 H       1  UNL1        0.0462
     43 H          -4.1725    1.1128    0.3743 H       1  UNL1        0.1487
     44 H          -6.4603    3.0958   -1.6887 H       1  UNL1        0.0239
     45 H          -4.8081    2.5658   -1.0810 H       1  UNL1        0.0239
     46 H          -5.2713    2.3015   -2.8439 H       1  UNL1        0.0239
     47 H          -6.4647    1.2671    0.7150 H       1  UNL1        0.0239
     48 H          -7.8493    0.3853   -0.1168 H       1  UNL1        0.0239
     49 H          -7.6479    2.1385   -0.3446 H       1  UNL1        0.0239
     50 H          -7.9139    1.1730   -2.7346 H       1  UNL1        0.0239
     51 H          -7.4786   -0.5111   -2.1777 H       1  UNL1        0.0239
     52 H          -6.4518    0.3342   -3.4001 H       1  UNL1        0.0239
     53 H           2.0390    0.1731    0.7739 H       1  UNL1        0.1675
     54 H           6.5676   -1.1234    0.5478 H       1  UNL1        0.0626
     55 H           7.9510    0.0900   -1.1580 H       1  UNL1        0.0654
@<TRIPOS>BOND
     1     1     2    1
     2     2     3    1
     3     3     4   ar
     4     4     5   ar
     5     5     6   ar
     6     6     7    1
     7     7     8   ar
     8     8     9   ar
     9     9    10   ar
    10    10    11   ar
    11    11    12   ar
    12    12    13    1
    13    12    14   ar
    14    14    15    1
    15    15    16    1
    16    16    17    1
    17    17    18    1
    18    18    19    1
    19    19    20   am
    20    20    21    2
    21    20    22    1
    22    22    23    1
    23    22    24    1
    24    22    25    1
    25    14    26   ar
    26    26    27   ar
    27     6    28   ar
    28    28    29   ar
    29    29     3   ar
    30    27     7   ar
    31    26     9   ar
    32     1    30    1
    33     1    31    1
    34     1    32    1
    35     4    33    1
    36     5    34    1
    37    11    35    1
    38    15    36    1
    39    16    37    1
    40    16    38    1
    41    17    39    1
    42    17    40    1
    43    18    41    1
    44    18    42    1
    45    19    43    1
    46    23    44    1
    47    23    45    1
    48    23    46    1
    49    24    47    1
    50    24    48    1
    51    24    49    1
    52    25    50    1
    53    25    51    1
    54    25    52    1
    55    27    53    1
    56    28    54    1
    57    29    55    1
