@<TRIPOS>MOLECULE
*****
 54 58 0 0 0
SMALL
GASTEIGER

@<TRIPOS>ATOM
      1 C          -7.8876   -0.0351   -0.1706 C.3     1  UNL1        0.0833
      2 O          -6.5376   -0.2315   -0.5626 O.3     1  UNL1       -0.4535
      3 C          -5.5912   -0.6485    0.3624 C.2     1  UNL1        0.4033
      4 O          -5.9732   -0.8410    1.5384 O.2     1  UNL1       -0.2262
      5 N          -4.2214   -0.8588    0.0120 N.am    1  UNL1       -0.2557
      6 C          -3.4067   -1.2985    1.1546 C.3     1  UNL1        0.0453
      7 C          -2.5423   -0.0987    1.4590 C.ar    1  UNL1       -0.0047
      8 C          -2.6138    0.3649    2.7412 C.ar    1  UNL1       -0.0367
      9 C          -1.8869    1.5045    3.0864 C.ar    1  UNL1        0.0414
     10 CL         -1.9630    2.1144    4.7254 Cl      1  UNL1       -0.0835
     11 C          -1.1060    2.1570    2.1445 C.ar    1  UNL1       -0.0414
     12 C          -1.0210    1.7027    0.8387 C.ar    1  UNL1       -0.0361
     13 C          -1.7377    0.5907    0.5412 C.ar    1  UNL1        0.0542
     14 N          -1.5306    0.2026   -0.8207 N.ar    1  UNL1       -0.2812
     15 C          -2.4975   -0.3058   -1.6655 C.ar    1  UNL1        0.1555
     16 N          -1.8665   -0.5011   -2.8076 N.ar    1  UNL1       -0.1323
     17 N          -0.6157   -0.1494   -2.6888 N.ar    1  UNL1       -0.1337
     18 C          -0.3472    0.3119   -1.4164 C.ar    1  UNL1        0.1412
     19 C           0.9298    0.7270   -0.8618 C.3     1  UNL1        0.0223
     20 C           1.9562    0.3365   -1.9921 C.3     1  UNL1       -0.0274
     21 C           3.2555    0.9909   -1.6497 C.3     1  UNL1        0.0141
     22 N           3.7370    0.3864   -0.4005 N.pl3   1  UNL1       -0.3151
     23 C           5.0991   -0.0160   -0.3930 C.ar    1  UNL1        0.1212
     24 C           5.6937   -0.5014    0.7457 C.ar    1  UNL1       -0.0217
     25 C           7.0330   -0.8965    0.7337 C.ar    1  UNL1       -0.0571
     26 C           7.7410   -0.7922   -0.4278 C.ar    1  UNL1       -0.0435
     27 C           7.1535   -0.3099   -1.5623 C.ar    1  UNL1        0.0297
     28 N           5.8667    0.0578   -1.5071 N.ar    1  UNL1       -0.2403
     29 C           2.8140    0.2580    0.6745 C.3     1  UNL1        0.0141
     30 C           1.4444   -0.1784    0.2419 C.3     1  UNL1       -0.0274
     31 C          -3.9160   -0.6058   -1.3526 C.3     1  UNL1        0.0784
     32 H          -8.4576    0.3581   -1.0297 H       1  UNL1        0.0661
     33 H          -8.3639   -1.0248    0.0784 H       1  UNL1        0.0661
     34 H          -7.9809    0.6732    0.6629 H       1  UNL1        0.0661
     35 H          -2.8147   -2.1837    0.9276 H       1  UNL1        0.0516
     36 H          -4.0186   -1.4748    2.0380 H       1  UNL1        0.0516
     37 H          -3.2256   -0.1446    3.4776 H       1  UNL1        0.0636
     38 H          -0.5280    3.0527    2.3922 H       1  UNL1        0.0633
     39 H          -0.4844    2.2362    0.1310 H       1  UNL1        0.0639
     40 H           1.2180    1.7599   -0.7919 H       1  UNL1        0.0381
     41 H           1.5442    0.7731   -2.9190 H       1  UNL1        0.0287
     42 H           2.0010   -0.7623   -2.0055 H       1  UNL1        0.0287
     43 H           3.9883    0.9829   -2.4476 H       1  UNL1        0.0464
     44 H           2.9948    2.0490   -1.3442 H       1  UNL1        0.0464
     45 H           5.1607   -0.5944    1.6835 H       1  UNL1        0.0652
     46 H           7.5157   -1.2816    1.6246 H       1  UNL1        0.0619
     47 H           8.7963   -1.0944   -0.4710 H       1  UNL1        0.0633
     48 H           7.7172   -0.2298   -2.4759 H       1  UNL1        0.0830
     49 H           3.1925   -0.5124    1.3766 H       1  UNL1        0.0464
     50 H           2.6845    1.1912    1.2676 H       1  UNL1        0.0464
     51 H           1.5914   -1.1943   -0.2429 H       1  UNL1        0.0287
     52 H           0.8002   -0.3642    1.0769 H       1  UNL1        0.0287
     53 H          -4.4849    0.3073   -1.6912 H       1  UNL1        0.0546
     54 H          -4.3082   -1.4160   -2.0381 H       1  UNL1        0.0546
@<TRIPOS>BOND
     1     1     2    1
     2     2     3    1
     3     3     4    2
     4     3     5   am
     5     5     6    1
     6     6     7    1
     7     7     8   ar
     8     8     9   ar
     9     9    10    1
    10     9    11   ar
    11    11    12   ar
    12    12    13   ar
    13    13    14    1
    14    14    15   ar
    15    15    16   ar
    16    16    17   ar
    17    17    18   ar
    18    18    19    1
    19    19    20    1
    20    20    21    1
    21    21    22    1
    22    22    23    1
    23    23    24   ar
    24    24    25   ar
    25    25    26   ar
    26    26    27   ar
    27    27    28   ar
    28    22    29    1
    29    29    30    1
    30    15    31    1
    31    31     5    1
    32    13     7   ar
    33    18    14   ar
    34    30    19    1
    35    28    23   ar
    36     1    32    1
    37     1    33    1
    38     1    34    1
    39     6    35    1
    40     6    36    1
    41     8    37    1
    42    11    38    1
    43    12    39    1
    44    19    40    1
    45    20    41    1
    46    20    42    1
    47    21    43    1
    48    21    44    1
    49    24    45    1
    50    25    46    1
    51    26    47    1
    52    27    48    1
    53    29    49    1
    54    29    50    1
    55    30    51    1
    56    30    52    1
    57    31    53    1
    58    31    54    1
