@<TRIPOS>MOLECULE
*****
 44 46 0 0 0
SMALL
GASTEIGER

@<TRIPOS>ATOM
      1 C          -5.4539   -1.5057   -0.4802 C.3     1  UNL1       -0.0596
      2 C          -5.7543   -0.1686    0.2138 C.3     1  UNL1       -0.0124
      3 C          -7.2529   -0.2012    0.4870 C.3     1  UNL1       -0.0596
      4 C          -4.9615   -0.1323    1.4754 C.3     1  UNL1        0.0919
      5 O          -3.6122   -0.2279    1.2638 O.3     1  UNL1       -0.4923
      6 C          -2.7043    0.5438    0.6120 C.ar    1  UNL1        0.1135
      7 C          -1.4090    0.0005    0.6551 C.ar    1  UNL1       -0.0545
      8 O          -1.1541   -1.1970    1.3114 O.co2   1  UNL1       -0.8709
      9 C          -0.3212    0.5953    0.0670 C.ar    1  UNL1        0.0130
     10 C          -0.5512    1.7930   -0.5947 C.ar    1  UNL1       -0.0515
     11 C          -1.7866    2.3908   -0.6828 C.ar    1  UNL1       -0.0577
     12 C          -2.8247    1.7329   -0.0677 C.ar    1  UNL1       -0.0205
     13 C           1.0411    0.0849    0.0761 C.ar    1  UNL1        0.1388
     14 N           2.0984    0.6770   -0.5038 N.ar    1  UNL1       -0.2277
     15 C           3.2161   -0.0375   -0.3206 C.ar    1  UNL1        0.0903
     16 C           4.5108    0.1770   -0.7275 C.ar    1  UNL1       -0.0195
     17 C           5.4522   -0.7714   -0.3673 C.ar    1  UNL1        0.0629
     18 C           5.1429   -1.9067    0.3738 C.ar    1  UNL1       -0.0450
     19 C           3.8301   -2.0838    0.7623 C.ar    1  UNL1       -0.0354
     20 C           2.8749   -1.1523    0.4152 C.ar    1  UNL1        0.0665
     21 N           1.5569   -1.0268    0.6251 N.ar    1  UNL1       -0.3379
     22 C           6.8316   -0.5640   -0.7882 C.2     1  UNL1        0.2662
     23 N           7.4829    0.6827   -0.9969 N.pl3   1  UNL1       -0.2497
     24 N           7.5611   -1.6051   -1.0009 N.2     1  UNL1       -0.2884
     25 H          -5.9493   -2.2762    0.1552 H       1  UNL1        0.0233
     26 H          -4.3848   -1.6567   -0.6356 H       1  UNL1        0.0233
     27 H          -6.0374   -1.4538   -1.4386 H       1  UNL1        0.0233
     28 H          -5.5357    0.6833   -0.4209 H       1  UNL1        0.0328
     29 H          -7.5810    0.8226    0.7758 H       1  UNL1        0.0233
     30 H          -7.7801   -0.4314   -0.4654 H       1  UNL1        0.0233
     31 H          -7.5431   -0.9468    1.2298 H       1  UNL1        0.0233
     32 H          -5.2210    0.7889    2.0580 H       1  UNL1        0.0699
     33 H          -5.2958   -0.9626    2.1690 H       1  UNL1        0.0699
     34 H           0.2669    2.3267   -1.0885 H       1  UNL1        0.0624
     35 H          -1.9586    3.3162   -1.1953 H       1  UNL1        0.0619
     36 H          -3.7906    2.1593   -0.0988 H       1  UNL1        0.0654
     37 H           4.7889    1.0382   -1.2990 H       1  UNL1        0.0648
     38 H           5.8980   -2.6343    0.6429 H       1  UNL1        0.0627
     39 H           3.5496   -2.9501    1.3374 H       1  UNL1        0.0639
     40 H           1.0523   -1.7414    1.1584 H       1  UNL1        0.1674
     41 H           7.7785    1.5973   -0.5915 H       1  UNL1        0.2883
     42 H           7.9431    1.0754   -1.8448 H       1  UNL1        0.2883
     43 H           7.4449   -2.6224   -0.9568 H       1  UNL1        0.3009
     44 H           8.5420   -1.6213   -1.2988 H       1  UNL1        0.3009
@<TRIPOS>UNITY_ATOM_ATTR
8 1
charge -1
24 1
charge 1
@<TRIPOS>BOND
     1     1     2    1
     2     2     3    1
     3     2     4    1
     4     4     5    1
     5     5     6    1
     6     6     7   ar
     7     7     8    1
     8     7     9   ar
     9     9    10   ar
    10    10    11   ar
    11    11    12   ar
    12     9    13    1
    13    13    14   ar
    14    14    15   ar
    15    15    16   ar
    16    16    17   ar
    17    17    18   ar
    18    18    19   ar
    19    19    20   ar
    20    20    21   ar
    21    17    22    1
    22    22    23    1
    23    22    24    2
    24    12     6   ar
    25    21    13   ar
    26    20    15   ar
    27     1    25    1
    28     1    26    1
    29     1    27    1
    30     2    28    1
    31     3    29    1
    32     3    30    1
    33     3    31    1
    34     4    32    1
    35     4    33    1
    36    10    34    1
    37    11    35    1
    38    12    36    1
    39    16    37    1
    40    18    38    1
    41    19    39    1
    42    21    40    1
    43    23    41    1
    44    23    42    1
    45    24    43    1
    46    24    44    1
