@<TRIPOS>MOLECULE
*****
 57 61 0 0 0
SMALL
GASTEIGER

@<TRIPOS>ATOM
      1 N           2.1314   -2.9347   -0.7117 N.pl3   1  UNL1       -0.3425
      2 C           0.7648   -3.0151   -0.4117 C.ar    1  UNL1        0.1308
      3 N           0.2469   -4.2442   -0.2467 N.ar    1  UNL1       -0.2204
      4 C          -1.0442   -4.4081    0.0556 C.ar    1  UNL1        0.1204
      5 N          -1.7998   -3.3206    0.1882 N.ar    1  UNL1       -0.2161
      6 C          -1.3106   -2.0873    0.0296 C.ar    1  UNL1        0.1641
      7 C           0.0149   -1.8962   -0.2822 C.ar    1  UNL1        0.0859
      8 C           0.3066   -0.5587   -0.3942 C.ar    1  UNL1        0.1053
      9 N          -0.8709    0.0845   -0.1427 N.ar    1  UNL1       -0.1683
     10 N          -1.8074   -0.8164    0.1030 N.ar    1  UNL1       -0.2411
     11 C          -3.1600   -0.4593    0.4035 C.3     1  UNL1        0.0707
     12 C          -3.8360   -1.6489    1.0514 C.3     1  UNL1       -0.0275
     13 C          -5.1972   -1.1721    1.5135 C.3     1  UNL1       -0.0352
     14 C          -5.9733   -0.7735    0.2627 C.3     1  UNL1        0.0151
     15 N          -5.2726    0.3611   -0.2980 N.am    1  UNL1       -0.2960
     16 C          -3.9826   -0.0817   -0.8128 C.3     1  UNL1        0.0374
     17 C          -5.6837    1.7405   -0.3870 C.2     1  UNL1        0.2389
     18 O          -5.1260    2.7643   -0.8579 O.2     1  UNL1       -0.2706
     19 C          -6.9890    2.0638    0.1597 C.2     1  UNL1       -0.0067
     20 C          -7.2189    3.3467    0.0055 C.2     1  UNL1       -0.0938
     21 C           1.5475    0.1320   -0.6943 C.ar    1  UNL1        0.0031
     22 C           2.4706   -0.0363   -1.7015 C.ar    1  UNL1       -0.0490
     23 C           3.5922    0.7338   -1.7675 C.ar    1  UNL1       -0.0187
     24 C           3.8864    1.7119   -0.8639 C.ar    1  UNL1        0.1285
     25 O           5.0654    2.4244   -1.0483 O.3     1  UNL1       -0.4560
     26 C           6.2290    1.9732   -0.4637 C.ar    1  UNL1        0.1284
     27 C           7.4261    2.6436   -0.6167 C.ar    1  UNL1       -0.0193
     28 C           8.5634    2.1632   -0.0191 C.ar    1  UNL1       -0.0583
     29 C           8.5362    1.0071    0.7429 C.ar    1  UNL1       -0.0615
     30 C           7.3734    0.3084    0.9231 C.ar    1  UNL1       -0.0583
     31 C           6.2434    0.8161    0.3092 C.ar    1  UNL1       -0.0193
     32 C           2.9858    1.9138    0.1624 C.ar    1  UNL1       -0.0187
     33 C           1.8443    1.1366    0.2378 C.ar    1  UNL1       -0.0490
     34 H           3.1259   -2.8765   -0.9297 H       1  UNL1        0.1437
     35 H           2.9734   -3.4663   -0.3529 H       1  UNL1        0.1437
     36 H          -1.5350   -5.3667    0.2041 H       1  UNL1        0.1048
     37 H          -3.2231    0.4345    1.0835 H       1  UNL1        0.0561
     38 H          -3.9975   -2.3833    0.2096 H       1  UNL1        0.0287
     39 H          -3.2431   -2.1029    1.8648 H       1  UNL1        0.0287
     40 H          -5.6872   -1.9978    2.0681 H       1  UNL1        0.0281
     41 H          -5.0038   -0.2864    2.1498 H       1  UNL1        0.0281
     42 H          -6.9861   -0.4701    0.5951 H       1  UNL1        0.0465
     43 H          -5.9741   -1.6298   -0.4152 H       1  UNL1        0.0465
     44 H          -4.1314   -0.9299   -1.4999 H       1  UNL1        0.0485
     45 H          -3.5436    0.7629   -1.3696 H       1  UNL1        0.0485
     46 H          -7.9139    1.7855    0.6507 H       1  UNL1        0.0663
     47 H          -7.8609    4.1996    0.1326 H       1  UNL1        0.0536
     48 H          -6.6681    4.1708   -0.4213 H       1  UNL1        0.0536
     49 H           2.2053   -0.8030   -2.4033 H       1  UNL1        0.0625
     50 H           4.2273    0.4833   -2.6196 H       1  UNL1        0.0654
     51 H           7.4283    3.5443   -1.2150 H       1  UNL1        0.0654
     52 H           9.4950    2.6937   -0.1440 H       1  UNL1        0.0619
     53 H           9.4116    0.5877    1.2360 H       1  UNL1        0.0618
     54 H           7.2298   -0.6040    1.4947 H       1  UNL1        0.0619
     55 H           5.2895    0.3097    0.4125 H       1  UNL1        0.0654
     56 H           3.2159    2.6857    0.8766 H       1  UNL1        0.0654
     57 H           1.2096    1.3868    1.0891 H       1  UNL1        0.0625
@<TRIPOS>BOND
     1     1     2    1
     2     2     3   ar
     3     3     4   ar
     4     4     5   ar
     5     5     6   ar
     6     6     7   ar
     7     7     8   ar
     8     8     9   ar
     9     9    10   ar
    10    10    11    1
    11    11    12    1
    12    12    13    1
    13    13    14    1
    14    14    15    1
    15    15    16    1
    16    15    17   am
    17    17    18    2
    18    17    19    1
    19    19    20    2
    20     8    21    1
    21    21    22   ar
    22    22    23   ar
    23    23    24   ar
    24    24    25    1
    25    25    26    1
    26    26    27   ar
    27    27    28   ar
    28    28    29   ar
    29    29    30   ar
    30    30    31   ar
    31    24    32   ar
    32    32    33   ar
    33     7     2   ar
    34    16    11    1
    35    33    21   ar
    36    10     6   ar
    37    31    26   ar
    38     1    34    1
    39     1    35    1
    40     4    36    1
    41    11    37    1
    42    12    38    1
    43    12    39    1
    44    13    40    1
    45    13    41    1
    46    14    42    1
    47    14    43    1
    48    16    44    1
    49    16    45    1
    50    19    46    1
    51    20    47    1
    52    20    48    1
    53    22    49    1
    54    23    50    1
    55    27    51    1
    56    28    52    1
    57    29    53    1
    58    30    54    1
    59    31    55    1
    60    32    56    1
    61    33    57    1
