@<TRIPOS>MOLECULE
*****
 54 54 0 0 0
SMALL
GASTEIGER

@<TRIPOS>ATOM
      1 C           3.9409    4.2424   -0.9830 C.3     1  UNL1       -0.0653
      2 C           2.5540    3.7386   -0.6431 C.3     1  UNL1       -0.0558
      3 C           1.9464    3.0223   -1.8260 C.3     1  UNL1       -0.0513
      4 C           0.5773    2.4992   -1.5568 C.3     1  UNL1       -0.0293
      5 C           0.5340    1.5069   -0.4167 C.3     1  UNL1        0.0631
      6 C          -0.9103    1.0977   -0.2988 C.2     1  UNL1        0.0435
      7 N          -1.5506    1.0674    0.7954 N.2     1  UNL1       -0.1895
      8 N          -2.8872    0.6671    0.7544 N.am    1  UNL1       -0.1909
      9 C          -3.2823   -0.6052    0.2849 C.2     1  UNL1        0.3218
     10 O          -2.3994   -1.4047   -0.1099 O.2     1  UNL1       -0.2508
     11 N          -4.6410   -1.0212    0.2392 N.am    1  UNL1       -0.2799
     12 C          -5.0255   -2.3098   -0.2456 C.3     1  UNL1        0.0397
     13 C          -6.1128   -2.9637    0.5445 C.3     1  UNL1        0.0635
     14 O          -6.4387   -2.1819    1.6301 O.3     1  UNL1       -0.3767
     15 C          -6.8685   -0.9469    1.1089 C.3     1  UNL1        0.0635
     16 C          -5.6719   -0.1065    0.6976 C.3     1  UNL1        0.0397
     17 N           1.2520    0.2887   -0.7287 N.am    1  UNL1       -0.2734
     18 C           2.2888   -0.2076    0.0919 C.2     1  UNL1        0.4013
     19 O           2.6071    0.4177    1.1263 O.2     1  UNL1       -0.2265
     20 O           2.9266   -1.3645   -0.2607 O.3     1  UNL1       -0.4447
     21 C           3.9563   -1.8977    0.5128 C.3     1  UNL1        0.1068
     22 C           5.1406   -0.9628    0.6626 C.3     1  UNL1       -0.0253
     23 C           3.4137   -2.3440    1.8386 C.3     1  UNL1       -0.0253
     24 C           4.4606   -3.1536   -0.2110 C.3     1  UNL1       -0.0253
     25 H           3.8889    5.2940   -1.3864 H       1  UNL1        0.0230
     26 H           4.4659    3.5818   -1.6940 H       1  UNL1        0.0230
     27 H           4.5756    4.3026   -0.0775 H       1  UNL1        0.0230
     28 H           1.9542    4.5726   -0.2851 H       1  UNL1        0.0263
     29 H           2.6821    2.9933    0.1685 H       1  UNL1        0.0263
     30 H           1.8911    3.7630   -2.6503 H       1  UNL1        0.0266
     31 H           2.6249    2.2255   -2.1715 H       1  UNL1        0.0266
     32 H          -0.1226    3.3439   -1.3980 H       1  UNL1        0.0287
     33 H           0.2120    1.9751   -2.4666 H       1  UNL1        0.0287
     34 H           0.9338    1.9155    0.5108 H       1  UNL1        0.0559
     35 H          -1.3628    0.8240   -1.2653 H       1  UNL1        0.0817
     36 H          -3.6169    1.3285    1.0792 H       1  UNL1        0.1788
     37 H          -5.3943   -2.2541   -1.3138 H       1  UNL1        0.0488
     38 H          -4.1764   -3.0282   -0.2846 H       1  UNL1        0.0488
     39 H          -7.0579   -3.0946   -0.0572 H       1  UNL1        0.0575
     40 H          -5.8380   -3.9920    0.8910 H       1  UNL1        0.0575
     41 H          -7.4465   -0.4549    1.9163 H       1  UNL1        0.0575
     42 H          -7.4483   -1.1602    0.2068 H       1  UNL1        0.0575
     43 H          -5.3657    0.4735    1.5989 H       1  UNL1        0.0488
     44 H          -5.9193    0.5957   -0.1064 H       1  UNL1        0.0488
     45 H           0.9790   -0.2407   -1.6087 H       1  UNL1        0.1526
     46 H           5.9601   -1.2574   -0.0358 H       1  UNL1        0.0268
     47 H           5.5358   -1.0699    1.7010 H       1  UNL1        0.0268
     48 H           4.8187    0.0687    0.4593 H       1  UNL1        0.0268
     49 H           2.8141   -3.2735    1.6595 H       1  UNL1        0.0268
     50 H           2.7049   -1.6134    2.2785 H       1  UNL1        0.0268
     51 H           4.2677   -2.5619    2.5185 H       1  UNL1        0.0268
     52 H           4.3928   -2.9317   -1.2999 H       1  UNL1        0.0268
     53 H           3.7536   -3.9785   -0.0042 H       1  UNL1        0.0268
     54 H           5.4832   -3.4243    0.1100 H       1  UNL1        0.0268
@<TRIPOS>BOND
     1     1     2    1
     2     2     3    1
     3     3     4    1
     4     4     5    1
     5     5     6    1
     6     6     7    2
     7     7     8    1
     8     8     9   am
     9     9    10    2
    10     9    11   am
    11    11    12    1
    12    12    13    1
    13    13    14    1
    14    14    15    1
    15    15    16    1
    16     5    17    1
    17    17    18   am
    18    18    19    2
    19    18    20    1
    20    20    21    1
    21    21    22    1
    22    21    23    1
    23    21    24    1
    24    16    11    1
    25     1    25    1
    26     1    26    1
    27     1    27    1
    28     2    28    1
    29     2    29    1
    30     3    30    1
    31     3    31    1
    32     4    32    1
    33     4    33    1
    34     5    34    1
    35     6    35    1
    36     8    36    1
    37    12    37    1
    38    12    38    1
    39    13    39    1
    40    13    40    1
    41    15    41    1
    42    15    42    1
    43    16    43    1
    44    16    44    1
    45    17    45    1
    46    22    46    1
    47    22    47    1
    48    22    48    1
    49    23    49    1
    50    23    50    1
    51    23    51    1
    52    24    52    1
    53    24    53    1
    54    24    54    1
