@<TRIPOS>MOLECULE
*****
 39 41 0 0 0
SMALL
GASTEIGER

@<TRIPOS>ATOM
      1 C           6.2585    1.1495   -0.8688 C.3     1  UNL1        0.0004
      2 N           4.8052    1.1248   -0.9659 N.am    1  UNL1       -0.3144
      3 C           4.0259    0.3725   -0.0804 C.2     1  UNL1        0.2440
      4 O           4.6068   -0.2912    0.8131 O.2     1  UNL1       -0.2702
      5 C           2.5753    0.3156   -0.1365 C.ar    1  UNL1        0.0402
      6 C           1.8730    1.0081   -1.0774 C.ar    1  UNL1       -0.0488
      7 C           0.4955    0.9149   -1.0810 C.ar    1  UNL1       -0.0498
      8 C          -0.2125    0.1515   -0.1749 C.ar    1  UNL1        0.0245
      9 C          -1.6701    0.0907   -0.2266 C.ar    1  UNL1       -0.0032
     10 C          -2.4354    0.9898    0.4801 C.ar    1  UNL1       -0.0415
     11 C          -3.8075    0.9159    0.4183 C.ar    1  UNL1        0.0574
     12 C          -4.6118    1.8872    1.1817 C.3     1  UNL1        0.4175
     13 F          -4.4424    3.1326    0.6174 F       1  UNL1       -0.1659
     14 F          -4.0525    1.9538    2.4626 F       1  UNL1       -0.1659
     15 F          -5.9345    1.5177    1.2692 F       1  UNL1       -0.1659
     16 C          -4.3848   -0.0741   -0.3636 C.ar    1  UNL1       -0.0246
     17 C          -3.6067   -0.9760   -1.0724 C.ar    1  UNL1        0.0668
     18 N          -3.8798   -2.0137   -1.8911 N.ar    1  UNL1       -0.2769
     19 N          -2.7434   -2.5450   -2.3068 N.ar    1  UNL1       -0.1812
     20 C          -1.6899   -1.9144   -1.8070 C.ar    1  UNL1        0.0575
     21 C          -2.2331   -0.9012   -1.0099 C.ar    1  UNL1        0.0273
     22 C           0.4946   -0.5509    0.7790 C.ar    1  UNL1        0.1285
     23 O          -0.1612   -1.3493    1.7342 O.3     1  UNL1       -0.4945
     24 C           0.5175   -2.0723    2.7115 C.3     1  UNL1        0.0788
     25 C           1.8669   -0.4542    0.7776 C.ar    1  UNL1       -0.0072
     26 H           6.6256    2.0798   -0.4069 H       1  UNL1        0.0426
     27 H           6.6059    0.3090   -0.2364 H       1  UNL1        0.0426
     28 H           6.6887    1.0761   -1.8836 H       1  UNL1        0.0426
     29 H           4.3923    1.6998   -1.7320 H       1  UNL1        0.1487
     30 H           2.3864    1.6293   -1.8203 H       1  UNL1        0.0625
     31 H          -0.0021    1.4965   -1.8630 H       1  UNL1        0.0625
     32 H          -1.9906    1.7585    1.0871 H       1  UNL1        0.0629
     33 H          -5.4538   -0.1538   -0.4292 H       1  UNL1        0.0644
     34 H          -4.8710   -2.2896   -2.1111 H       1  UNL1        0.1889
     35 H          -0.6354   -2.0569   -1.9166 H       1  UNL1        0.0854
     36 H           0.8794   -1.4326    3.5446 H       1  UNL1        0.0660
     37 H           1.4299   -2.6045    2.3206 H       1  UNL1        0.0660
     38 H          -0.1410   -2.8816    3.1100 H       1  UNL1        0.0660
     39 H           2.4322   -1.0122    1.5360 H       1  UNL1        0.0662
@<TRIPOS>BOND
     1     1     2    1
     2     2     3   am
     3     3     4    2
     4     3     5    1
     5     5     6   ar
     6     6     7   ar
     7     7     8   ar
     8     8     9    1
     9     9    10   ar
    10    10    11   ar
    11    11    12    1
    12    12    13    1
    13    12    14    1
    14    12    15    1
    15    11    16   ar
    16    16    17   ar
    17    17    18   ar
    18    18    19   ar
    19    19    20   ar
    20    20    21   ar
    21     8    22   ar
    22    22    23    1
    23    23    24    1
    24    22    25   ar
    25    25     5   ar
    26    21     9   ar
    27    21    17   ar
    28     1    26    1
    29     1    27    1
    30     1    28    1
    31     2    29    1
    32     6    30    1
    33     7    31    1
    34    10    32    1
    35    16    33    1
    36    18    34    1
    37    20    35    1
    38    24    36    1
    39    24    37    1
    40    24    38    1
    41    25    39    1
