
     RDKit          3D

 39 41  0  0  0  0  0  0  0  0999 V2000
    6.2585    1.1495   -0.8688 C   0  0  0  0  0  0  0  0  0  0  0  0
    4.8052    1.1248   -0.9659 N   0  0  0  0  0  0  0  0  0  0  0  0
    4.0259    0.3725   -0.0804 C   0  0  0  0  0  0  0  0  0  0  0  0
    4.6068   -0.2912    0.8131 O   0  0  0  0  0  0  0  0  0  0  0  0
    2.5753    0.3156   -0.1365 C   0  0  0  0  0  0  0  0  0  0  0  0
    1.8730    1.0081   -1.0774 C   0  0  0  0  0  0  0  0  0  0  0  0
    0.4955    0.9149   -1.0810 C   0  0  0  0  0  0  0  0  0  0  0  0
   -0.2125    0.1515   -0.1749 C   0  0  0  0  0  0  0  0  0  0  0  0
   -1.6701    0.0907   -0.2266 C   0  0  0  0  0  0  0  0  0  0  0  0
   -2.4354    0.9898    0.4801 C   0  0  0  0  0  0  0  0  0  0  0  0
   -3.8075    0.9159    0.4183 C   0  0  0  0  0  0  0  0  0  0  0  0
   -4.6118    1.8872    1.1817 C   0  0  0  0  0  0  0  0  0  0  0  0
   -4.4424    3.1326    0.6174 F   0  0  0  0  0  0  0  0  0  0  0  0
   -4.0525    1.9538    2.4626 F   0  0  0  0  0  0  0  0  0  0  0  0
   -5.9345    1.5177    1.2692 F   0  0  0  0  0  0  0  0  0  0  0  0
   -4.3848   -0.0741   -0.3636 C   0  0  0  0  0  0  0  0  0  0  0  0
   -3.6067   -0.9760   -1.0724 C   0  0  0  0  0  0  0  0  0  0  0  0
   -3.8798   -2.0137   -1.8911 N   0  0  0  0  0  0  0  0  0  0  0  0
   -2.7434   -2.5450   -2.3068 N   0  0  0  0  0  0  0  0  0  0  0  0
   -1.6899   -1.9144   -1.8070 C   0  0  0  0  0  0  0  0  0  0  0  0
   -2.2331   -0.9012   -1.0099 C   0  0  0  0  0  0  0  0  0  0  0  0
    0.4946   -0.5509    0.7790 C   0  0  0  0  0  0  0  0  0  0  0  0
   -0.1612   -1.3493    1.7342 O   0  0  0  0  0  0  0  0  0  0  0  0
    0.5175   -2.0723    2.7115 C   0  0  0  0  0  0  0  0  0  0  0  0
    1.8669   -0.4542    0.7776 C   0  0  0  0  0  0  0  0  0  0  0  0
    6.6256    2.0798   -0.4069 H   0  0  0  0  0  0  0  0  0  0  0  0
    6.6059    0.3090   -0.2364 H   0  0  0  0  0  0  0  0  0  0  0  0
    6.6887    1.0761   -1.8836 H   0  0  0  0  0  0  0  0  0  0  0  0
    4.3923    1.6998   -1.7320 H   0  0  0  0  0  0  0  0  0  0  0  0
    2.3864    1.6293   -1.8203 H   0  0  0  0  0  0  0  0  0  0  0  0
   -0.0021    1.4965   -1.8630 H   0  0  0  0  0  0  0  0  0  0  0  0
   -1.9906    1.7585    1.0871 H   0  0  0  0  0  0  0  0  0  0  0  0
   -5.4538   -0.1538   -0.4292 H   0  0  0  0  0  0  0  0  0  0  0  0
   -4.8710   -2.2896   -2.1111 H   0  0  0  0  0  0  0  0  0  0  0  0
   -0.6354   -2.0569   -1.9166 H   0  0  0  0  0  0  0  0  0  0  0  0
    0.8794   -1.4326    3.5446 H   0  0  0  0  0  0  0  0  0  0  0  0
    1.4299   -2.6045    2.3206 H   0  0  0  0  0  0  0  0  0  0  0  0
   -0.1410   -2.8816    3.1100 H   0  0  0  0  0  0  0  0  0  0  0  0
    2.4322   -1.0122    1.5360 H   0  0  0  0  0  0  0  0  0  0  0  0
  1  2  1  0
  2  3  1  0
  3  4  2  0
  3  5  1  0
  5  6  2  0
  6  7  1  0
  7  8  2  0
  8  9  1  0
  9 10  2  0
 10 11  1  0
 11 12  1  0
 12 13  1  0
 12 14  1  0
 12 15  1  0
 11 16  2  0
 16 17  1  0
 17 18  1  0
 18 19  1  0
 19 20  2  0
 20 21  1  0
  8 22  1  0
 22 23  1  0
 23 24  1  0
 22 25  2  0
 25  5  1  0
 21  9  1  0
 21 17  2  0
  1 26  1  0
  1 27  1  0
  1 28  1  0
  2 29  1  0
  6 30  1  0
  7 31  1  0
 10 32  1  0
 16 33  1  0
 18 34  1  0
 20 35  1  0
 24 36  1  0
 24 37  1  0
 24 38  1  0
 25 39  1  0
M  END
$$$$
