@<TRIPOS>MOLECULE
*****
 63 66 0 0 0
SMALL
GASTEIGER

@<TRIPOS>ATOM
      1 C           0.5033   -3.7613   -1.7719 C.3     1  UNL1       -0.0421
      2 C           0.4644   -2.8874   -0.5668 C.3     1  UNL1        0.0515
      3 C           1.6595   -2.0170   -0.4014 C.ar    1  UNL1       -0.0271
      4 C           1.7366   -0.7372   -0.8666 C.ar    1  UNL1       -0.0562
      5 C           2.8865    0.0434   -0.6960 C.ar    1  UNL1       -0.0537
      6 C           3.9842   -0.4620   -0.0473 C.ar    1  UNL1       -0.0165
      7 C           5.2050    0.3581    0.1372 C.ar    1  UNL1       -0.0015
      8 C           6.4439   -0.2463    0.1740 C.ar    1  UNL1       -0.0475
      9 C           7.5629    0.5661    0.3493 C.ar    1  UNL1        0.0036
     10 C           7.4484    1.9341    0.4832 C.ar    1  UNL1        0.2511
     11 O           8.4962    2.6392    0.6415 O.2     1  UNL1       -0.2677
     12 N           6.2270    2.4991    0.4436 N.ar    1  UNL1       -0.3177
     13 C           6.1543    3.9404    0.5884 C.3     1  UNL1        0.0147
     14 C           5.1369    1.7215    0.2743 C.ar    1  UNL1        0.0153
     15 C           3.9174   -1.7490    0.4252 C.ar    1  UNL1       -0.0537
     16 C           2.7902   -2.5163    0.2586 C.ar    1  UNL1       -0.0562
     17 N          -0.7981   -2.2021   -0.3602 N.am    1  UNL1       -0.2605
     18 C          -1.5967   -2.3782    0.8334 C.3     1  UNL1        0.0224
     19 C          -2.9785   -1.8572    0.5942 C.3     1  UNL1        0.0075
     20 C          -3.0094   -0.3989    0.1149 C.3     1  UNL1        0.1418
     21 C          -2.7364    0.4385    1.3153 C.3     1  UNL1       -0.0002
     22 C          -2.7446    1.9081    1.1615 C.3     1  UNL1        0.0277
     23 C          -4.0454    2.5302    0.8474 C.2     1  UNL1        0.2106
     24 N          -4.0857    3.7598    0.1159 N.am    1  UNL1       -0.3293
     25 O          -5.1610    2.0208    1.2066 O.2     1  UNL1       -0.2760
     26 C          -4.2718   -0.1066   -0.5827 C.ar    1  UNL1       -0.0041
     27 C          -4.3362    0.9125   -1.5430 C.ar    1  UNL1       -0.0548
     28 C          -5.5116    1.1934   -2.2053 C.ar    1  UNL1       -0.0614
     29 C          -6.6661    0.4886   -1.9530 C.ar    1  UNL1       -0.0617
     30 C          -6.6140   -0.5140   -1.0122 C.ar    1  UNL1       -0.0614
     31 C          -5.4397   -0.7967   -0.3486 C.ar    1  UNL1       -0.0548
     32 O          -1.9666   -0.1822   -0.8681 O.3     1  UNL1       -0.4388
     33 C          -1.2936   -1.3002   -1.3371 C.2     1  UNL1        0.4042
     34 O          -1.1042   -1.5499   -2.5692 O.2     1  UNL1       -0.2262
     35 H           0.9389   -3.2785   -2.6702 H       1  UNL1        0.0251
     36 H           1.1736   -4.6372   -1.5479 H       1  UNL1        0.0251
     37 H          -0.5267   -4.1277   -1.9619 H       1  UNL1        0.0251
     38 H           0.5404   -3.5862    0.3467 H       1  UNL1        0.0549
     39 H           0.9004   -0.2615   -1.3915 H       1  UNL1        0.0621
     40 H           2.9129    1.0432   -1.0734 H       1  UNL1        0.0624
     41 H           6.5371   -1.3142    0.0699 H       1  UNL1        0.0626
     42 H           8.5515    0.1331    0.3838 H       1  UNL1        0.0672
     43 H           6.5501    4.3609   -0.3794 H       1  UNL1        0.0457
     44 H           5.0945    4.2810    0.6282 H       1  UNL1        0.0457
     45 H           6.6991    4.3301    1.4475 H       1  UNL1        0.0457
     46 H           4.1762    2.1991    0.2467 H       1  UNL1        0.0816
     47 H           4.8029   -2.1482    0.9453 H       1  UNL1        0.0624
     48 H           2.7597   -3.5360    0.6421 H       1  UNL1        0.0621
     49 H          -1.6942   -3.4590    1.0990 H       1  UNL1        0.0467
     50 H          -1.1242   -1.8050    1.6605 H       1  UNL1        0.0467
     51 H          -3.6386   -1.9409    1.4649 H       1  UNL1        0.0322
     52 H          -3.4054   -2.4683   -0.2553 H       1  UNL1        0.0322
     53 H          -1.7846    0.0847    1.7898 H       1  UNL1        0.0312
     54 H          -3.5184    0.1868    2.0812 H       1  UNL1        0.0312
     55 H          -2.4298    2.3752    2.1446 H       1  UNL1        0.0360
     56 H          -1.9776    2.2793    0.4294 H       1  UNL1        0.0360
     57 H          -4.3488    3.7356   -0.8891 H       1  UNL1        0.1449
     58 H          -3.8571    4.6795    0.5685 H       1  UNL1        0.1449
     59 H          -3.4540    1.5105   -1.7929 H       1  UNL1        0.0622
     60 H          -5.5592    1.9953   -2.9598 H       1  UNL1        0.0618
     61 H          -7.5798    0.7368   -2.4952 H       1  UNL1        0.0618
     62 H          -7.5346   -1.0553   -0.8302 H       1  UNL1        0.0618
     63 H          -5.4616   -1.6045    0.3873 H       1  UNL1        0.0622
@<TRIPOS>BOND
     1     1     2    1
     2     2     3    1
     3     3     4   ar
     4     4     5   ar
     5     5     6   ar
     6     6     7    1
     7     7     8   ar
     8     8     9   ar
     9     9    10   ar
    10    10    11    2
    11    10    12   ar
    12    12    13    1
    13    12    14   ar
    14     6    15   ar
    15    15    16   ar
    16     2    17    1
    17    17    18    1
    18    18    19    1
    19    19    20    1
    20    20    21    1
    21    21    22    1
    22    22    23    1
    23    23    24   am
    24    23    25    2
    25    20    26    1
    26    26    27   ar
    27    27    28   ar
    28    28    29   ar
    29    29    30   ar
    30    30    31   ar
    31    20    32    1
    32    32    33    1
    33    33    34    2
    34    16     3   ar
    35    33    17   am
    36    14     7   ar
    37    31    26   ar
    38     1    35    1
    39     1    36    1
    40     1    37    1
    41     2    38    1
    42     4    39    1
    43     5    40    1
    44     8    41    1
    45     9    42    1
    46    13    43    1
    47    13    44    1
    48    13    45    1
    49    14    46    1
    50    15    47    1
    51    16    48    1
    52    18    49    1
    53    18    50    1
    54    19    51    1
    55    19    52    1
    56    21    53    1
    57    21    54    1
    58    22    55    1
    59    22    56    1
    60    24    57    1
    61    24    58    1
    62    27    59    1
    63    28    60    1
    64    29    61    1
    65    30    62    1
    66    31    63    1
