@<TRIPOS>MOLECULE
*****
 73 75 0 0 0
SMALL
GASTEIGER

@<TRIPOS>ATOM
      1 C          -8.4849   -1.5531   -3.4593 C.3     1  UNL1        0.0790
      2 O          -7.9807   -2.0385   -2.2393 O.3     1  UNL1       -0.4915
      3 C          -7.1279   -1.2517   -1.4953 C.ar    1  UNL1        0.1615
      4 C          -6.7482    0.0038   -1.9098 C.ar    1  UNL1       -0.0160
      5 C          -5.8895    0.7847   -1.1494 C.ar    1  UNL1       -0.0534
      6 C          -5.4236    0.2853    0.0236 C.ar    1  UNL1       -0.0266
      7 C          -4.5194    1.0275    0.8830 C.3     1  UNL1        0.0371
      8 N          -3.1060    0.7801    0.6834 N.am    1  UNL1       -0.3083
      9 C          -2.3991    1.3801   -0.3551 C.2     1  UNL1        0.2506
     10 O          -3.0259    2.1662   -1.1314 O.2     1  UNL1       -0.2720
     11 C          -0.9867    1.1777   -0.6236 C.3     1  UNL1        0.1551
     12 C          -0.2027    2.4768   -0.3334 C.3     1  UNL1        0.0146
     13 C          -0.6683    3.6063   -1.1674 C.ar    1  UNL1       -0.0436
     14 C          -0.1366    3.8415   -2.4272 C.ar    1  UNL1       -0.0584
     15 C          -0.5440    4.8922   -3.2210 C.ar    1  UNL1       -0.0615
     16 C          -1.5150    5.7671   -2.7841 C.ar    1  UNL1       -0.0617
     17 C          -2.0578    5.5547   -1.5369 C.ar    1  UNL1       -0.0615
     18 C          -1.6447    4.5005   -0.7484 C.ar    1  UNL1       -0.0584
     19 N          -0.4110    0.1709    0.2326 N.pl3   1  UNL1       -0.2658
     20 C           0.9842   -0.1798    0.1165 C.2     1  UNL1        0.3777
     21 N           1.5668    0.0306   -0.9982 N.pl3   1  UNL1       -0.1312
     22 N           1.7322   -0.7472    1.1745 N.am    1  UNL1       -0.1746
     23 C           3.1055   -1.0851    1.0288 C.2     1  UNL1        0.2796
     24 O           3.6375   -0.8503   -0.1019 O.2     1  UNL1       -0.2570
     25 C           3.8820   -1.6898    2.1582 C.3     1  UNL1        0.0645
     26 C           5.2694   -1.9570    1.7863 C.ar    1  UNL1       -0.0335
     27 C           5.6165   -3.1309    1.1680 C.ar    1  UNL1       -0.0544
     28 C           6.9375   -3.3668    0.8262 C.ar    1  UNL1       -0.0160
     29 C           7.8877   -2.4203    1.1114 C.ar    1  UNL1        0.1615
     30 O           9.2196   -2.6376    0.7768 O.3     1  UNL1       -0.4915
     31 C           9.6750   -3.8115    0.1385 C.3     1  UNL1        0.0790
     32 C           7.5787   -1.2169    1.7375 C.ar    1  UNL1        0.1618
     33 O           8.5610   -0.2765    2.0151 O.3     1  UNL1       -0.4914
     34 C           8.1968    0.9293    2.6540 C.3     1  UNL1        0.0790
     35 C           6.2447   -1.0299    2.0579 C.ar    1  UNL1       -0.0126
     36 C          -5.8114   -0.9742    0.4280 C.ar    1  UNL1       -0.0116
     37 C          -6.6553   -1.7817   -0.2857 C.ar    1  UNL1        0.1618
     38 O          -7.0462   -3.0565    0.1276 O.3     1  UNL1       -0.4914
     39 C          -6.5146   -3.5007    1.3674 C.3     1  UNL1        0.0790
     40 H          -7.7149   -1.5673   -4.2671 H       1  UNL1        0.0660
     41 H          -9.3206   -2.2495   -3.7387 H       1  UNL1        0.0660
     42 H          -8.8969   -0.5397   -3.2790 H       1  UNL1        0.0660
     43 H          -7.1356    0.3931   -2.8658 H       1  UNL1        0.0655
     44 H          -5.6426    1.7673   -1.5351 H       1  UNL1        0.0622
     45 H          -4.6491    2.1346    0.6667 H       1  UNL1        0.0512
     46 H          -4.7359    0.9392    1.9642 H       1  UNL1        0.0512
     47 H          -2.6871    0.1176    1.3893 H       1  UNL1        0.1491
     48 H          -0.7868    0.9378   -1.7025 H       1  UNL1        0.0793
     49 H           0.8858    2.2913   -0.4007 H       1  UNL1        0.0352
     50 H          -0.3829    2.6931    0.7607 H       1  UNL1        0.0352
     51 H           0.6395    3.1449   -2.7810 H       1  UNL1        0.0620
     52 H          -0.1188    5.0614   -4.2034 H       1  UNL1        0.0618
     53 H          -1.8465    6.6021   -3.4024 H       1  UNL1        0.0618
     54 H          -2.8253    6.2373   -1.1793 H       1  UNL1        0.0618
     55 H          -2.0741    4.3334    0.2427 H       1  UNL1        0.0620
     56 H          -0.9362   -0.3372    0.9432 H       1  UNL1        0.2585
     57 H           1.1771    0.4266   -1.8578 H       1  UNL1        0.3060
     58 H           1.2596   -0.9200    2.0824 H       1  UNL1        0.2542
     59 H           3.3235   -2.5717    2.4922 H       1  UNL1        0.0422
     60 H           3.8092   -0.9475    3.0041 H       1  UNL1        0.0422
     61 H           4.8776   -3.9062    0.9267 H       1  UNL1        0.0622
     62 H           7.1954   -4.3040    0.3367 H       1  UNL1        0.0655
     63 H          10.6439   -3.5549   -0.3575 H       1  UNL1        0.0660
     64 H           9.8102   -4.6624    0.8381 H       1  UNL1        0.0660
     65 H           8.9508   -4.0477   -0.6684 H       1  UNL1        0.0660
     66 H           8.0826    0.8060    3.7492 H       1  UNL1        0.0660
     67 H           7.3282    1.4246    2.1733 H       1  UNL1        0.0660
     68 H           9.0493    1.6544    2.5161 H       1  UNL1        0.0660
     69 H           6.0034   -0.0866    2.5482 H       1  UNL1        0.0658
     70 H          -5.4462   -1.3975    1.3761 H       1  UNL1        0.0658
     71 H          -5.3950   -3.4526    1.3320 H       1  UNL1        0.0660
     72 H          -6.8122   -2.7235    2.1230 H       1  UNL1        0.0660
     73 H          -6.8248   -4.5152    1.6391 H       1  UNL1        0.0660
@<TRIPOS>BOND
     1     1     2    1
     2     2     3    1
     3     3     4   ar
     4     4     5   ar
     5     5     6   ar
     6     6     7    1
     7     7     8    1
     8     8     9   am
     9     9    10    2
    10     9    11    1
    11    11    12    1
    12    12    13    1
    13    13    14   ar
    14    14    15   ar
    15    15    16   ar
    16    16    17   ar
    17    17    18   ar
    18    11    19    1
    19    19    20    1
    20    20    21    2
    21    20    22    1
    22    22    23   am
    23    23    24    2
    24    23    25    1
    25    25    26    1
    26    26    27   ar
    27    27    28   ar
    28    28    29   ar
    29    29    30    1
    30    30    31    1
    31    29    32   ar
    32    32    33    1
    33    33    34    1
    34    32    35   ar
    35     6    36   ar
    36    36    37   ar
    37    37    38    1
    38    38    39    1
    39    37     3   ar
    40    18    13   ar
    41    35    26   ar
    42     1    40    1
    43     1    41    1
    44     1    42    1
    45     4    43    1
    46     5    44    1
    47     7    45    1
    48     7    46    1
    49     8    47    1
    50    11    48    1
    51    12    49    1
    52    12    50    1
    53    14    51    1
    54    15    52    1
    55    16    53    1
    56    17    54    1
    57    18    55    1
    58    19    56    1
    59    21    57    1
    60    22    58    1
    61    25    59    1
    62    25    60    1
    63    27    61    1
    64    28    62    1
    65    31    63    1
    66    31    64    1
    67    31    65    1
    68    34    66    1
    69    34    67    1
    70    34    68    1
    71    35    69    1
    72    36    70    1
    73    39    71    1
    74    39    72    1
    75    39    73    1
