@<TRIPOS>MOLECULE
*****
 27 28 0 0 0
SMALL
GASTEIGER

@<TRIPOS>ATOM
      1 O           0.7814    0.5546   -1.6336 O.2     1  UNL1       -0.2956
      2 C           1.5851    0.3695   -0.7488 C.2     1  UNL1        0.1536
      3 C           2.9272    0.9503   -0.9268 C.3     1  UNL1        0.0799
      4 N           3.7289    0.5783    0.2101 N.3     1  UNL1       -0.1971
      5 O           4.9872    1.0135    0.1914 O.3     1  UNL1       -0.3146
      6 C           1.2259   -0.3946    0.4290 C.3     1  UNL1        0.0344
      7 C          -0.1567   -0.9223    0.4139 C.ar    1  UNL1       -0.0152
      8 C          -0.5327   -2.2318    0.1581 C.ar    1  UNL1        0.0063
      9 N          -1.8725   -2.3281    0.2279 N.ar    1  UNL1       -0.3604
     10 C          -2.3708   -1.1157    0.5217 C.ar    1  UNL1        0.0468
     11 C          -3.6700   -0.6637    0.7054 C.ar    1  UNL1       -0.0364
     12 C          -3.8932    0.6425    0.9997 C.ar    1  UNL1       -0.0414
     13 C          -2.8251    1.5196    1.1163 C.ar    1  UNL1        0.0417
     14 CL         -3.0839    3.2060    1.4927 Cl      1  UNL1       -0.0835
     15 C          -1.5267    1.0936    0.9384 C.ar    1  UNL1       -0.0340
     16 C          -1.3042   -0.2202    0.6421 C.ar    1  UNL1        0.0046
     17 H           2.8792    2.0794   -0.9414 H       1  UNL1        0.0526
     18 H           3.3984    0.6667   -1.8889 H       1  UNL1        0.0526
     19 H           3.2725    0.7443    1.1263 H       1  UNL1        0.1540
     20 H           5.6386    0.2985   -0.0004 H       1  UNL1        0.2363
     21 H           1.8904   -1.2790    0.6351 H       1  UNL1        0.0391
     22 H           1.3324    0.2008    1.3897 H       1  UNL1        0.0391
     23 H           0.1549   -3.0227   -0.0589 H       1  UNL1        0.0810
     24 H          -2.4851   -3.1623    0.0904 H       1  UNL1        0.1653
     25 H          -4.4984   -1.3805    0.6077 H       1  UNL1        0.0639
     26 H          -4.8938    1.0408    1.1525 H       1  UNL1        0.0633
     27 H          -0.6891    1.7624    1.0250 H       1  UNL1        0.0639
@<TRIPOS>BOND
     1     1     2    2
     2     2     3    1
     3     3     4    1
     4     4     5    1
     5     2     6    1
     6     6     7    1
     7     7     8   ar
     8     8     9   ar
     9     9    10   ar
    10    10    11   ar
    11    11    12   ar
    12    12    13   ar
    13    13    14    1
    14    13    15   ar
    15    15    16   ar
    16    16     7   ar
    17    16    10   ar
    18     3    17    1
    19     3    18    1
    20     4    19    1
    21     5    20    1
    22     6    21    1
    23     6    22    1
    24     8    23    1
    25     9    24    1
    26    11    25    1
    27    12    26    1
    28    15    27    1
