
     RDKit          3D

 27 28  0  0  0  0  0  0  0  0999 V2000
    0.7814    0.5546   -1.6336 O   0  0  0  0  0  0  0  0  0  0  0  0
    1.5851    0.3695   -0.7488 C   0  0  0  0  0  0  0  0  0  0  0  0
    2.9272    0.9503   -0.9268 C   0  0  0  0  0  0  0  0  0  0  0  0
    3.7289    0.5783    0.2101 N   0  0  0  0  0  0  0  0  0  0  0  0
    4.9872    1.0135    0.1914 O   0  0  0  0  0  0  0  0  0  0  0  0
    1.2259   -0.3946    0.4290 C   0  0  0  0  0  0  0  0  0  0  0  0
   -0.1567   -0.9223    0.4139 C   0  0  0  0  0  0  0  0  0  0  0  0
   -0.5327   -2.2318    0.1581 C   0  0  0  0  0  0  0  0  0  0  0  0
   -1.8725   -2.3281    0.2279 N   0  0  0  0  0  0  0  0  0  0  0  0
   -2.3708   -1.1157    0.5217 C   0  0  0  0  0  0  0  0  0  0  0  0
   -3.6700   -0.6637    0.7054 C   0  0  0  0  0  0  0  0  0  0  0  0
   -3.8932    0.6425    0.9997 C   0  0  0  0  0  0  0  0  0  0  0  0
   -2.8251    1.5196    1.1163 C   0  0  0  0  0  0  0  0  0  0  0  0
   -3.0839    3.2060    1.4927 Cl  0  0  0  0  0  0  0  0  0  0  0  0
   -1.5267    1.0936    0.9384 C   0  0  0  0  0  0  0  0  0  0  0  0
   -1.3042   -0.2202    0.6421 C   0  0  0  0  0  0  0  0  0  0  0  0
    2.8792    2.0794   -0.9414 H   0  0  0  0  0  0  0  0  0  0  0  0
    3.3984    0.6667   -1.8889 H   0  0  0  0  0  0  0  0  0  0  0  0
    3.2725    0.7443    1.1263 H   0  0  0  0  0  0  0  0  0  0  0  0
    5.6386    0.2985   -0.0004 H   0  0  0  0  0  0  0  0  0  0  0  0
    1.8904   -1.2790    0.6351 H   0  0  0  0  0  0  0  0  0  0  0  0
    1.3324    0.2008    1.3897 H   0  0  0  0  0  0  0  0  0  0  0  0
    0.1549   -3.0227   -0.0589 H   0  0  0  0  0  0  0  0  0  0  0  0
   -2.4851   -3.1623    0.0904 H   0  0  0  0  0  0  0  0  0  0  0  0
   -4.4984   -1.3805    0.6077 H   0  0  0  0  0  0  0  0  0  0  0  0
   -4.8938    1.0408    1.1525 H   0  0  0  0  0  0  0  0  0  0  0  0
   -0.6891    1.7624    1.0250 H   0  0  0  0  0  0  0  0  0  0  0  0
  1  2  2  0
  2  3  1  0
  3  4  1  0
  4  5  1  0
  2  6  1  0
  6  7  1  0
  7  8  2  0
  8  9  1  0
  9 10  1  0
 10 11  2  0
 11 12  1  0
 12 13  2  0
 13 14  1  0
 13 15  1  0
 15 16  2  0
 16  7  1  0
 16 10  1  0
  3 17  1  0
  3 18  1  0
  4 19  1  0
  5 20  1  0
  6 21  1  0
  6 22  1  0
  8 23  1  0
  9 24  1  0
 11 25  1  0
 12 26  1  0
 15 27  1  0
M  END
$$$$
