@<TRIPOS>MOLECULE
*****
 54 56 0 0 0
SMALL
GASTEIGER

@<TRIPOS>ATOM
      1 C           5.4897    2.1104    0.4274 C.3     1  UNL1        0.0790
      2 O           4.8933    0.8786    0.1679 O.3     1  UNL1       -0.4913
      3 C           3.5369    0.6256    0.2787 C.ar    1  UNL1        0.1655
      4 C           2.6711    1.6515    0.6773 C.ar    1  UNL1       -0.0123
      5 C           1.3188    1.4119    0.7926 C.ar    1  UNL1       -0.0324
      6 C           0.9297    0.1317    0.4924 C.ar    1  UNL1        0.0312
      7 C           1.6813   -0.9561    0.0881 C.ar    1  UNL1        0.1731
      8 O           1.2450   -2.2419   -0.2234 O.3     1  UNL1       -0.4907
      9 C           0.8896   -2.6288   -1.5641 C.3     1  UNL1        0.0790
     10 C           3.0535   -0.6529   -0.0102 C.ar    1  UNL1        0.2041
     11 O           3.9963   -1.5940   -0.3937 O.3     1  UNL1       -0.4885
     12 C           4.3135   -1.7129   -1.7619 C.3     1  UNL1        0.0791
     13 C          -0.4597   -0.3450    0.6245 C.ar    1  UNL1       -0.0088
     14 C          -0.2750   -1.6751    1.0928 C.ar    1  UNL1       -0.0500
     15 C          -1.2328   -2.6641    0.9534 C.ar    1  UNL1       -0.0155
     16 C          -2.4161   -2.6440    0.2613 C.ar    1  UNL1        0.1665
     17 O          -2.8886   -3.7926   -0.3301 O.3     1  UNL1       -0.4913
     18 C          -2.1592   -4.9884   -0.2308 C.3     1  UNL1        0.0790
     19 C          -3.2144   -1.5070    0.1007 C.ar    1  UNL1        0.2206
     20 O          -4.4420   -1.7099   -0.0688 O.2     1  UNL1       -0.2840
     21 C          -2.8959   -0.1714    0.0939 C.ar    1  UNL1       -0.0057
     22 C          -1.6560    0.3529    0.3737 C.ar    1  UNL1       -0.0157
     23 C          -1.7258    1.8506    0.3880 C.3     1  UNL1        0.0493
     24 C          -0.8995    2.3369    1.5247 C.3     1  UNL1       -0.0263
     25 C           0.5492    2.6106    1.2034 C.3     1  UNL1       -0.0249
     26 N          -3.0680    2.3465    0.3701 N.am    1  UNL1       -0.3087
     27 C          -3.5146    3.1312   -0.7544 C.2     1  UNL1        0.2104
     28 C          -4.9103    3.6321   -0.7449 C.3     1  UNL1        0.0122
     29 O          -2.8012    3.4298   -1.7598 O.2     1  UNL1       -0.2761
     30 H           4.8376    2.9130   -0.0056 H       1  UNL1        0.0660
     31 H           6.4632    2.2400   -0.1047 H       1  UNL1        0.0660
     32 H           5.6165    2.2748    1.5175 H       1  UNL1        0.0660
     33 H           3.0356    2.6378    0.8995 H       1  UNL1        0.0658
     34 H           0.7889   -3.7384   -1.5822 H       1  UNL1        0.0660
     35 H          -0.1405   -2.2176   -1.7768 H       1  UNL1        0.0660
     36 H           1.5338   -2.2015   -2.3253 H       1  UNL1        0.0660
     37 H           3.6547   -1.0470   -2.3522 H       1  UNL1        0.0660
     38 H           5.3418   -1.3111   -1.9134 H       1  UNL1        0.0660
     39 H           4.1934   -2.7483   -2.1391 H       1  UNL1        0.0660
     40 H           0.7061   -1.8192    1.6032 H       1  UNL1        0.0625
     41 H          -0.9853   -3.5691    1.4780 H       1  UNL1        0.0655
     42 H          -1.0957   -4.7940   -0.0807 H       1  UNL1        0.0660
     43 H          -2.6336   -5.5583    0.6176 H       1  UNL1        0.0660
     44 H          -2.3338   -5.6521   -1.1150 H       1  UNL1        0.0660
     45 H          -3.6025    0.6094   -0.1378 H       1  UNL1        0.0660
     46 H          -1.2339    2.1854   -0.5477 H       1  UNL1        0.0548
     47 H          -1.3193    3.2226    2.0425 H       1  UNL1        0.0289
     48 H          -0.8767    1.5535    2.3394 H       1  UNL1        0.0289
     49 H           1.0128    3.0298    2.1298 H       1  UNL1        0.0314
     50 H           0.6260    3.4296    0.4579 H       1  UNL1        0.0314
     51 H          -3.7716    2.1714    1.1502 H       1  UNL1        0.1493
     52 H          -5.2034    3.9906    0.2803 H       1  UNL1        0.0322
     53 H          -5.5509    2.7640   -0.9956 H       1  UNL1        0.0322
     54 H          -5.0722    4.4184   -1.5082 H       1  UNL1        0.0322
@<TRIPOS>BOND
     1     1     2    1
     2     2     3    1
     3     3     4   ar
     4     4     5   ar
     5     5     6   ar
     6     6     7   ar
     7     7     8    1
     8     8     9    1
     9     7    10   ar
    10    10    11    1
    11    11    12    1
    12     6    13    1
    13    13    14   ar
    14    14    15   ar
    15    15    16   ar
    16    16    17    1
    17    17    18    1
    18    16    19   ar
    19    19    20    2
    20    19    21   ar
    21    21    22   ar
    22    22    23    1
    23    23    24    1
    24    24    25    1
    25    23    26    1
    26    26    27   am
    27    27    28    1
    28    27    29    2
    29    10     3   ar
    30    22    13   ar
    31    25     5    1
    32     1    30    1
    33     1    31    1
    34     1    32    1
    35     4    33    1
    36     9    34    1
    37     9    35    1
    38     9    36    1
    39    12    37    1
    40    12    38    1
    41    12    39    1
    42    14    40    1
    43    15    41    1
    44    18    42    1
    45    18    43    1
    46    18    44    1
    47    21    45    1
    48    23    46    1
    49    24    47    1
    50    24    48    1
    51    25    49    1
    52    25    50    1
    53    26    51    1
    54    28    52    1
    55    28    53    1
    56    28    54    1
