@<TRIPOS>MOLECULE
*****
 100 103 0 0 0
SMALL
GASTEIGER

@<TRIPOS>ATOM
      1 NH1        -0.9479   -6.2749    1.9373 N.pl3   1  ARG1       -0.2893
      2 CZ          0.1516   -5.5070    2.4025 C.cat   1  ARG1        0.3765
      3 NH2         0.4213   -5.4651    3.8207 N.pl3   1  ARG1       -0.2893
      4 NE          0.8740   -4.8789    1.5543 N.pl3   1  ARG1       -0.1138
      5 CD          2.0123   -4.0709    1.9205 C.3     1  ARG1        0.1048
      6 CG          2.5465   -3.4515    0.6374 C.3     1  ARG1       -0.0165
      7 CB          1.5468   -2.6062   -0.0576 C.3     1  ARG1       -0.0230
      8 CA          1.0962   -1.4844    0.8422 C.3     1  ARG1        0.0995
      9 N           0.0611   -0.6593    0.0852 N.am    1  ARG1       -0.3025
     10 C          -1.2851   -0.8633    0.1703 C.2     5  ARG5        0.2339
     11 O          -1.4110   -2.0315    0.8166 O.2     5  ARG5       -0.2738
     12 CA         -2.6144   -0.3175   -0.1774 C.3     5  ARG5        0.0995
     13 CB         -3.0978   -1.0669   -1.3667 C.3     5  ARG5       -0.0230
     14 CG         -4.4575   -0.7075   -1.8635 C.3     5  ARG5       -0.0165
     15 CD         -4.7167   -1.4765   -3.1273 C.3     5  ARG5        0.1048
     16 NE         -4.6386   -2.8885   -3.0152 N.pl3   5  ARG5       -0.1138
     17 CZ         -5.5179   -3.6270   -2.4979 C.cat   5  ARG5        0.3765
     18 NH1        -6.7101   -3.1051   -1.9557 N.pl3   5  ARG5       -0.2893
     19 NH2        -5.3018   -5.0253   -2.4877 N.pl3   5  ARG5       -0.2893
     20 N          -2.6371    1.1524   -0.4509 N.am    5  ARG5       -0.3025
     21 C          -2.0834    2.0424    0.4553 C.2     4  TYR4        0.2343
     22 O          -1.5000    1.2667    1.3619 O.2     4  TYR4       -0.2738
     23 CA         -1.9165    3.4702    0.7315 C.3     4  TYR4        0.1033
     24 CB         -2.9623    4.0943    1.5745 C.3     4  TYR4       -0.0007
     25 CG         -4.3163    4.0063    1.0238 C.ar    4  TYR4       -0.0449
     26 CD1        -5.1359    2.9386    1.3339 C.ar    4  TYR4       -0.0551
     27 CE1        -6.4280    2.8360    0.8242 C.ar    4  TYR4       -0.0199
     28 CZ         -6.9128    3.8205   -0.0121 C.ar    4  TYR4        0.1169
     29 OH         -8.2153    3.7537   -0.5475 O.3     4  TYR4       -0.5068
     30 CE2        -6.0788    4.8777   -0.3093 C.ar    4  TYR4       -0.0199
     31 CD2        -4.7976    4.9951    0.1853 C.ar    4  TYR4       -0.0551
     32 N          -0.6065    3.3917    1.5324 N.am    4  TYR4       -0.3024
     33 C           0.5335    4.0499    1.1826 C.2     3  GLY3        0.2308
     34 O           0.1744    5.1356    0.5777 O.2     3  GLY3       -0.2741
     35 CA          2.0115    3.8489    1.3454 C.3     3  GLY3        0.0882
     36 N           2.2899    2.4668    1.7868 N.am    3  GLY3       -0.3052
     37 C           3.5215    1.9156    1.9031 C.2     2  UNK2        0.2341
     38 O           4.4163    2.8311    1.6378 O.2     2  UNK2       -0.2738
     39 C           4.1739    0.6418    2.2211 C.3     2  UNK2        0.1034
     40 C           5.5367    0.4412    1.7412 C.3     2  UNK2       -0.0006
     41 C           5.8262    0.4404    0.3221 C.ar    2  UNK2       -0.0445
     42 C           5.6581   -0.7532   -0.3934 C.ar    2  UNK2       -0.0579
     43 C           5.9464   -0.8460   -1.7346 C.ar    2  UNK2       -0.0538
     44 C           6.4178    0.2484   -2.4308 C.ar    2  UNK2       -0.0179
     45 C           6.7071    0.1286   -3.7890 C.ar    2  UNK2       -0.0540
     46 C           7.1800    1.2204   -4.4808 C.ar    2  UNK2       -0.0612
     47 C           7.3604    2.4158   -3.8207 C.ar    2  UNK2       -0.0612
     48 C           7.0625    2.5080   -2.4564 C.ar    2  UNK2       -0.0540
     49 C           6.5888    1.4226   -1.7525 C.ar    2  UNK2       -0.0176
     50 C           6.2932    1.5122   -0.3839 C.ar    2  UNK2       -0.0508
     51 N           3.3130   -0.5709    2.0605 N.am    2  UNK2       -0.3022
     52 C           2.2321   -0.6461    1.1842 C.2     1  ARG1        0.2340
     53 O           2.3244    0.4193    0.4396 O.2     1  ARG1       -0.2738
     54 HH11       -1.3179   -7.0735    2.5072 H       1  ARG1        0.2546
     55 HH12       -1.3721   -6.0224    1.0220 H       1  ARG1        0.2546
     56 HH21        0.9961   -6.2225    4.2451 H       1  ARG1        0.2546
     57 HH22        0.0648   -4.7066    4.4365 H       1  ARG1        0.2546
     58 HD1         2.7737   -4.7531    2.3718 H       1  ARG1        0.0693
     59 HD2         1.6529   -3.2985    2.6201 H       1  ARG1        0.0693
     60 HG1         2.8771   -4.3299    0.0157 H       1  ARG1        0.0298
     61 HG2         3.4702   -2.9111    0.8901 H       1  ARG1        0.0298
     62 HB1         0.6871   -3.2559   -0.3806 H       1  ARG1        0.0289
     63 HB2         2.0431   -2.1992   -0.9812 H       1  ARG1        0.0289
     64 HA          0.4981   -1.9378    1.6332 H       1  ARG1        0.0594
     65 H           0.5695   -0.0018   -0.4731 H       1  ARG1        0.1495
     66 HA         -3.3004   -0.4261    0.6839 H       5  ARG5        0.0594
     67 HB1        -2.3669   -1.0300   -2.2199 H       5  ARG5        0.0289
     68 HB2        -3.1364   -2.1453   -1.0529 H       5  ARG5        0.0289
     69 HG1        -4.6138    0.3502   -2.0880 H       5  ARG5        0.0298
     70 HG2        -5.2181   -0.9749   -1.0898 H       5  ARG5        0.0298
     71 HD1        -4.0421   -1.0715   -3.9447 H       5  ARG5        0.0693
     72 HD2        -5.7695   -1.2340   -3.4897 H       5  ARG5        0.0693
     73 HH11       -7.3506   -2.5637   -2.5873 H       5  ARG5        0.2546
     74 HH12       -7.0020   -3.2249   -0.9463 H       5  ARG5        0.2546
     75 HH21       -4.3341   -5.4369   -2.4900 H       5  ARG5        0.2546
     76 HH22       -6.0836   -5.7351   -2.4790 H       5  ARG5        0.2546
     77 H          -3.0734    1.3501   -1.3035 H       5  ARG5        0.1495
     78 HA         -1.7340    4.0726   -0.1422 H       4  TYR4        0.0598
     79 HB1        -2.7623    5.1613    1.7955 H       4  TYR4        0.0336
     80 HB2        -2.9581    3.5878    2.5739 H       4  TYR4        0.0336
     81 HD1        -4.7457    2.1742    1.9892 H       4  TYR4        0.0621
     82 HE1        -7.0600    1.9905    1.0753 H       4  TYR4        0.0654
     83 HH         -8.6891    4.6368   -0.6655 H       4  TYR4        0.2921
     84 HE2        -6.4600    5.6658   -0.9775 H       4  TYR4        0.0654
     85 HD2        -4.1796    5.8446   -0.0776 H       4  TYR4        0.0621
     86 H          -0.8443    2.8528    2.3477 H       4  TYR4        0.1495
     87 HA1         2.4714    4.6022    2.0102 H       3  GLY3        0.0558
     88 HA2         2.4446    3.9919    0.3388 H       3  GLY3        0.0558
     89 H           1.3935    2.0373    2.0354 H       3  GLY3        0.1492
     90 H           4.2330    0.7096    3.3759 H       2  UNK2        0.0598
     91 H           6.1824    1.2149    2.2959 H       2  UNK2        0.0336
     92 H           5.9149   -0.5161    2.2488 H       2  UNK2        0.0336
     93 H           5.2963   -1.6012    0.1527 H       2  UNK2        0.0620
     94 H           5.8188   -1.7656   -2.2946 H       2  UNK2        0.0624
     95 H           6.5765   -0.7927   -4.3374 H       2  UNK2        0.0624
     96 H           7.4180    1.1609   -5.5493 H       2  UNK2        0.0618
     97 H           7.7325    3.2613   -4.3744 H       2  UNK2        0.0618
     98 H           7.2015    3.4532   -1.9219 H       2  UNK2        0.0624
     99 H           6.4755    2.4616    0.0539 H       2  UNK2        0.0626
    100 H           3.6340   -1.3182    2.6466 H       2  UNK2        0.1495
@<TRIPOS>BOND
     1     1     2    1
     2     2     3    1
     3     2     4    2
     4     4     5    1
     5     5     6    1
     6     6     7    1
     7     7     8    1
     8     8     9    1
     9     9    10   am
    10    10    11    2
    11    10    12    1
    12    12    13    1
    13    13    14    1
    14    14    15    1
    15    15    16    1
    16    16    17    2
    17    17    18    1
    18    17    19    1
    19    12    20    1
    20    20    21   am
    21    21    22    2
    22    21    23    1
    23    23    24    1
    24    24    25    1
    25    25    26   ar
    26    26    27   ar
    27    27    28   ar
    28    28    29    1
    29    28    30   ar
    30    30    31   ar
    31    23    32    1
    32    32    33   am
    33    33    34    2
    34    33    35    1
    35    35    36    1
    36    36    37   am
    37    37    38    2
    38    37    39    1
    39    39    40    1
    40    40    41    1
    41    41    42   ar
    42    42    43   ar
    43    43    44   ar
    44    44    45   ar
    45    45    46   ar
    46    46    47   ar
    47    47    48   ar
    48    48    49   ar
    49    49    50   ar
    50    39    51    1
    51    51    52   am
    52    52    53    2
    53    52     8    1
    54    31    25   ar
    55    50    41   ar
    56    49    44   ar
    57     1    54    1
    58     1    55    1
    59     3    56    1
    60     3    57    1
    61     5    58    1
    62     5    59    1
    63     6    60    1
    64     6    61    1
    65     7    62    1
    66     7    63    1
    67     8    64    1
    68     9    65    1
    69    12    66    1
    70    13    67    1
    71    13    68    1
    72    14    69    1
    73    14    70    1
    74    15    71    1
    75    15    72    1
    76    18    73    1
    77    18    74    1
    78    19    75    1
    79    19    76    1
    80    20    77    1
    81    23    78    1
    82    24    79    1
    83    24    80    1
    84    26    81    1
    85    27    82    1
    86    29    83    1
    87    30    84    1
    88    31    85    1
    89    32    86    1
    90    35    87    1
    91    35    88    1
    92    36    89    1
    93    39    90    1
    94    40    91    1
    95    40    92    1
    96    42    93    1
    97    43    94    1
    98    45    95    1
    99    46    96    1
   100    47    97    1
   101    48    98    1
   102    50    99    1
   103    51   100    1
