
     RDKit          3D

100103  0  0  0  0  0  0  0  0999 V2000
   -0.9479   -6.2749    1.9373 N   0  0  0  0  0  0  0  0  0  0  0  0
    0.1516   -5.5070    2.4025 C   0  0  0  0  0  0  0  0  0  0  0  0
    0.4213   -5.4651    3.8207 N   0  0  0  0  0  0  0  0  0  0  0  0
    0.8740   -4.8789    1.5543 N   0  0  0  0  0  0  0  0  0  0  0  0
    2.0123   -4.0709    1.9205 C   0  0  0  0  0  0  0  0  0  0  0  0
    2.5465   -3.4515    0.6374 C   0  0  0  0  0  0  0  0  0  0  0  0
    1.5468   -2.6062   -0.0576 C   0  0  0  0  0  0  0  0  0  0  0  0
    1.0962   -1.4844    0.8422 C   0  0  2  0  0  0  0  0  0  0  0  0
    0.0611   -0.6593    0.0852 N   0  0  0  0  0  0  0  0  0  0  0  0
   -1.2851   -0.8633    0.1703 C   0  0  0  0  0  0  0  0  0  0  0  0
   -1.4110   -2.0315    0.8166 O   0  0  0  0  0  0  0  0  0  0  0  0
   -2.6144   -0.3175   -0.1774 C   0  0  2  0  0  0  0  0  0  0  0  0
   -3.0978   -1.0669   -1.3667 C   0  0  0  0  0  0  0  0  0  0  0  0
   -4.4575   -0.7075   -1.8635 C   0  0  0  0  0  0  0  0  0  0  0  0
   -4.7167   -1.4765   -3.1273 C   0  0  0  0  0  0  0  0  0  0  0  0
   -4.6386   -2.8885   -3.0152 N   0  0  0  0  0  0  0  0  0  0  0  0
   -5.5179   -3.6270   -2.4979 C   0  0  0  0  0  0  0  0  0  0  0  0
   -6.7101   -3.1051   -1.9557 N   0  0  0  0  0  0  0  0  0  0  0  0
   -5.3018   -5.0253   -2.4877 N   0  0  0  0  0  0  0  0  0  0  0  0
   -2.6371    1.1524   -0.4509 N   0  0  0  0  0  0  0  0  0  0  0  0
   -2.0834    2.0424    0.4553 C   0  0  0  0  0  0  0  0  0  0  0  0
   -1.5000    1.2667    1.3619 O   0  0  0  0  0  0  0  0  0  0  0  0
   -1.9165    3.4702    0.7315 C   0  0  1  0  0  0  0  0  0  0  0  0
   -2.9623    4.0943    1.5745 C   0  0  0  0  0  0  0  0  0  0  0  0
   -4.3163    4.0063    1.0238 C   0  0  0  0  0  0  0  0  0  0  0  0
   -5.1359    2.9386    1.3339 C   0  0  0  0  0  0  0  0  0  0  0  0
   -6.4280    2.8360    0.8242 C   0  0  0  0  0  0  0  0  0  0  0  0
   -6.9128    3.8205   -0.0121 C   0  0  0  0  0  0  0  0  0  0  0  0
   -8.2153    3.7537   -0.5475 O   0  0  0  0  0  0  0  0  0  0  0  0
   -6.0788    4.8777   -0.3093 C   0  0  0  0  0  0  0  0  0  0  0  0
   -4.7976    4.9951    0.1853 C   0  0  0  0  0  0  0  0  0  0  0  0
   -0.6065    3.3917    1.5324 N   0  0  0  0  0  0  0  0  0  0  0  0
    0.5335    4.0499    1.1826 C   0  0  0  0  0  0  0  0  0  0  0  0
    0.1744    5.1356    0.5777 O   0  0  0  0  0  0  0  0  0  0  0  0
    2.0115    3.8489    1.3454 C   0  0  0  0  0  0  0  0  0  0  0  0
    2.2899    2.4668    1.7868 N   0  0  0  0  0  0  0  0  0  0  0  0
    3.5215    1.9156    1.9031 C   0  0  0  0  0  0  0  0  0  0  0  0
    4.4163    2.8311    1.6378 O   0  0  0  0  0  0  0  0  0  0  0  0
    4.1739    0.6418    2.2211 C   0  0  2  0  0  0  0  0  0  0  0  0
    5.5367    0.4412    1.7412 C   0  0  0  0  0  0  0  0  0  0  0  0
    5.8262    0.4404    0.3221 C   0  0  0  0  0  0  0  0  0  0  0  0
    5.6581   -0.7532   -0.3934 C   0  0  0  0  0  0  0  0  0  0  0  0
    5.9464   -0.8460   -1.7346 C   0  0  0  0  0  0  0  0  0  0  0  0
    6.4178    0.2484   -2.4308 C   0  0  0  0  0  0  0  0  0  0  0  0
    6.7071    0.1286   -3.7890 C   0  0  0  0  0  0  0  0  0  0  0  0
    7.1800    1.2204   -4.4808 C   0  0  0  0  0  0  0  0  0  0  0  0
    7.3604    2.4158   -3.8207 C   0  0  0  0  0  0  0  0  0  0  0  0
    7.0625    2.5080   -2.4564 C   0  0  0  0  0  0  0  0  0  0  0  0
    6.5888    1.4226   -1.7525 C   0  0  0  0  0  0  0  0  0  0  0  0
    6.2932    1.5122   -0.3839 C   0  0  0  0  0  0  0  0  0  0  0  0
    3.3130   -0.5709    2.0605 N   0  0  0  0  0  0  0  0  0  0  0  0
    2.2321   -0.6461    1.1842 C   0  0  0  0  0  0  0  0  0  0  0  0
    2.3244    0.4193    0.4396 O   0  0  0  0  0  0  0  0  0  0  0  0
   -1.3179   -7.0735    2.5072 H   0  0  0  0  0  0  0  0  0  0  0  0
   -1.3721   -6.0224    1.0220 H   0  0  0  0  0  0  0  0  0  0  0  0
    0.9961   -6.2225    4.2451 H   0  0  0  0  0  0  0  0  0  0  0  0
    0.0648   -4.7066    4.4365 H   0  0  0  0  0  0  0  0  0  0  0  0
    2.7737   -4.7531    2.3718 H   0  0  0  0  0  0  0  0  0  0  0  0
    1.6529   -3.2985    2.6201 H   0  0  0  0  0  0  0  0  0  0  0  0
    2.8771   -4.3299    0.0157 H   0  0  0  0  0  0  0  0  0  0  0  0
    3.4702   -2.9111    0.8901 H   0  0  0  0  0  0  0  0  0  0  0  0
    0.6871   -3.2559   -0.3806 H   0  0  0  0  0  0  0  0  0  0  0  0
    2.0431   -2.1992   -0.9812 H   0  0  0  0  0  0  0  0  0  0  0  0
    0.4981   -1.9378    1.6332 H   0  0  0  0  0  0  0  0  0  0  0  0
    0.5695   -0.0018   -0.4731 H   0  0  0  0  0  0  0  0  0  0  0  0
   -3.3004   -0.4261    0.6839 H   0  0  0  0  0  0  0  0  0  0  0  0
   -2.3669   -1.0300   -2.2199 H   0  0  0  0  0  0  0  0  0  0  0  0
   -3.1364   -2.1453   -1.0529 H   0  0  0  0  0  0  0  0  0  0  0  0
   -4.6138    0.3502   -2.0880 H   0  0  0  0  0  0  0  0  0  0  0  0
   -5.2181   -0.9749   -1.0898 H   0  0  0  0  0  0  0  0  0  0  0  0
   -4.0421   -1.0715   -3.9447 H   0  0  0  0  0  0  0  0  0  0  0  0
   -5.7695   -1.2340   -3.4897 H   0  0  0  0  0  0  0  0  0  0  0  0
   -7.3506   -2.5637   -2.5873 H   0  0  0  0  0  0  0  0  0  0  0  0
   -7.0020   -3.2249   -0.9463 H   0  0  0  0  0  0  0  0  0  0  0  0
   -4.3341   -5.4369   -2.4900 H   0  0  0  0  0  0  0  0  0  0  0  0
   -6.0836   -5.7351   -2.4790 H   0  0  0  0  0  0  0  0  0  0  0  0
   -3.0734    1.3501   -1.3035 H   0  0  0  0  0  0  0  0  0  0  0  0
   -1.7340    4.0726   -0.1422 H   0  0  0  0  0  0  0  0  0  0  0  0
   -2.7623    5.1613    1.7955 H   0  0  0  0  0  0  0  0  0  0  0  0
   -2.9581    3.5878    2.5739 H   0  0  0  0  0  0  0  0  0  0  0  0
   -4.7457    2.1742    1.9892 H   0  0  0  0  0  0  0  0  0  0  0  0
   -7.0600    1.9905    1.0753 H   0  0  0  0  0  0  0  0  0  0  0  0
   -8.6891    4.6368   -0.6655 H   0  0  0  0  0  0  0  0  0  0  0  0
   -6.4600    5.6658   -0.9775 H   0  0  0  0  0  0  0  0  0  0  0  0
   -4.1796    5.8446   -0.0776 H   0  0  0  0  0  0  0  0  0  0  0  0
   -0.8443    2.8528    2.3477 H   0  0  0  0  0  0  0  0  0  0  0  0
    2.4714    4.6022    2.0102 H   0  0  0  0  0  0  0  0  0  0  0  0
    2.4446    3.9919    0.3388 H   0  0  0  0  0  0  0  0  0  0  0  0
    1.3935    2.0373    2.0354 H   0  0  0  0  0  0  0  0  0  0  0  0
    4.2330    0.7096    3.3759 H   0  0  0  0  0  0  0  0  0  0  0  0
    6.1824    1.2149    2.2959 H   0  0  0  0  0  0  0  0  0  0  0  0
    5.9149   -0.5161    2.2488 H   0  0  0  0  0  0  0  0  0  0  0  0
    5.2963   -1.6012    0.1527 H   0  0  0  0  0  0  0  0  0  0  0  0
    5.8188   -1.7656   -2.2946 H   0  0  0  0  0  0  0  0  0  0  0  0
    6.5765   -0.7927   -4.3374 H   0  0  0  0  0  0  0  0  0  0  0  0
    7.4180    1.1609   -5.5493 H   0  0  0  0  0  0  0  0  0  0  0  0
    7.7325    3.2613   -4.3744 H   0  0  0  0  0  0  0  0  0  0  0  0
    7.2015    3.4532   -1.9219 H   0  0  0  0  0  0  0  0  0  0  0  0
    6.4755    2.4616    0.0539 H   0  0  0  0  0  0  0  0  0  0  0  0
    3.6340   -1.3182    2.6466 H   0  0  0  0  0  0  0  0  0  0  0  0
  1  2  1  0
  2  3  1  0
  2  4  2  3
  4  5  1  0
  5  6  1  0
  6  7  1  0
  7  8  1  0
  8  9  1  0
  9 10  1  0
 10 11  2  0
 10 12  1  0
 12 13  1  0
 13 14  1  0
 14 15  1  0
 15 16  1  0
 16 17  2  3
 17 18  1  0
 17 19  1  0
 12 20  1  0
 20 21  1  0
 21 22  2  0
 21 23  1  0
 23 24  1  0
 24 25  1  0
 25 26  2  0
 26 27  1  0
 27 28  2  0
 28 29  1  0
 28 30  1  0
 30 31  2  0
 23 32  1  0
 32 33  1  0
 33 34  2  0
 33 35  1  0
 35 36  1  0
 36 37  1  0
 37 38  2  0
 37 39  1  0
 39 40  1  0
 40 41  1  0
 41 42  2  0
 42 43  1  0
 43 44  2  0
 44 45  1  0
 45 46  2  0
 46 47  1  0
 47 48  2  0
 48 49  1  0
 49 50  2  0
 39 51  1  0
 51 52  1  0
 52 53  2  0
 52  8  1  0
 31 25  1  0
 50 41  1  0
 49 44  1  0
  1 54  1  0
  1 55  1  0
  3 56  1  0
  3 57  1  0
  5 58  1  0
  5 59  1  0
  6 60  1  0
  6 61  1  0
  7 62  1  0
  7 63  1  0
  8 64  1  1
  9 65  1  0
 12 66  1  1
 13 67  1  0
 13 68  1  0
 14 69  1  0
 14 70  1  0
 15 71  1  0
 15 72  1  0
 18 73  1  0
 18 74  1  0
 19 75  1  0
 19 76  1  0
 20 77  1  0
 23 78  1  6
 24 79  1  0
 24 80  1  0
 26 81  1  0
 27 82  1  0
 29 83  1  0
 30 84  1  0
 31 85  1  0
 32 86  1  0
 35 87  1  0
 35 88  1  0
 36 89  1  0
 39 90  1  1
 40 91  1  0
 40 92  1  0
 42 93  1  0
 43 94  1  0
 45 95  1  0
 46 96  1  0
 47 97  1  0
 48 98  1  0
 50 99  1  0
 51100  1  0
M  END
$$$$
