
     RDKit          3D

 19 19  0  0  0  0  0  0  0  0999 V2000
   -4.4701   -0.1268   -0.3288 C   0  0  0  0  0  0  0  0  0  0  0  0
   -3.0476    0.1898   -0.6019 C   0  0  0  0  0  0  0  0  0  0  0  0
   -2.7666    1.1133   -1.4305 O   0  0  0  0  0  0  0  0  0  0  0  0
   -2.0330   -0.5260    0.0504 N   0  0  0  0  0  0  0  0  0  0  0  0
   -0.6872   -0.1498   -0.2770 C   0  0  0  0  0  0  0  0  0  0  0  0
   -0.0962    0.6387   -0.9815 N   0  0  0  0  0  0  0  0  0  0  0  0
    1.1838    0.7336   -1.0564 N   0  0  0  0  0  0  0  0  0  0  0  0
    1.9479    0.0082   -0.3976 C   0  0  0  0  0  0  0  0  0  0  0  0
    3.6962   -0.1689   -0.2239 S   0  0  0  0  0  6  0  0  0  0  0  0
    4.2776    0.8461    1.0297 N   0  0  0  0  0  0  0  0  0  0  0  0
    4.2755    0.1659   -1.5573 O   0  0  0  0  0  0  0  0  0  0  0  0
    4.0290   -1.6158    0.0845 O   0  0  0  0  0  0  0  0  0  0  0  0
    0.7639   -1.0177    0.5157 S   0  0  0  0  0  0  0  0  0  0  0  0
   -5.0334    0.8120   -0.1176 H   0  0  0  0  0  0  0  0  0  0  0  0
   -4.9647   -0.5989   -1.2082 H   0  0  0  0  0  0  0  0  0  0  0  0
   -4.5485   -0.7472    0.5751 H   0  0  0  0  0  0  0  0  0  0  0  0
   -2.2172   -1.2910    0.7372 H   0  0  0  0  0  0  0  0  0  0  0  0
    4.6256    0.3167    1.8556 H   0  0  0  0  0  0  0  0  0  0  0  0
    5.0651    1.4176    0.6182 H   0  0  0  0  0  0  0  0  0  0  0  0
  1  2  1  0
  2  3  2  0
  2  4  1  0
  4  5  1  0
  5  6  2  0
  6  7  1  0
  7  8  2  0
  8  9  1  0
  9 10  1  0
  9 11  2  0
  9 12  2  0
  8 13  1  0
 13  5  1  0
  1 14  1  0
  1 15  1  0
  1 16  1  0
  4 17  1  0
 10 18  1  0
 10 19  1  0
M  END
$$$$
