@<TRIPOS>MOLECULE
*****
 19 19 0 0 0
SMALL
GASTEIGER

@<TRIPOS>ATOM
      1 C          -4.4701   -0.1268   -0.3288 C.3     1  UNL1        0.0125
      2 C          -3.0476    0.1898   -0.6019 C.2     1  UNL1        0.2156
      3 O          -2.7666    1.1133   -1.4305 O.2     1  UNL1       -0.2757
      4 N          -2.0330   -0.5260    0.0504 N.am    1  UNL1       -0.2635
      5 C          -0.6872   -0.1498   -0.2770 C.ar    1  UNL1        0.1893
      6 N          -0.0962    0.6387   -0.9815 N.ar    1  UNL1       -0.1239
      7 N           1.1838    0.7336   -1.0564 N.ar    1  UNL1       -0.1190
      8 C           1.9479    0.0082   -0.3976 C.ar    1  UNL1        0.2556
      9 S           3.6962   -0.1689   -0.2239 S.O2    1  UNL1        0.0815
     10 N           4.2776    0.8461    1.0297 N.3     1  UNL1       -0.2015
     11 O           4.2755    0.1659   -1.5573 O.2     1  UNL1       -0.1512
     12 O           4.0290   -1.6158    0.0845 O.2     1  UNL1       -0.1512
     13 S           0.7639   -1.0177    0.5157 S.2     1  UNL1       -0.0105
     14 H          -5.0334    0.8120   -0.1176 H       1  UNL1        0.0323
     15 H          -4.9647   -0.5989   -1.2082 H       1  UNL1        0.0323
     16 H          -4.5485   -0.7472    0.5751 H       1  UNL1        0.0323
     17 H          -2.2172   -1.2910    0.7372 H       1  UNL1        0.1568
     18 H           4.6256    0.3167    1.8556 H       1  UNL1        0.1443
     19 H           5.0651    1.4176    0.6182 H       1  UNL1        0.1443
@<TRIPOS>BOND
     1     1     2    1
     2     2     3    2
     3     2     4   am
     4     4     5    1
     5     5     6   ar
     6     6     7   ar
     7     7     8   ar
     8     8     9    1
     9     9    10    1
    10     9    11    2
    11     9    12    2
    12     8    13   ar
    13    13     5   ar
    14     1    14    1
    15     1    15    1
    16     1    16    1
    17     4    17    1
    18    10    18    1
    19    10    19    1
