@<TRIPOS>MOLECULE
*****
 51 53 0 0 0
SMALL
GASTEIGER

@<TRIPOS>ATOM
      1 C           8.8828    1.2131   -0.2431 C.2     1  UNL1       -0.0938
      2 C           8.4495    0.1676    0.0771 C.2     1  UNL1       -0.0066
      3 C           7.1213   -0.3955    0.1908 C.2     1  UNL1        0.2405
      4 O           6.9485   -1.6135    0.5826 O.2     1  UNL1       -0.2705
      5 N           5.9606    0.3505   -0.1190 N.am    1  UNL1       -0.2820
      6 C           4.7075   -0.3146    0.0252 C.ar    1  UNL1        0.0338
      7 C           4.1868   -0.9779   -1.0411 C.ar    1  UNL1       -0.0386
      8 C           2.9651   -1.6193   -0.9208 C.ar    1  UNL1       -0.0336
      9 C           2.2544   -1.6055    0.2580 C.ar    1  UNL1        0.1056
     10 S           0.6939   -2.3999    0.4593 S.O2    1  UNL1        0.0609
     11 O           0.5893   -2.7725    1.9183 O.2     1  UNL1       -0.1528
     12 O           0.6445   -3.6731   -0.3413 O.2     1  UNL1       -0.1528
     13 N          -0.4992   -1.2956    0.0149 N.3     1  UNL1       -0.1736
     14 C          -0.6064   -0.0985    0.7309 C.3     1  UNL1        0.0364
     15 C          -2.0326    0.4038    0.7441 C.3     1  UNL1        0.0306
     16 N          -2.6177    0.2122   -0.5473 N.am    1  UNL1       -0.2829
     17 C          -3.9973    0.2917   -0.7407 C.2     1  UNL1        0.3049
     18 O          -4.3647    0.0511   -1.9684 O.2     1  UNL1       -0.2524
     19 N          -5.0463    0.5734    0.1146 N.am    1  UNL1       -0.2855
     20 C          -5.0871    0.9341    1.4858 C.3     1  UNL1        0.0162
     21 C          -6.1530    2.0487    1.4843 C.3     1  UNL1       -0.0357
     22 C          -6.9774    1.8272    0.2390 C.3     1  UNL1       -0.0357
     23 C          -6.4668    0.5075   -0.2827 C.3     1  UNL1        0.0162
     24 C          -1.7462   -0.0677   -1.6757 C.3     1  UNL1        0.0306
     25 C          -0.8147   -1.2122   -1.3818 C.3     1  UNL1        0.0364
     26 C           2.8272   -0.9140    1.3239 C.ar    1  UNL1       -0.0336
     27 C           4.0525   -0.2670    1.2135 C.ar    1  UNL1       -0.0386
     28 H           9.3011    2.1747   -0.5365 H       1  UNL1        0.0536
     29 H           7.6969    1.8204   -0.4957 H       1  UNL1        0.0536
     30 H           9.2286   -0.6527    0.3907 H       1  UNL1        0.0663
     31 H           5.9830    1.3502   -0.4422 H       1  UNL1        0.1551
     32 H           4.7272   -0.9992   -1.9668 H       1  UNL1        0.0637
     33 H           2.5308   -2.1531   -1.7540 H       1  UNL1        0.0638
     34 H          -0.2545   -0.2801    1.7741 H       1  UNL1        0.0459
     35 H           0.0519    0.6774    0.2401 H       1  UNL1        0.0459
     36 H          -2.0697    1.4665    1.0768 H       1  UNL1        0.0478
     37 H          -2.6071   -0.2822    1.4391 H       1  UNL1        0.0478
     38 H          -5.5680    0.1166    2.0746 H       1  UNL1        0.0465
     39 H          -4.1731    1.3061    1.9520 H       1  UNL1        0.0465
     40 H          -5.6610    3.0514    1.5018 H       1  UNL1        0.0281
     41 H          -6.7870    1.9806    2.3869 H       1  UNL1        0.0281
     42 H          -8.0670    1.7785    0.4850 H       1  UNL1        0.0281
     43 H          -6.7616    2.6266   -0.4875 H       1  UNL1        0.0281
     44 H          -6.9103   -0.3204    0.3168 H       1  UNL1        0.0465
     45 H          -6.5922    0.3709   -1.3539 H       1  UNL1        0.0465
     46 H          -2.3795   -0.3343   -2.5354 H       1  UNL1        0.0478
     47 H          -1.1775    0.8388   -1.9429 H       1  UNL1        0.0478
     48 H          -1.2740   -2.1701   -1.6891 H       1  UNL1        0.0459
     49 H           0.1189   -1.0882   -1.9520 H       1  UNL1        0.0459
     50 H           2.2808   -0.8979    2.2549 H       1  UNL1        0.0638
     51 H           4.4889    0.2653    2.0443 H       1  UNL1        0.0637
@<TRIPOS>BOND
     1     1     2    2
     2     2     3    1
     3     3     4    2
     4     3     5   am
     5     5     6    1
     6     6     7   ar
     7     7     8   ar
     8     8     9   ar
     9     9    10    1
    10    10    11    2
    11    10    12    2
    12    10    13    1
    13    13    14    1
    14    14    15    1
    15    15    16    1
    16    16    17   am
    17    17    18    2
    18    17    19   am
    19    19    20    1
    20    20    21    1
    21    21    22    1
    22    22    23    1
    23    16    24    1
    24    24    25    1
    25     9    26   ar
    26    26    27   ar
    27    27     6   ar
    28    25    13    1
    29    23    19    1
    30     1    28    1
    31     1    29    1
    32     2    30    1
    33     5    31    1
    34     7    32    1
    35     8    33    1
    36    14    34    1
    37    14    35    1
    38    15    36    1
    39    15    37    1
    40    20    38    1
    41    20    39    1
    42    21    40    1
    43    21    41    1
    44    22    42    1
    45    22    43    1
    46    23    44    1
    47    23    45    1
    48    24    46    1
    49    24    47    1
    50    25    48    1
    51    25    49    1
    52    26    50    1
    53    27    51    1
