
     RDKit          3D

 48 49  0  0  0  0  0  0  0  0999 V2000
   -5.1550    2.1911   -0.3384 C   0  0  0  0  0  0  0  0  0  0  0  0
   -4.2488    1.1333   -0.9149 C   0  0  0  0  0  0  0  0  0  0  0  0
   -3.7867    0.1721   -0.0246 N   0  0  0  0  0  0  0  0  0  0  0  0
   -4.6252   -0.7706    0.5570 C   0  0  0  0  0  0  0  0  0  0  0  0
   -5.1526   -1.7693   -0.4665 C   0  0  0  0  0  0  0  0  0  0  0  0
   -2.3923    0.1801    0.3424 C   0  0  0  0  0  0  0  0  0  0  0  0
   -1.5917   -0.2096   -0.8605 C   0  0  0  0  0  0  0  0  0  0  0  0
   -0.1193   -0.3300   -0.6996 C   0  0  0  0  0  0  0  0  0  0  0  0
    0.6344    0.8612   -0.2303 C   0  0  0  0  0  0  0  0  0  0  0  0
    0.3227    1.3801    1.1246 C   0  0  0  0  0  0  0  0  0  0  0  0
    2.0592    0.6466   -0.4698 N   0  0  0  0  0  0  0  0  0  0  0  0
    2.8877   -0.2009    0.2611 C   0  0  0  0  0  0  0  0  0  0  0  0
    2.4489   -0.9113    1.3548 C   0  0  0  0  0  0  0  0  0  0  0  0
    3.3374   -1.7179    2.0515 C   0  0  0  0  0  0  0  0  0  0  0  0
    4.6132   -1.8277    1.6936 N   0  0  0  0  0  0  0  0  0  0  0  0
    5.0776   -1.1502    0.6341 C   0  0  0  0  0  0  0  0  0  0  0  0
    6.4088   -1.2660    0.2641 C   0  0  0  0  0  0  0  0  0  0  0  0
    6.8986   -0.5853   -0.8086 C   0  0  0  0  0  0  0  0  0  0  0  0
    8.5797   -0.7596   -1.2378 Cl  0  0  0  0  0  0  0  0  0  0  0  0
    6.1050    0.2410   -1.5691 C   0  0  0  0  0  0  0  0  0  0  0  0
    4.7576    0.3441   -1.1765 C   0  0  0  0  0  0  0  0  0  0  0  0
    4.2340   -0.3237   -0.1068 C   0  0  0  0  0  0  0  0  0  0  0  0
   -5.7213    2.6177   -1.2084 H   0  0  0  0  0  0  0  0  0  0  0  0
   -5.8150    1.8489    0.4509 H   0  0  0  0  0  0  0  0  0  0  0  0
   -4.5633    3.0552    0.0704 H   0  0  0  0  0  0  0  0  0  0  0  0
   -4.7490    0.6461   -1.7860 H   0  0  0  0  0  0  0  0  0  0  0  0
   -3.4018    1.7119   -1.3850 H   0  0  0  0  0  0  0  0  0  0  0  0
   -5.4676   -0.3599    1.1730 H   0  0  0  0  0  0  0  0  0  0  0  0
   -4.0340   -1.3864    1.2847 H   0  0  0  0  0  0  0  0  0  0  0  0
   -6.0635   -2.2953   -0.0959 H   0  0  0  0  0  0  0  0  0  0  0  0
   -4.3858   -2.5507   -0.6928 H   0  0  0  0  0  0  0  0  0  0  0  0
   -5.3540   -1.2654   -1.4361 H   0  0  0  0  0  0  0  0  0  0  0  0
   -2.0941    1.2413    0.6163 H   0  0  0  0  0  0  0  0  0  0  0  0
   -2.2427   -0.4536    1.2242 H   0  0  0  0  0  0  0  0  0  0  0  0
   -1.9354   -1.2272   -1.2414 H   0  0  0  0  0  0  0  0  0  0  0  0
   -1.8645    0.4550   -1.7411 H   0  0  0  0  0  0  0  0  0  0  0  0
    0.3450   -0.5795   -1.7179 H   0  0  0  0  0  0  0  0  0  0  0  0
    0.1440   -1.2149   -0.0979 H   0  0  0  0  0  0  0  0  0  0  0  0
    0.3765    1.7427   -0.9333 H   0  0  0  0  0  0  0  0  0  0  0  0
   -0.1085    2.4071    1.0533 H   0  0  0  0  0  0  0  0  0  0  0  0
   -0.2405    0.7383    1.7980 H   0  0  0  0  0  0  0  0  0  0  0  0
    1.3151    1.5587    1.6378 H   0  0  0  0  0  0  0  0  0  0  0  0
    2.4934    1.1975   -1.2852 H   0  0  0  0  0  0  0  0  0  0  0  0
    1.4348   -0.8246    1.6675 H   0  0  0  0  0  0  0  0  0  0  0  0
    2.9331   -2.2459    2.8947 H   0  0  0  0  0  0  0  0  0  0  0  0
    7.0472   -1.9212    0.8632 H   0  0  0  0  0  0  0  0  0  0  0  0
    6.4828    0.7892   -2.4260 H   0  0  0  0  0  0  0  0  0  0  0  0
    4.1759    0.9875   -1.7867 H   0  0  0  0  0  0  0  0  0  0  0  0
  1  2  1  0
  2  3  1  0
  3  4  1  0
  4  5  1  0
  3  6  1  0
  6  7  1  0
  7  8  1  0
  8  9  1  0
  9 10  1  0
  9 11  1  0
 11 12  1  0
 12 13  2  0
 13 14  1  0
 14 15  2  0
 15 16  1  0
 16 17  2  0
 17 18  1  0
 18 19  1  0
 18 20  2  0
 20 21  1  0
 21 22  2  0
 22 12  1  0
 22 16  1  0
  1 23  1  0
  1 24  1  0
  1 25  1  0
  2 26  1  0
  2 27  1  0
  4 28  1  0
  4 29  1  0
  5 30  1  0
  5 31  1  0
  5 32  1  0
  6 33  1  0
  6 34  1  0
  7 35  1  0
  7 36  1  0
  8 37  1  0
  8 38  1  0
  9 39  1  0
 10 40  1  0
 10 41  1  0
 10 42  1  0
 11 43  1  0
 13 44  1  0
 14 45  1  0
 17 46  1  0
 20 47  1  0
 21 48  1  0
M  END
$$$$
