@<TRIPOS>MOLECULE
*****
 48 49 0 0 0
SMALL
GASTEIGER

@<TRIPOS>ATOM
      1 C          -5.1550    2.1911   -0.3384 C.3     1  UNL1       -0.0524
      2 C          -4.2488    1.1333   -0.9149 C.3     1  UNL1       -0.0040
      3 N          -3.7867    0.1721   -0.0246 N.3     1  UNL1       -0.3028
      4 C          -4.6252   -0.7706    0.5570 C.3     1  UNL1       -0.0040
      5 C          -5.1526   -1.7693   -0.4665 C.3     1  UNL1       -0.0524
      6 C          -2.3923    0.1801    0.3424 C.3     1  UNL1       -0.0011
      7 C          -1.5917   -0.2096   -0.8605 C.3     1  UNL1       -0.0385
      8 C          -0.1193   -0.3300   -0.6996 C.3     1  UNL1       -0.0337
      9 C           0.6344    0.8612   -0.2303 C.3     1  UNL1        0.0179
     10 C           0.3227    1.3801    1.1246 C.3     1  UNL1       -0.0467
     11 N           2.0592    0.6466   -0.4698 N.pl3   1  UNL1       -0.3407
     12 C           2.8877   -0.2009    0.2611 C.ar    1  UNL1        0.0380
     13 C           2.4489   -0.9113    1.3548 C.ar    1  UNL1       -0.0221
     14 C           3.3374   -1.7179    2.0515 C.ar    1  UNL1        0.0300
     15 N           4.6132   -1.8277    1.6936 N.ar    1  UNL1       -0.2548
     16 C           5.0776   -1.1502    0.6341 C.ar    1  UNL1        0.0741
     17 C           6.4088   -1.2660    0.2641 C.ar    1  UNL1       -0.0173
     18 C           6.8986   -0.5853   -0.8086 C.ar    1  UNL1        0.0430
     19 CL          8.5797   -0.7596   -1.2378 Cl      1  UNL1       -0.0835
     20 C           6.1050    0.2410   -1.5691 C.ar    1  UNL1       -0.0426
     21 C           4.7576    0.3441   -1.1765 C.ar    1  UNL1       -0.0494
     22 C           4.2340   -0.3237   -0.1068 C.ar    1  UNL1        0.0213
     23 H          -5.7213    2.6177   -1.2084 H       1  UNL1        0.0242
     24 H          -5.8150    1.8489    0.4509 H       1  UNL1        0.0242
     25 H          -4.5633    3.0552    0.0704 H       1  UNL1        0.0242
     26 H          -4.7490    0.6461   -1.7860 H       1  UNL1        0.0424
     27 H          -3.4018    1.7119   -1.3850 H       1  UNL1        0.0424
     28 H          -5.4676   -0.3599    1.1730 H       1  UNL1        0.0424
     29 H          -4.0340   -1.3864    1.2847 H       1  UNL1        0.0424
     30 H          -6.0635   -2.2953   -0.0959 H       1  UNL1        0.0242
     31 H          -4.3858   -2.5507   -0.6928 H       1  UNL1        0.0242
     32 H          -5.3540   -1.2654   -1.4361 H       1  UNL1        0.0242
     33 H          -2.0941    1.2413    0.6163 H       1  UNL1        0.0426
     34 H          -2.2427   -0.4536    1.2242 H       1  UNL1        0.0426
     35 H          -1.9354   -1.2272   -1.2414 H       1  UNL1        0.0278
     36 H          -1.8645    0.4550   -1.7411 H       1  UNL1        0.0278
     37 H           0.3450   -0.5795   -1.7179 H       1  UNL1        0.0283
     38 H           0.1440   -1.2149   -0.0979 H       1  UNL1        0.0283
     39 H           0.3765    1.7427   -0.9333 H       1  UNL1        0.0495
     40 H          -0.1085    2.4071    1.0533 H       1  UNL1        0.0247
     41 H          -0.2405    0.7383    1.7980 H       1  UNL1        0.0247
     42 H           1.3151    1.5587    1.6378 H       1  UNL1        0.0247
     43 H           2.4934    1.1975   -1.2852 H       1  UNL1        0.1464
     44 H           1.4348   -0.8246    1.6675 H       1  UNL1        0.0651
     45 H           2.9331   -2.2459    2.8947 H       1  UNL1        0.0830
     46 H           7.0472   -1.9212    0.8632 H       1  UNL1        0.0653
     47 H           6.4828    0.7892   -2.4260 H       1  UNL1        0.0632
     48 H           4.1759    0.9875   -1.7867 H       1  UNL1        0.0625
@<TRIPOS>BOND
     1     1     2    1
     2     2     3    1
     3     3     4    1
     4     4     5    1
     5     3     6    1
     6     6     7    1
     7     7     8    1
     8     8     9    1
     9     9    10    1
    10     9    11    1
    11    11    12    1
    12    12    13   ar
    13    13    14   ar
    14    14    15   ar
    15    15    16   ar
    16    16    17   ar
    17    17    18   ar
    18    18    19    1
    19    18    20   ar
    20    20    21   ar
    21    21    22   ar
    22    22    12   ar
    23    22    16   ar
    24     1    23    1
    25     1    24    1
    26     1    25    1
    27     2    26    1
    28     2    27    1
    29     4    28    1
    30     4    29    1
    31     5    30    1
    32     5    31    1
    33     5    32    1
    34     6    33    1
    35     6    34    1
    36     7    35    1
    37     7    36    1
    38     8    37    1
    39     8    38    1
    40     9    39    1
    41    10    40    1
    42    10    41    1
    43    10    42    1
    44    11    43    1
    45    13    44    1
    46    14    45    1
    47    17    46    1
    48    20    47    1
    49    21    48    1
