
     RDKit          3D

 35 37  0  0  0  0  0  0  0  0999 V2000
   -4.5881    1.3461    1.4381 C   0  0  0  0  0  0  0  0  0  0  0  0
   -4.8500    0.8929    0.0883 N   0  0  0  0  0  0  0  0  0  0  0  0
   -5.9298    0.3483   -0.4914 C   0  0  0  0  0  0  0  0  0  0  0  0
   -5.6719    0.0894   -1.8169 C   0  0  0  0  0  0  0  0  0  0  0  0
   -4.3954    0.4934   -2.0345 N   0  0  0  0  0  0  0  0  0  0  0  0
   -3.8949    0.9805   -0.8827 C   0  0  0  0  0  0  0  0  0  0  0  0
   -2.2173    1.6001   -0.8360 S   0  0  0  0  0  0  0  0  0  0  0  0
   -1.0730    0.2843   -0.4003 C   0  0  0  0  0  0  0  0  0  0  0  0
    0.2764    0.5549   -0.3099 C   0  0  0  0  0  0  0  0  0  0  0  0
    1.1855   -0.4279    0.0221 C   0  0  0  0  0  0  0  0  0  0  0  0
    2.6040   -0.2158    0.1343 C   0  0  0  0  0  0  0  0  0  0  0  0
    3.3370   -1.1803    0.4428 O   0  0  0  0  0  0  0  0  0  0  0  0
    3.2771    1.0169   -0.0764 N   0  0  0  0  0  0  0  0  0  0  0  0
    4.6956    0.8529    0.1237 C   0  0  0  0  0  0  0  0  0  0  0  0
    5.5903    0.5723   -0.5656 N   0  0  0  0  0  0  0  0  0  0  0  0
    6.8627    0.4640   -0.2074 C   0  0  0  0  0  0  0  0  0  0  0  0
    7.1755    0.7063    1.1185 C   0  0  0  0  0  0  0  0  0  0  0  0
    5.5100    1.1041    1.8283 S   0  0  0  0  0  0  0  0  0  0  0  0
    0.7180   -1.7025    0.2654 C   0  0  0  0  0  0  0  0  0  0  0  0
    1.5807   -2.7802    0.6142 N   0  0  0  0  0  0  0  0  0  0  0  0
   -0.6482   -1.9939    0.1779 C   0  0  0  0  0  0  0  0  0  0  0  0
   -1.5390   -1.0012   -0.1543 C   0  0  0  0  0  0  0  0  0  0  0  0
   -2.8762   -1.2784   -0.2418 F   0  0  0  0  0  0  0  0  0  0  0  0
   -4.0519    0.5273    1.9555 H   0  0  0  0  0  0  0  0  0  0  0  0
   -5.5682    1.5587    1.8915 H   0  0  0  0  0  0  0  0  0  0  0  0
   -3.9249    2.2231    1.4307 H   0  0  0  0  0  0  0  0  0  0  0  0
   -6.8367    0.1675    0.0630 H   0  0  0  0  0  0  0  0  0  0  0  0
   -6.4285   -0.3515   -2.4464 H   0  0  0  0  0  0  0  0  0  0  0  0
    0.6284    1.5557   -0.5026 H   0  0  0  0  0  0  0  0  0  0  0  0
    2.6977    1.8501   -0.3370 H   0  0  0  0  0  0  0  0  0  0  0  0
    7.5762    0.1875   -0.9997 H   0  0  0  0  0  0  0  0  0  0  0  0
    8.2093    0.6312    1.4693 H   0  0  0  0  0  0  0  0  0  0  0  0
    1.8976   -3.1178   -0.3258 H   0  0  0  0  0  0  0  0  0  0  0  0
    1.6976   -2.9797    1.6441 H   0  0  0  0  0  0  0  0  0  0  0  0
   -1.0257   -2.9785    0.3638 H   0  0  0  0  0  0  0  0  0  0  0  0
  1  2  1  0
  2  3  1  0
  3  4  2  0
  4  5  1  0
  5  6  2  0
  6  7  1  0
  7  8  1  0
  8  9  2  0
  9 10  1  0
 10 11  1  0
 11 12  2  0
 11 13  1  0
 13 14  1  0
 14 15  2  0
 15 16  1  0
 16 17  2  0
 17 18  1  0
 10 19  2  0
 19 20  1  0
 19 21  1  0
 21 22  2  0
 22 23  1  0
  6  2  1  0
 22  8  1  0
 18 14  1  0
  1 24  1  0
  1 25  1  0
  1 26  1  0
  3 27  1  0
  4 28  1  0
  9 29  1  0
 13 30  1  0
 16 31  1  0
 17 32  1  0
 20 33  1  0
 20 34  1  0
 21 35  1  0
M  END
$$$$
