@<TRIPOS>MOLECULE
*****
 35 37 0 0 0
SMALL
GASTEIGER

@<TRIPOS>ATOM
      1 C          -4.5881    1.3461    1.4381 C.3     1  UNL1        0.0137
      2 N          -4.8500    0.8929    0.0883 N.ar    1  UNL1       -0.3284
      3 C          -5.9298    0.3483   -0.4914 C.ar    1  UNL1        0.0247
      4 C          -5.6719    0.0894   -1.8169 C.ar    1  UNL1        0.0466
      5 N          -4.3954    0.4934   -2.0345 N.ar    1  UNL1       -0.2300
      6 C          -3.8949    0.9805   -0.8827 C.ar    1  UNL1        0.1735
      7 S          -2.2173    1.6001   -0.8360 S.3     1  UNL1       -0.0488
      8 C          -1.0730    0.2843   -0.4003 C.ar    1  UNL1        0.0515
      9 C           0.2764    0.5549   -0.3099 C.ar    1  UNL1       -0.0312
     10 C           1.1855   -0.4279    0.0221 C.ar    1  UNL1        0.0589
     11 C           2.6040   -0.2158    0.1343 C.2     1  UNL1        0.2515
     12 O           3.3370   -1.1803    0.4428 O.2     1  UNL1       -0.2697
     13 N           3.2771    1.0169   -0.0764 N.am    1  UNL1       -0.2606
     14 C           4.6956    0.8529    0.1237 C.ar    1  UNL1        0.1646
     15 N           5.5903    0.5723   -0.5656 N.ar    1  UNL1       -0.2330
     16 C           6.8627    0.4640   -0.2074 C.ar    1  UNL1        0.0368
     17 C           7.1755    0.7063    1.1185 C.ar    1  UNL1       -0.0030
     18 S           5.5100    1.1041    1.8283 S.2     1  UNL1       -0.0605
     19 C           0.7180   -1.7025    0.2654 C.ar    1  UNL1        0.0396
     20 N           1.5807   -2.7802    0.6142 N.pl3   1  UNL1       -0.3573
     21 C          -0.6482   -1.9939    0.1779 C.ar    1  UNL1       -0.0039
     22 C          -1.5390   -1.0012   -0.1543 C.ar    1  UNL1        0.1389
     23 F          -2.8762   -1.2784   -0.2418 F       1  UNL1       -0.2043
     24 H          -4.0519    0.5273    1.9555 H       1  UNL1        0.0456
     25 H          -5.5682    1.5587    1.8915 H       1  UNL1        0.0456
     26 H          -3.9249    2.2231    1.4307 H       1  UNL1        0.0456
     27 H          -6.8367    0.1675    0.0630 H       1  UNL1        0.0825
     28 H          -6.4285   -0.3515   -2.4464 H       1  UNL1        0.0845
     29 H           0.6284    1.5557   -0.5026 H       1  UNL1        0.0638
     30 H           2.6977    1.8501   -0.3370 H       1  UNL1        0.1571
     31 H           7.5762    0.1875   -0.9997 H       1  UNL1        0.0835
     32 H           8.2093    0.6312    1.4693 H       1  UNL1        0.0709
     33 H           1.8976   -3.1178   -0.3258 H       1  UNL1        0.1423
     34 H           1.6976   -2.9797    1.6441 H       1  UNL1        0.1423
     35 H          -1.0257   -2.9785    0.3638 H       1  UNL1        0.0665
@<TRIPOS>BOND
     1     1     2    1
     2     2     3   ar
     3     3     4   ar
     4     4     5   ar
     5     5     6   ar
     6     6     7    1
     7     7     8    1
     8     8     9   ar
     9     9    10   ar
    10    10    11    1
    11    11    12    2
    12    11    13   am
    13    13    14    1
    14    14    15   ar
    15    15    16   ar
    16    16    17   ar
    17    17    18   ar
    18    10    19   ar
    19    19    20    1
    20    19    21   ar
    21    21    22   ar
    22    22    23    1
    23     6     2   ar
    24    22     8   ar
    25    18    14   ar
    26     1    24    1
    27     1    25    1
    28     1    26    1
    29     3    27    1
    30     4    28    1
    31     9    29    1
    32    13    30    1
    33    16    31    1
    34    17    32    1
    35    20    33    1
    36    20    34    1
    37    21    35    1
