@<TRIPOS>MOLECULE
*****
 53 56 0 0 0
SMALL
GASTEIGER

@<TRIPOS>ATOM
      1 C           4.3887   -0.8047    1.8052 C.3     1  UNL1       -0.0130
      2 N           4.7626   -1.0873    0.4537 N.3     1  UNL1       -0.3083
      3 C           4.8774   -2.5281    0.3171 C.3     1  UNL1       -0.0130
      4 C           3.8316   -0.6160   -0.5238 C.3     1  UNL1       -0.0001
      5 C           2.5227   -1.3831   -0.4566 C.3     1  UNL1       -0.0221
      6 C           1.5339   -0.9057   -1.4704 C.3     1  UNL1        0.0259
      7 N           1.1969    0.4979   -1.3032 N.ar    1  UNL1       -0.3295
      8 C           1.8172    1.5419   -1.8747 C.ar    1  UNL1        0.0971
      9 N           1.1823    2.6315   -1.4466 N.ar    1  UNL1       -0.2351
     10 C           0.1676    2.2947   -0.6114 C.ar    1  UNL1        0.0967
     11 C          -0.7597    3.2158    0.0585 C.ar    1  UNL1        0.0026
     12 C          -0.6762    3.3390    1.4140 C.ar    1  UNL1       -0.0498
     13 C          -1.5353    4.1964    2.1061 C.ar    1  UNL1       -0.0258
     14 C          -2.4728    4.9206    1.4005 C.ar    1  UNL1        0.1234
     15 F          -3.2934    5.7472    2.0953 F       1  UNL1       -0.2055
     16 C          -2.5435    4.7849    0.0352 C.ar    1  UNL1       -0.0258
     17 C          -1.6963    3.9393   -0.6456 C.ar    1  UNL1       -0.0498
     18 C           0.1677    0.9230   -0.5117 C.ar    1  UNL1        0.0778
     19 C          -0.7182    0.0582    0.2632 C.ar    1  UNL1        0.0173
     20 C          -0.6053   -0.0839    1.6316 C.ar    1  UNL1       -0.0477
     21 C          -1.4497   -0.8924    2.3566 C.ar    1  UNL1       -0.0182
     22 C          -2.4341   -1.5738    1.6723 C.ar    1  UNL1        0.1381
     23 N          -3.3873   -2.4148    2.0785 N.ar    1  UNL1       -0.2353
     24 C          -4.1011   -2.8138    1.0295 C.ar    1  UNL1        0.0588
     25 C          -3.5911   -2.2075   -0.1041 C.ar    1  UNL1        0.1280
     26 C          -4.0728   -2.3646   -1.4594 C.2     1  UNL1        0.2599
     27 N          -5.1834   -3.2062   -1.7089 N.am    1  UNL1       -0.3241
     28 O          -3.5203   -1.7675   -2.4011 O.2     1  UNL1       -0.2687
     29 N          -2.5625   -1.4502    0.3375 N.ar    1  UNL1       -0.2949
     30 C          -1.7213   -0.6496   -0.3572 C.ar    1  UNL1        0.0211
     31 H           3.7737    0.1115    1.9144 H       1  UNL1        0.0391
     32 H           3.9321   -1.6900    2.2738 H       1  UNL1        0.0391
     33 H           5.3349   -0.6006    2.3679 H       1  UNL1        0.0391
     34 H           4.0082   -2.9581    0.8920 H       1  UNL1        0.0391
     35 H           5.8276   -2.9148    0.7573 H       1  UNL1        0.0391
     36 H           4.7607   -2.7720   -0.7507 H       1  UNL1        0.0391
     37 H           3.6465    0.4837   -0.4424 H       1  UNL1        0.0427
     38 H           4.2384   -0.7731   -1.5436 H       1  UNL1        0.0427
     39 H           2.7459   -2.4452   -0.6821 H       1  UNL1        0.0295
     40 H           2.0561   -1.3530    0.5311 H       1  UNL1        0.0295
     41 H           1.8689   -1.1069   -2.5263 H       1  UNL1        0.0492
     42 H           0.5984   -1.4838   -1.3530 H       1  UNL1        0.0492
     43 H           2.6773    1.4529   -2.5554 H       1  UNL1        0.1029
     44 H           0.0329    2.8070    2.0118 H       1  UNL1        0.0625
     45 H          -1.4694    4.2929    3.1708 H       1  UNL1        0.0646
     46 H          -3.2827    5.3567   -0.5244 H       1  UNL1        0.0646
     47 H          -1.7539    3.8358   -1.7117 H       1  UNL1        0.0625
     48 H           0.1725    0.4497    2.1567 H       1  UNL1        0.0626
     49 H          -1.3525   -0.9929    3.4071 H       1  UNL1        0.0654
     50 H          -4.9375   -3.4967    1.0662 H       1  UNL1        0.0853
     51 H          -6.1318   -2.7788   -1.9305 H       1  UNL1        0.1453
     52 H          -5.0640   -4.2283   -1.6741 H       1  UNL1        0.1453
     53 H          -1.8065   -0.5370   -1.4232 H       1  UNL1        0.0820
@<TRIPOS>BOND
     1     1     2    1
     2     2     3    1
     3     2     4    1
     4     4     5    1
     5     5     6    1
     6     6     7    1
     7     7     8   ar
     8     8     9   ar
     9     9    10   ar
    10    10    11    1
    11    11    12   ar
    12    12    13   ar
    13    13    14   ar
    14    14    15    1
    15    14    16   ar
    16    16    17   ar
    17    10    18   ar
    18    18    19    1
    19    19    20   ar
    20    20    21   ar
    21    21    22   ar
    22    22    23   ar
    23    23    24   ar
    24    24    25   ar
    25    25    26    1
    26    26    27   am
    27    26    28    2
    28    25    29   ar
    29    29    30   ar
    30    18     7   ar
    31    30    19   ar
    32    17    11   ar
    33    29    22   ar
    34     1    31    1
    35     1    32    1
    36     1    33    1
    37     3    34    1
    38     3    35    1
    39     3    36    1
    40     4    37    1
    41     4    38    1
    42     5    39    1
    43     5    40    1
    44     6    41    1
    45     6    42    1
    46     8    43    1
    47    12    44    1
    48    13    45    1
    49    16    46    1
    50    17    47    1
    51    20    48    1
    52    21    49    1
    53    24    50    1
    54    27    51    1
    55    27    52    1
    56    30    53    1
