
     RDKit          3D

 53 56  0  0  0  0  0  0  0  0999 V2000
    4.3887   -0.8047    1.8052 C   0  0  0  0  0  0  0  0  0  0  0  0
    4.7626   -1.0873    0.4537 N   0  0  0  0  0  0  0  0  0  0  0  0
    4.8774   -2.5281    0.3171 C   0  0  0  0  0  0  0  0  0  0  0  0
    3.8316   -0.6160   -0.5238 C   0  0  0  0  0  0  0  0  0  0  0  0
    2.5227   -1.3831   -0.4566 C   0  0  0  0  0  0  0  0  0  0  0  0
    1.5339   -0.9057   -1.4704 C   0  0  0  0  0  0  0  0  0  0  0  0
    1.1969    0.4979   -1.3032 N   0  0  0  0  0  0  0  0  0  0  0  0
    1.8172    1.5419   -1.8747 C   0  0  0  0  0  0  0  0  0  0  0  0
    1.1823    2.6315   -1.4466 N   0  0  0  0  0  0  0  0  0  0  0  0
    0.1676    2.2947   -0.6114 C   0  0  0  0  0  0  0  0  0  0  0  0
   -0.7597    3.2158    0.0585 C   0  0  0  0  0  0  0  0  0  0  0  0
   -0.6762    3.3390    1.4140 C   0  0  0  0  0  0  0  0  0  0  0  0
   -1.5353    4.1964    2.1061 C   0  0  0  0  0  0  0  0  0  0  0  0
   -2.4728    4.9206    1.4005 C   0  0  0  0  0  0  0  0  0  0  0  0
   -3.2934    5.7472    2.0953 F   0  0  0  0  0  0  0  0  0  0  0  0
   -2.5435    4.7849    0.0352 C   0  0  0  0  0  0  0  0  0  0  0  0
   -1.6963    3.9393   -0.6456 C   0  0  0  0  0  0  0  0  0  0  0  0
    0.1677    0.9230   -0.5117 C   0  0  0  0  0  0  0  0  0  0  0  0
   -0.7182    0.0582    0.2632 C   0  0  0  0  0  0  0  0  0  0  0  0
   -0.6053   -0.0839    1.6316 C   0  0  0  0  0  0  0  0  0  0  0  0
   -1.4497   -0.8924    2.3566 C   0  0  0  0  0  0  0  0  0  0  0  0
   -2.4341   -1.5738    1.6723 C   0  0  0  0  0  0  0  0  0  0  0  0
   -3.3873   -2.4148    2.0785 N   0  0  0  0  0  0  0  0  0  0  0  0
   -4.1011   -2.8138    1.0295 C   0  0  0  0  0  0  0  0  0  0  0  0
   -3.5911   -2.2075   -0.1041 C   0  0  0  0  0  0  0  0  0  0  0  0
   -4.0728   -2.3646   -1.4594 C   0  0  0  0  0  0  0  0  0  0  0  0
   -5.1834   -3.2062   -1.7089 N   0  0  0  0  0  0  0  0  0  0  0  0
   -3.5203   -1.7675   -2.4011 O   0  0  0  0  0  0  0  0  0  0  0  0
   -2.5625   -1.4502    0.3375 N   0  0  0  0  0  0  0  0  0  0  0  0
   -1.7213   -0.6496   -0.3572 C   0  0  0  0  0  0  0  0  0  0  0  0
    3.7737    0.1115    1.9144 H   0  0  0  0  0  0  0  0  0  0  0  0
    3.9321   -1.6900    2.2738 H   0  0  0  0  0  0  0  0  0  0  0  0
    5.3349   -0.6006    2.3679 H   0  0  0  0  0  0  0  0  0  0  0  0
    4.0082   -2.9581    0.8920 H   0  0  0  0  0  0  0  0  0  0  0  0
    5.8276   -2.9148    0.7573 H   0  0  0  0  0  0  0  0  0  0  0  0
    4.7607   -2.7720   -0.7507 H   0  0  0  0  0  0  0  0  0  0  0  0
    3.6465    0.4837   -0.4424 H   0  0  0  0  0  0  0  0  0  0  0  0
    4.2384   -0.7731   -1.5436 H   0  0  0  0  0  0  0  0  0  0  0  0
    2.7459   -2.4452   -0.6821 H   0  0  0  0  0  0  0  0  0  0  0  0
    2.0561   -1.3530    0.5311 H   0  0  0  0  0  0  0  0  0  0  0  0
    1.8689   -1.1069   -2.5263 H   0  0  0  0  0  0  0  0  0  0  0  0
    0.5984   -1.4838   -1.3530 H   0  0  0  0  0  0  0  0  0  0  0  0
    2.6773    1.4529   -2.5554 H   0  0  0  0  0  0  0  0  0  0  0  0
    0.0329    2.8070    2.0118 H   0  0  0  0  0  0  0  0  0  0  0  0
   -1.4694    4.2929    3.1708 H   0  0  0  0  0  0  0  0  0  0  0  0
   -3.2827    5.3567   -0.5244 H   0  0  0  0  0  0  0  0  0  0  0  0
   -1.7539    3.8358   -1.7117 H   0  0  0  0  0  0  0  0  0  0  0  0
    0.1725    0.4497    2.1567 H   0  0  0  0  0  0  0  0  0  0  0  0
   -1.3525   -0.9929    3.4071 H   0  0  0  0  0  0  0  0  0  0  0  0
   -4.9375   -3.4967    1.0662 H   0  0  0  0  0  0  0  0  0  0  0  0
   -6.1318   -2.7788   -1.9305 H   0  0  0  0  0  0  0  0  0  0  0  0
   -5.0640   -4.2283   -1.6741 H   0  0  0  0  0  0  0  0  0  0  0  0
   -1.8065   -0.5370   -1.4232 H   0  0  0  0  0  0  0  0  0  0  0  0
  1  2  1  0
  2  3  1  0
  2  4  1  0
  4  5  1  0
  5  6  1  0
  6  7  1  0
  7  8  1  0
  8  9  2  0
  9 10  1  0
 10 11  1  0
 11 12  2  0
 12 13  1  0
 13 14  2  0
 14 15  1  0
 14 16  1  0
 16 17  2  0
 10 18  2  0
 18 19  1  0
 19 20  1  0
 20 21  2  0
 21 22  1  0
 22 23  2  0
 23 24  1  0
 24 25  2  0
 25 26  1  0
 26 27  1  0
 26 28  2  0
 25 29  1  0
 29 30  1  0
 18  7  1  0
 30 19  2  0
 17 11  1  0
 29 22  1  0
  1 31  1  0
  1 32  1  0
  1 33  1  0
  3 34  1  0
  3 35  1  0
  3 36  1  0
  4 37  1  0
  4 38  1  0
  5 39  1  0
  5 40  1  0
  6 41  1  0
  6 42  1  0
  8 43  1  0
 12 44  1  0
 13 45  1  0
 16 46  1  0
 17 47  1  0
 20 48  1  0
 21 49  1  0
 24 50  1  0
 27 51  1  0
 27 52  1  0
 30 53  1  0
M  END
$$$$
