@<TRIPOS>MOLECULE
*****
 57 60 0 0 0
SMALL
GASTEIGER

@<TRIPOS>ATOM
      1 C           3.9904   -2.1589    1.8460 C.3     1  UNL1        0.0788
      2 O           3.2960   -1.4167    0.8772 O.3     1  UNL1       -0.4944
      3 C           3.7544   -1.3239   -0.4280 C.ar    1  UNL1        0.1322
      4 C           4.9423   -2.0070   -0.7282 C.ar    1  UNL1       -0.0192
      5 C           5.4470   -1.9550   -1.9983 C.ar    1  UNL1       -0.0583
      6 C           4.7912   -1.2361   -2.9736 C.ar    1  UNL1       -0.0608
      7 C           3.6481   -0.5901   -2.6472 C.ar    1  UNL1       -0.0461
      8 C           3.0860   -0.6080   -1.3660 C.ar    1  UNL1        0.0786
      9 C           1.8551    0.1150   -1.1020 C.2     1  UNL1        0.2518
     10 O           1.3486    0.7453   -2.1111 O.2     1  UNL1       -0.2697
     11 N           1.1638    0.2020    0.1177 N.am    1  UNL1       -0.2798
     12 C          -0.0609    0.9556    0.2492 C.ar    1  UNL1        0.0570
     13 C           0.0247    2.2967    0.5168 C.ar    1  UNL1       -0.0130
     14 C          -1.1262    3.0370    0.6605 C.ar    1  UNL1        0.0714
     15 C          -2.3855    2.4816    0.5456 C.ar    1  UNL1        0.0714
     16 C          -2.4357    1.1355    0.2773 C.ar    1  UNL1       -0.0131
     17 C          -1.2883    0.3520    0.1251 C.ar    1  UNL1        0.0536
     18 N          -1.4231   -1.0242   -0.1402 N.pl3   1  UNL1       -0.3232
     19 C          -0.9327   -1.5802   -1.3807 C.3     1  UNL1        0.0251
     20 C          -1.9549   -2.5787   -1.9604 C.3     1  UNL1        0.0117
     21 N          -2.1888   -3.6626   -1.0382 N.3     1  UNL1       -0.3127
     22 C          -1.6276   -3.3738    0.2763 C.3     1  UNL1        0.0143
     23 C          -2.0346   -1.9888    0.7487 C.3     1  UNL1        0.0333
     24 C          -1.7084   -1.7992    2.1839 C.3     1  UNL1       -0.0453
     25 N          -3.3290    3.4433    0.7338 N.ar    1  UNL1       -0.2950
     26 C          -4.7661    3.2451    0.6903 C.3     1  UNL1        0.0167
     27 C          -2.6469    4.5889    0.9643 C.ar    1  UNL1        0.3297
     28 O          -3.2064    5.6889    1.1815 O.2     1  UNL1       -0.2463
     29 N          -1.3266    4.3465    0.9206 N.ar    1  UNL1       -0.2950
     30 C          -0.2311    5.2912    1.1122 C.3     1  UNL1        0.0167
     31 H           3.5154   -2.1411    2.8264 H       1  UNL1        0.0660
     32 H           4.0080   -3.2196    1.4876 H       1  UNL1        0.0660
     33 H           5.0505   -1.8495    1.9137 H       1  UNL1        0.0660
     34 H           5.4479   -2.5614    0.0251 H       1  UNL1        0.0654
     35 H           6.3658   -2.4675   -2.2836 H       1  UNL1        0.0619
     36 H           5.2244   -1.2161   -3.9830 H       1  UNL1        0.0618
     37 H           3.1196   -0.0158   -3.4158 H       1  UNL1        0.0626
     38 H           1.5208   -0.2734    0.9442 H       1  UNL1        0.1552
     39 H           1.0111    2.7553    0.6116 H       1  UNL1        0.0658
     40 H          -3.4302    0.6826    0.1837 H       1  UNL1        0.0658
     41 H          -0.9178   -0.7673   -2.1341 H       1  UNL1        0.0476
     42 H           0.0365   -2.1021   -1.2514 H       1  UNL1        0.0476
     43 H          -1.5313   -2.9882   -2.8835 H       1  UNL1        0.0439
     44 H          -2.8890   -2.0434   -2.2230 H       1  UNL1        0.0439
     45 H          -3.2227   -3.7346   -0.9082 H       1  UNL1        0.1221
     46 H          -1.9339   -4.1355    1.0209 H       1  UNL1        0.0442
     47 H          -0.5256   -3.4636    0.1680 H       1  UNL1        0.0442
     48 H          -3.1513   -1.9442    0.5957 H       1  UNL1        0.0509
     49 H          -2.6231   -2.0775    2.7818 H       1  UNL1        0.0248
     50 H          -0.9328   -2.5272    2.4821 H       1  UNL1        0.0248
     51 H          -1.4777   -0.7608    2.4774 H       1  UNL1        0.0248
     52 H          -5.0538    2.5013    1.4617 H       1  UNL1        0.0457
     53 H          -5.2710    4.2086    0.7777 H       1  UNL1        0.0457
     54 H          -5.0388    2.7850   -0.2939 H       1  UNL1        0.0457
     55 H          -0.5204    6.2080    0.5246 H       1  UNL1        0.0457
     56 H           0.7203    4.8930    0.7632 H       1  UNL1        0.0457
     57 H          -0.1755    5.6336    2.1775 H       1  UNL1        0.0457
@<TRIPOS>BOND
     1     1     2    1
     2     2     3    1
     3     3     4   ar
     4     4     5   ar
     5     5     6   ar
     6     6     7   ar
     7     7     8   ar
     8     8     9    1
     9     9    10    2
    10     9    11   am
    11    11    12    1
    12    12    13   ar
    13    13    14   ar
    14    14    15   ar
    15    15    16   ar
    16    16    17   ar
    17    17    18    1
    18    18    19    1
    19    19    20    1
    20    20    21    1
    21    21    22    1
    22    22    23    1
    23    23    24    1
    24    15    25   ar
    25    25    26    1
    26    25    27   ar
    27    27    28    2
    28    27    29   ar
    29    29    30    1
    30     8     3   ar
    31    17    12   ar
    32    23    18    1
    33    29    14   ar
    34     1    31    1
    35     1    32    1
    36     1    33    1
    37     4    34    1
    38     5    35    1
    39     6    36    1
    40     7    37    1
    41    11    38    1
    42    13    39    1
    43    16    40    1
    44    19    41    1
    45    19    42    1
    46    20    43    1
    47    20    44    1
    48    21    45    1
    49    22    46    1
    50    22    47    1
    51    23    48    1
    52    24    49    1
    53    24    50    1
    54    24    51    1
    55    26    52    1
    56    26    53    1
    57    26    54    1
    58    30    55    1
    59    30    56    1
    60    30    57    1
