@<TRIPOS>MOLECULE
*****
 67 65 0 0 0
SMALL
GASTEIGER

@<TRIPOS>ATOM
      1 MG          0.0000    0.0000    0.0000 Mg      1  UNL1        0.0000
      2 C          -1.4714   -0.4335   -1.0662 C.3     2  UNL2        0.0000
      3 N          -0.4864    0.0270   -0.0746 N.4     2  UNL2        1.0000
      4 C          -0.5885   -0.8250    1.0711 C.3     2  UNL2        0.0000
      5 C          -0.9506    1.3446    0.3267 C.3     2  UNL2        0.0000
      6 C           0.7667    0.1133   -0.7190 C.3     2  UNL2        0.0000
      7 C           1.9269   -0.5389   -0.0223 C.3     2  UNL2        0.0000
      8 O           2.1394    0.0214    1.2484 O.3     2  UNL2        0.0000
      9 O          -1.0492   -2.0772    0.2935 O.3     3  UNL3        0.0000
     10 C          -0.1716   -0.9960    0.0875 C.ar    3  UNL3        0.0000
     11 C           1.1975   -1.1558    0.0236 C.ar    3  UNL3        0.0000
     12 C           2.0151   -0.0568   -0.1811 C.ar    3  UNL3        0.0000
     13 C           1.4911    1.2305   -0.3276 C.ar    3  UNL3        0.0000
     14 C           0.1142    1.2936   -0.2498 C.ar    3  UNL3        0.0000
     15 C          -0.7614    0.2453   -0.0485 C.ar    3  UNL3        0.0000
     16 C          -2.1943    0.5208    0.0033 C.2     3  UNL3        0.0000
     17 O          -3.0910   -0.5159    0.2042 O.co2   3  UNL3       -0.5000
     18 O          -2.7115    1.6461   -0.1211 O.co2   3  UNL3       -0.5000
     19 O          -1.0492   -2.0772    0.2935 O.3     4  UNL4        0.0000
     20 C          -0.1716   -0.9960    0.0875 C.ar    4  UNL4        0.0000
     21 C           1.1975   -1.1558    0.0236 C.ar    4  UNL4        0.0000
     22 C           2.0151   -0.0568   -0.1811 C.ar    4  UNL4        0.0000
     23 C           1.4911    1.2305   -0.3276 C.ar    4  UNL4        0.0000
     24 C           0.1142    1.2936   -0.2498 C.ar    4  UNL4        0.0000
     25 C          -0.7614    0.2453   -0.0485 C.ar    4  UNL4        0.0000
     26 C          -2.1943    0.5208    0.0033 C.2     4  UNL4        0.0000
     27 O          -3.0910   -0.5159    0.2042 O.co2   4  UNL4       -0.5000
     28 O          -2.7115    1.6461   -0.1211 O.co2   4  UNL4       -0.5000
     29 O          -1.0492   -2.0772    0.2935 O.3     5  UNL5        0.0000
     30 C          -0.1716   -0.9960    0.0875 C.ar    5  UNL5        0.0000
     31 C           1.1975   -1.1558    0.0236 C.ar    5  UNL5        0.0000
     32 C           2.0151   -0.0568   -0.1811 C.ar    5  UNL5        0.0000
     33 C           1.4911    1.2305   -0.3276 C.ar    5  UNL5        0.0000
     34 C           0.1142    1.2936   -0.2498 C.ar    5  UNL5        0.0000
     35 C          -0.7614    0.2453   -0.0485 C.ar    5  UNL5        0.0000
     36 C          -2.1943    0.5208    0.0033 C.2     5  UNL5        0.0000
     37 O          -3.0910   -0.5159    0.2042 O.co2   5  UNL5       -0.5000
     38 O          -2.7115    1.6461   -0.1211 O.co2   5  UNL5       -0.5000
     39 H          -1.1991   -1.4293   -1.4527 H       2  UNL2        0.0000
     40 H          -2.4922   -0.3416   -0.6981 H       2  UNL2        0.0000
     41 H          -1.3242    0.2705   -1.9284 H       2  UNL2        0.0000
     42 H          -0.1309   -1.8065    1.0051 H       2  UNL2        0.0000
     43 H          -0.3124   -0.2500    1.9806 H       2  UNL2        0.0000
     44 H          -1.6947   -1.0251    1.1928 H       2  UNL2        0.0000
     45 H          -0.0630    1.8359    0.7834 H       2  UNL2        0.0000
     46 H          -1.3294    1.9181   -0.5259 H       2  UNL2        0.0000
     47 H          -1.7411    1.2369    1.1121 H       2  UNL2        0.0000
     48 H           0.7508   -0.3198   -1.7588 H       2  UNL2        0.0000
     49 H           1.0731    1.1768   -0.9020 H       2  UNL2        0.0000
     50 H           2.8350   -0.3042   -0.6191 H       2  UNL2        0.0000
     51 H           1.8587   -1.6383   -0.0065 H       2  UNL2        0.0000
     52 H           2.4335    0.9675    1.0534 H       2  UNL2        0.0000
     53 H          -1.3208   -2.2196    1.2634 H       3  UNL3        0.0000
     54 H           1.6170   -2.1527    0.1362 H       3  UNL3        0.0000
     55 H           3.0900   -0.1551   -0.2350 H       3  UNL3        0.0000
     56 H           2.0871    2.0979   -0.4861 H       3  UNL3        0.0000
     57 H          -0.3122    2.2948   -0.3626 H       3  UNL3        0.0000
     58 H          -1.3208   -2.2196    1.2634 H       4  UNL4        0.0000
     59 H           1.6170   -2.1527    0.1362 H       4  UNL4        0.0000
     60 H           3.0900   -0.1551   -0.2350 H       4  UNL4        0.0000
     61 H           2.0871    2.0979   -0.4861 H       4  UNL4        0.0000
     62 H          -0.3122    2.2948   -0.3626 H       4  UNL4        0.0000
     63 H          -1.3208   -2.2196    1.2634 H       5  UNL5        0.0000
     64 H           1.6170   -2.1527    0.1362 H       5  UNL5        0.0000
     65 H           3.0900   -0.1551   -0.2350 H       5  UNL5        0.0000
     66 H           2.0871    2.0979   -0.4861 H       5  UNL5        0.0000
     67 H          -0.3122    2.2948   -0.3626 H       5  UNL5        0.0000
@<TRIPOS>UNITY_ATOM_ATTR
1 1
charge 2
3 1
charge 1
17 1
charge -1
27 1
charge -1
37 1
charge -1
@<TRIPOS>BOND
     1     2     3    1
     2     3     4    1
     3     3     5    1
     4     3     6    1
     5     6     7    1
     6     7     8    1
     7     9    10    1
     8    10    11   ar
     9    11    12   ar
    10    12    13   ar
    11    13    14   ar
    12    14    15   ar
    13    15    16    1
    14    16    17   ar
    15    16    18   ar
    16    19    20    1
    17    20    21   ar
    18    21    22   ar
    19    22    23   ar
    20    23    24   ar
    21    24    25   ar
    22    25    26    1
    23    26    27   ar
    24    26    28   ar
    25    29    30    1
    26    30    31   ar
    27    31    32   ar
    28    32    33   ar
    29    33    34   ar
    30    34    35   ar
    31    35    36    1
    32    36    37   ar
    33    36    38   ar
    34    15    10   ar
    35    25    20   ar
    36    35    30   ar
    37     2    39    1
    38     2    40    1
    39     2    41    1
    40     4    42    1
    41     4    43    1
    42     4    44    1
    43     5    45    1
    44     5    46    1
    45     5    47    1
    46     6    48    1
    47     6    49    1
    48     7    50    1
    49     7    51    1
    50     8    52    1
    51     9    53    1
    52    11    54    1
    53    12    55    1
    54    13    56    1
    55    14    57    1
    56    19    58    1
    57    21    59    1
    58    22    60    1
    59    23    61    1
    60    24    62    1
    61    29    63    1
    62    31    64    1
    63    32    65    1
    64    33    66    1
    65    34    67    1
