
     RDKit          3D

 67 65  0  0  0  0  0  0  0  0999 V2000
    0.0000    0.0000    0.0000 Mg  0  0  0  0  0 15  0  0  0  0  0  0
   -1.4714   -0.4335   -1.0662 C   0  0  0  0  0  0  0  0  0  0  0  0
   -0.4864    0.0270   -0.0746 N   0  0  0  0  0  4  0  0  0  0  0  0
   -0.5885   -0.8250    1.0711 C   0  0  0  0  0  0  0  0  0  0  0  0
   -0.9506    1.3446    0.3267 C   0  0  0  0  0  0  0  0  0  0  0  0
    0.7667    0.1133   -0.7190 C   0  0  0  0  0  0  0  0  0  0  0  0
    1.9269   -0.5389   -0.0223 C   0  0  0  0  0  0  0  0  0  0  0  0
    2.1394    0.0214    1.2484 O   0  0  0  0  0  0  0  0  0  0  0  0
   -1.0492   -2.0772    0.2935 O   0  0  0  0  0  0  0  0  0  0  0  0
   -0.1716   -0.9960    0.0875 C   0  0  0  0  0  0  0  0  0  0  0  0
    1.1975   -1.1558    0.0236 C   0  0  0  0  0  0  0  0  0  0  0  0
    2.0151   -0.0568   -0.1811 C   0  0  0  0  0  0  0  0  0  0  0  0
    1.4911    1.2305   -0.3276 C   0  0  0  0  0  0  0  0  0  0  0  0
    0.1142    1.2936   -0.2498 C   0  0  0  0  0  0  0  0  0  0  0  0
   -0.7614    0.2453   -0.0485 C   0  0  0  0  0  0  0  0  0  0  0  0
   -2.1943    0.5208    0.0033 C   0  0  0  0  0  0  0  0  0  0  0  0
   -3.0910   -0.5159    0.2042 O   0  0  0  0  0  1  0  0  0  0  0  0
   -2.7115    1.6461   -0.1211 O   0  0  0  0  0  0  0  0  0  0  0  0
   -1.0492   -2.0772    0.2935 O   0  0  0  0  0  0  0  0  0  0  0  0
   -0.1716   -0.9960    0.0875 C   0  0  0  0  0  0  0  0  0  0  0  0
    1.1975   -1.1558    0.0236 C   0  0  0  0  0  0  0  0  0  0  0  0
    2.0151   -0.0568   -0.1811 C   0  0  0  0  0  0  0  0  0  0  0  0
    1.4911    1.2305   -0.3276 C   0  0  0  0  0  0  0  0  0  0  0  0
    0.1142    1.2936   -0.2498 C   0  0  0  0  0  0  0  0  0  0  0  0
   -0.7614    0.2453   -0.0485 C   0  0  0  0  0  0  0  0  0  0  0  0
   -2.1943    0.5208    0.0033 C   0  0  0  0  0  0  0  0  0  0  0  0
   -3.0910   -0.5159    0.2042 O   0  0  0  0  0  1  0  0  0  0  0  0
   -2.7115    1.6461   -0.1211 O   0  0  0  0  0  0  0  0  0  0  0  0
   -1.0492   -2.0772    0.2935 O   0  0  0  0  0  0  0  0  0  0  0  0
   -0.1716   -0.9960    0.0875 C   0  0  0  0  0  0  0  0  0  0  0  0
    1.1975   -1.1558    0.0236 C   0  0  0  0  0  0  0  0  0  0  0  0
    2.0151   -0.0568   -0.1811 C   0  0  0  0  0  0  0  0  0  0  0  0
    1.4911    1.2305   -0.3276 C   0  0  0  0  0  0  0  0  0  0  0  0
    0.1142    1.2936   -0.2498 C   0  0  0  0  0  0  0  0  0  0  0  0
   -0.7614    0.2453   -0.0485 C   0  0  0  0  0  0  0  0  0  0  0  0
   -2.1943    0.5208    0.0033 C   0  0  0  0  0  0  0  0  0  0  0  0
   -3.0910   -0.5159    0.2042 O   0  0  0  0  0  1  0  0  0  0  0  0
   -2.7115    1.6461   -0.1211 O   0  0  0  0  0  0  0  0  0  0  0  0
   -1.1991   -1.4293   -1.4527 H   0  0  0  0  0  0  0  0  0  0  0  0
   -2.4922   -0.3416   -0.6981 H   0  0  0  0  0  0  0  0  0  0  0  0
   -1.3242    0.2705   -1.9284 H   0  0  0  0  0  0  0  0  0  0  0  0
   -0.1309   -1.8065    1.0051 H   0  0  0  0  0  0  0  0  0  0  0  0
   -0.3124   -0.2500    1.9806 H   0  0  0  0  0  0  0  0  0  0  0  0
   -1.6947   -1.0251    1.1928 H   0  0  0  0  0  0  0  0  0  0  0  0
   -0.0630    1.8359    0.7834 H   0  0  0  0  0  0  0  0  0  0  0  0
   -1.3294    1.9181   -0.5259 H   0  0  0  0  0  0  0  0  0  0  0  0
   -1.7411    1.2369    1.1121 H   0  0  0  0  0  0  0  0  0  0  0  0
    0.7508   -0.3198   -1.7588 H   0  0  0  0  0  0  0  0  0  0  0  0
    1.0731    1.1768   -0.9020 H   0  0  0  0  0  0  0  0  0  0  0  0
    2.8350   -0.3042   -0.6191 H   0  0  0  0  0  0  0  0  0  0  0  0
    1.8587   -1.6383   -0.0065 H   0  0  0  0  0  0  0  0  0  0  0  0
    2.4335    0.9675    1.0534 H   0  0  0  0  0  0  0  0  0  0  0  0
   -1.3208   -2.2196    1.2634 H   0  0  0  0  0  0  0  0  0  0  0  0
    1.6170   -2.1527    0.1362 H   0  0  0  0  0  0  0  0  0  0  0  0
    3.0900   -0.1551   -0.2350 H   0  0  0  0  0  0  0  0  0  0  0  0
    2.0871    2.0979   -0.4861 H   0  0  0  0  0  0  0  0  0  0  0  0
   -0.3122    2.2948   -0.3626 H   0  0  0  0  0  0  0  0  0  0  0  0
   -1.3208   -2.2196    1.2634 H   0  0  0  0  0  0  0  0  0  0  0  0
    1.6170   -2.1527    0.1362 H   0  0  0  0  0  0  0  0  0  0  0  0
    3.0900   -0.1551   -0.2350 H   0  0  0  0  0  0  0  0  0  0  0  0
    2.0871    2.0979   -0.4861 H   0  0  0  0  0  0  0  0  0  0  0  0
   -0.3122    2.2948   -0.3626 H   0  0  0  0  0  0  0  0  0  0  0  0
   -1.3208   -2.2196    1.2634 H   0  0  0  0  0  0  0  0  0  0  0  0
    1.6170   -2.1527    0.1362 H   0  0  0  0  0  0  0  0  0  0  0  0
    3.0900   -0.1551   -0.2350 H   0  0  0  0  0  0  0  0  0  0  0  0
    2.0871    2.0979   -0.4861 H   0  0  0  0  0  0  0  0  0  0  0  0
   -0.3122    2.2948   -0.3626 H   0  0  0  0  0  0  0  0  0  0  0  0
  2  3  1  0
  3  4  1  0
  3  5  1  0
  3  6  1  0
  6  7  1  0
  7  8  1  0
  9 10  1  0
 10 11  2  0
 11 12  1  0
 12 13  2  0
 13 14  1  0
 14 15  2  0
 15 16  1  0
 16 17  1  0
 16 18  2  0
 19 20  1  0
 20 21  2  0
 21 22  1  0
 22 23  2  0
 23 24  1  0
 24 25  2  0
 25 26  1  0
 26 27  1  0
 26 28  2  0
 29 30  1  0
 30 31  2  0
 31 32  1  0
 32 33  2  0
 33 34  1  0
 34 35  2  0
 35 36  1  0
 36 37  1  0
 36 38  2  0
 15 10  1  0
 25 20  1  0
 35 30  1  0
  2 39  1  0
  2 40  1  0
  2 41  1  0
  4 42  1  0
  4 43  1  0
  4 44  1  0
  5 45  1  0
  5 46  1  0
  5 47  1  0
  6 48  1  0
  6 49  1  0
  7 50  1  0
  7 51  1  0
  8 52  1  0
  9 53  1  0
 11 54  1  0
 12 55  1  0
 13 56  1  0
 14 57  1  0
 19 58  1  0
 21 59  1  0
 22 60  1  0
 23 61  1  0
 24 62  1  0
 29 63  1  0
 31 64  1  0
 32 65  1  0
 33 66  1  0
 34 67  1  0
M  CHG  5   1   2   3   1  17  -1  27  -1  37  -1
M  END
$$$$
