@<TRIPOS>MOLECULE
*****
 41 44 0 0 0
SMALL
GASTEIGER

@<TRIPOS>ATOM
      1 C           4.3966   -1.6860    0.3930 C.3     1  UNL1       -0.0127
      2 N           2.9855   -1.5962    0.2467 N.3     1  UNL1       -0.3047
      3 C           2.2398   -1.3669    1.4436 C.3     1  UNL1        0.0023
      4 C           1.5865   -0.0060    1.4056 C.3     1  UNL1       -0.0180
      5 C           0.6254    0.0636    0.3091 C.2     1  UNL1       -0.0588
      6 C           1.4972    0.0263   -0.8912 C.3     1  UNL1       -0.0180
      7 C           2.4636   -1.1014   -0.9490 C.3     1  UNL1        0.0023
      8 C          -0.6967    0.2233    0.3567 C.2     1  UNL1       -0.0100
      9 C          -1.3153    0.3579    1.6840 C.ar    1  UNL1        0.0002
     10 C          -2.3450    1.4085    1.8091 C.ar    1  UNL1        0.0626
     11 S          -2.8124    1.2648    3.6237 S.2     1  UNL1       -0.0931
     12 C          -1.6036   -0.1525    3.9844 C.ar    1  UNL1       -0.0231
     13 C          -0.9939   -0.3636    2.7443 C.ar    1  UNL1       -0.0463
     14 C          -2.9924    2.3870    0.8664 C.2     1  UNL1        0.1745
     15 O          -3.7259    3.0959    1.5907 O.2     1  UNL1       -0.2911
     16 C          -2.8218    2.5025   -0.5610 C.3     1  UNL1        0.0367
     17 C          -2.2984    1.3048   -1.2147 C.ar    1  UNL1       -0.0322
     18 C          -2.8592    1.1788   -2.4990 C.ar    1  UNL1       -0.0576
     19 C          -2.5193    0.1191   -3.3424 C.ar    1  UNL1       -0.0615
     20 C          -1.6155   -0.8679   -2.9696 C.ar    1  UNL1       -0.0612
     21 C          -1.0167   -0.8315   -1.7357 C.ar    1  UNL1       -0.0537
     22 C          -1.4109    0.2635   -0.9521 C.ar    1  UNL1       -0.0137
     23 H           4.5986   -2.4622    1.1834 H       1  UNL1        0.0391
     24 H           4.8715   -0.7236    0.6539 H       1  UNL1        0.0391
     25 H           4.8087   -2.0349   -0.5803 H       1  UNL1        0.0391
     26 H           1.5911   -2.1899    1.7442 H       1  UNL1        0.0429
     27 H           3.0087   -1.2942    2.2665 H       1  UNL1        0.0429
     28 H           2.5129    0.6304    1.1264 H       1  UNL1        0.0323
     29 H           1.2350    0.3760    2.3714 H       1  UNL1        0.0323
     30 H           1.0030    0.2492   -1.8293 H       1  UNL1        0.0323
     31 H           2.1562    0.9781   -0.7542 H       1  UNL1        0.0323
     32 H           3.3234   -0.7431   -1.5935 H       1  UNL1        0.0429
     33 H           2.0098   -1.9360   -1.5248 H       1  UNL1        0.0429
     34 H          -1.3820   -0.7326    4.9597 H       1  UNL1        0.0694
     35 H          -0.2924   -1.1449    2.7006 H       1  UNL1        0.0629
     36 H          -3.8500    2.6919   -0.9981 H       1  UNL1        0.0394
     37 H          -2.1774    3.3702   -0.8652 H       1  UNL1        0.0394
     38 H          -3.5719    1.9022   -2.8698 H       1  UNL1        0.0621
     39 H          -2.9747    0.0477   -4.3427 H       1  UNL1        0.0618
     40 H          -1.3256   -1.6960   -3.5823 H       1  UNL1        0.0618
     41 H          -0.3124   -1.5122   -1.2777 H       1  UNL1        0.0624
@<TRIPOS>BOND
     1     1     2    1
     2     2     3    1
     3     3     4    1
     4     4     5    1
     5     5     6    1
     6     6     7    1
     7     5     8    2
     8     8     9    1
     9     9    10   ar
    10    10    11   ar
    11    11    12   ar
    12    12    13   ar
    13    10    14    1
    14    14    15    2
    15    14    16    1
    16    16    17    1
    17    17    18   ar
    18    18    19   ar
    19    19    20   ar
    20    20    21   ar
    21    21    22   ar
    22     7     2    1
    23    22     8    1
    24    13     9   ar
    25    22    17   ar
    26     1    23    1
    27     1    24    1
    28     1    25    1
    29     3    26    1
    30     3    27    1
    31     4    28    1
    32     4    29    1
    33     6    30    1
    34     6    31    1
    35     7    32    1
    36     7    33    1
    37    12    34    1
    38    13    35    1
    39    16    36    1
    40    16    37    1
    41    18    38    1
    42    19    39    1
    43    20    40    1
    44    21    41    1
