
     RDKit          3D

 67 70  0  0  0  0  0  0  0  0999 V2000
    3.8262   -1.0689   -1.4902 C   0  0  0  0  0  0  0  0  0  0  0  0
    3.7425   -0.4192   -0.1724 C   0  0  2  0  0  0  0  0  0  0  0  0
    4.8499   -0.9380    0.7126 C   0  0  0  0  0  0  0  0  0  0  0  0
    6.2307   -0.7063    0.2274 C   0  0  0  0  0  0  0  0  0  0  0  0
    6.6303    0.6876    0.0350 C   0  0  0  0  0  0  0  0  0  0  0  0
    5.9043    1.6804    0.2714 O   0  0  0  0  0  0  0  0  0  0  0  0
    7.9088    0.9362   -0.4455 O   0  0  0  0  0  0  0  0  0  0  0  0
    2.4777   -0.5482    0.5822 C   0  0  1  0  0  0  0  0  0  0  0  0
    2.6055    0.2000    1.9189 C   0  0  0  0  0  0  0  0  0  0  0  0
    1.2328    0.7625    2.2212 C   0  0  0  0  0  0  0  0  0  0  0  0
    0.3685    0.0261    1.2661 C   0  0  1  0  0  0  0  0  0  0  0  0
   -0.9959    0.5429    1.0741 C   0  0  2  0  0  0  0  0  0  0  0  0
   -1.8072    0.1714    2.3093 C   0  0  0  0  0  0  0  0  0  0  0  0
   -3.0658   -0.5613    1.9890 C   0  0  0  0  0  0  0  0  0  0  0  0
   -3.8714    0.0344    0.8767 C   0  0  2  0  0  0  0  0  0  0  0  0
   -4.8330   -1.0578    0.3954 C   0  0  0  0  0  0  0  0  0  0  0  0
   -5.8455   -0.5252   -0.5749 C   0  0  2  0  0  0  0  0  0  0  0  0
   -6.4490   -1.6217   -1.2001 O   0  0  0  0  0  0  0  0  0  0  0  0
   -5.1092    0.2970   -1.6170 C   0  0  0  0  0  0  0  0  0  0  0  0
   -3.6404   -0.0166   -1.6075 C   0  0  0  0  0  0  0  0  0  0  0  0
   -3.0128    0.4270   -0.3084 C   0  0  1  0  0  0  0  0  0  0  0  0
   -2.8490    1.9352   -0.3903 C   0  0  0  0  0  0  0  0  0  0  0  0
   -1.6527   -0.1713   -0.0905 C   0  0  1  0  0  0  0  0  0  0  0  0
   -0.7957   -0.1785   -1.3184 C   0  0  0  0  0  0  0  0  0  0  0  0
    0.5057   -0.8770   -0.9547 C   0  0  0  0  0  0  0  0  0  0  0  0
    1.2457    0.0230    0.0070 C   0  0  2  0  0  0  0  0  0  0  0  0
    1.3553    1.4318   -0.4761 C   0  0  0  0  0  0  0  0  0  0  0  0
    3.5425   -2.1525   -1.4170 H   0  0  0  0  0  0  0  0  0  0  0  0
    3.2883   -0.5548   -2.3114 H   0  0  0  0  0  0  0  0  0  0  0  0
    4.8858   -1.0734   -1.8243 H   0  0  0  0  0  0  0  0  0  0  0  0
    3.9241    0.6728   -0.3218 H   0  0  0  0  0  0  0  0  0  0  0  0
    4.7621   -0.4954    1.7507 H   0  0  0  0  0  0  0  0  0  0  0  0
    4.7487   -2.0369    0.8986 H   0  0  0  0  0  0  0  0  0  0  0  0
    6.9420   -1.1217    1.0172 H   0  0  0  0  0  0  0  0  0  0  0  0
    6.4778   -1.3644   -0.6583 H   0  0  0  0  0  0  0  0  0  0  0  0
    8.3671    1.8296   -0.3735 H   0  0  0  0  0  0  0  0  0  0  0  0
    2.2762   -1.6043    0.8604 H   0  0  0  0  0  0  0  0  0  0  0  0
    3.3720    0.9936    1.8508 H   0  0  0  0  0  0  0  0  0  0  0  0
    2.8936   -0.4955    2.7274 H   0  0  0  0  0  0  0  0  0  0  0  0
    0.9508    0.5807    3.2981 H   0  0  0  0  0  0  0  0  0  0  0  0
    1.2648    1.8456    2.0872 H   0  0  0  0  0  0  0  0  0  0  0  0
    0.2794   -1.0331    1.6519 H   0  0  0  0  0  0  0  0  0  0  0  0
   -1.0974    1.6329    0.9623 H   0  0  0  0  0  0  0  0  0  0  0  0
   -2.0935    1.0789    2.9032 H   0  0  0  0  0  0  0  0  0  0  0  0
   -1.2236   -0.4591    3.0178 H   0  0  0  0  0  0  0  0  0  0  0  0
   -2.9089   -1.6715    1.8576 H   0  0  0  0  0  0  0  0  0  0  0  0
   -3.7133   -0.5008    2.9140 H   0  0  0  0  0  0  0  0  0  0  0  0
   -4.4424    0.8849    1.2544 H   0  0  0  0  0  0  0  0  0  0  0  0
   -4.2525   -1.8770   -0.0656 H   0  0  0  0  0  0  0  0  0  0  0  0
   -5.3275   -1.5099    1.3014 H   0  0  0  0  0  0  0  0  0  0  0  0
   -6.6175    0.0620   -0.0409 H   0  0  0  0  0  0  0  0  0  0  0  0
   -6.8193   -1.3114   -2.0636 H   0  0  0  0  0  0  0  0  0  0  0  0
   -5.3505    1.3496   -1.4395 H   0  0  0  0  0  0  0  0  0  0  0  0
   -5.5269    0.0377   -2.6224 H   0  0  0  0  0  0  0  0  0  0  0  0
   -3.5206   -1.0940   -1.8039 H   0  0  0  0  0  0  0  0  0  0  0  0
   -3.1638    0.5373   -2.4330 H   0  0  0  0  0  0  0  0  0  0  0  0
   -1.8759    2.2283   -0.8276 H   0  0  0  0  0  0  0  0  0  0  0  0
   -3.0353    2.4210    0.5875 H   0  0  0  0  0  0  0  0  0  0  0  0
   -3.6224    2.3730   -1.0839 H   0  0  0  0  0  0  0  0  0  0  0  0
   -1.8034   -1.2539    0.1961 H   0  0  0  0  0  0  0  0  0  0  0  0
   -1.2951   -0.8264   -2.0681 H   0  0  0  0  0  0  0  0  0  0  0  0
   -0.6366    0.8006   -1.7682 H   0  0  0  0  0  0  0  0  0  0  0  0
    1.0164   -1.1004   -1.8814 H   0  0  0  0  0  0  0  0  0  0  0  0
    0.2080   -1.7807   -0.3707 H   0  0  0  0  0  0  0  0  0  0  0  0
    1.2998    1.5002   -1.6029 H   0  0  0  0  0  0  0  0  0  0  0  0
    0.5558    2.1129   -0.1179 H   0  0  0  0  0  0  0  0  0  0  0  0
    2.3148    1.9096   -0.1194 H   0  0  0  0  0  0  0  0  0  0  0  0
  1  2  1  0
  2  3  1  0
  3  4  1  0
  4  5  1  0
  5  6  2  0
  5  7  1  0
  2  8  1  0
  8  9  1  0
  9 10  1  0
 10 11  1  0
 11 12  1  0
 12 13  1  0
 13 14  1  0
 14 15  1  0
 15 16  1  0
 16 17  1  0
 17 18  1  0
 17 19  1  0
 19 20  1  0
 20 21  1  0
 21 22  1  6
 21 23  1  0
 23 24  1  0
 24 25  1  0
 25 26  1  0
 26 27  1  6
 26  8  1  0
 26 11  1  0
 23 12  1  0
 21 15  1  0
  1 28  1  0
  1 29  1  0
  1 30  1  0
  2 31  1  6
  3 32  1  0
  3 33  1  0
  4 34  1  0
  4 35  1  0
  7 36  1  0
  8 37  1  1
  9 38  1  0
  9 39  1  0
 10 40  1  0
 10 41  1  0
 11 42  1  1
 12 43  1  6
 13 44  1  0
 13 45  1  0
 14 46  1  0
 14 47  1  0
 15 48  1  1
 16 49  1  0
 16 50  1  0
 17 51  1  1
 18 52  1  0
 19 53  1  0
 19 54  1  0
 20 55  1  0
 20 56  1  0
 22 57  1  0
 22 58  1  0
 22 59  1  0
 23 60  1  1
 24 61  1  0
 24 62  1  0
 25 63  1  0
 25 64  1  0
 27 65  1  0
 27 66  1  0
 27 67  1  0
M  END
$$$$
