@<TRIPOS>MOLECULE
*****
 67 70 0 0 0
SMALL
GASTEIGER

@<TRIPOS>ATOM
      1 C           3.8262   -1.0689   -1.4902 C.3     1  UNL1       -0.0621
      2 C           3.7425   -0.4192   -0.1724 C.3     1  UNL1       -0.0400
      3 C           4.8499   -0.9380    0.7126 C.3     1  UNL1       -0.0401
      4 C           6.2307   -0.7063    0.2274 C.3     1  UNL1        0.0450
      5 C           6.6303    0.6876    0.0350 C.2     1  UNL1        0.3047
      6 O           5.9043    1.6804    0.2714 O.2     1  UNL1       -0.2510
      7 O           7.9088    0.9362   -0.4455 O.3     1  UNL1       -0.4806
      8 C           2.4777   -0.5482    0.5822 C.3     1  UNL1       -0.0328
      9 C           2.6055    0.2000    1.9189 C.3     1  UNL1       -0.0492
     10 C           1.2328    0.7625    2.2212 C.3     1  UNL1       -0.0492
     11 C           0.3685    0.0261    1.2661 C.3     1  UNL1       -0.0323
     12 C          -0.9959    0.5429    1.0741 C.3     1  UNL1       -0.0344
     13 C          -1.8072    0.1714    2.3093 C.3     1  UNL1       -0.0494
     14 C          -3.0658   -0.5613    1.9890 C.3     1  UNL1       -0.0494
     15 C          -3.8714    0.0344    0.8767 C.3     1  UNL1       -0.0330
     16 C          -4.8330   -1.0578    0.3954 C.3     1  UNL1       -0.0235
     17 C          -5.8455   -0.5252   -0.5749 C.3     1  UNL1        0.0555
     18 O          -6.4490   -1.6217   -1.2001 O.3     1  UNL1       -0.3918
     19 C          -5.1092    0.2970   -1.6170 C.3     1  UNL1       -0.0263
     20 C          -3.6404   -0.0166   -1.6075 C.3     1  UNL1       -0.0448
     21 C          -3.0128    0.4270   -0.3084 C.3     1  UNL1       -0.0260
     22 C          -2.8490    1.9352   -0.3903 C.3     1  UNL1       -0.0590
     23 C          -1.6527   -0.1713   -0.0905 C.3     1  UNL1       -0.0323
     24 C          -0.7957   -0.1785   -1.3184 C.3     1  UNL1       -0.0489
     25 C           0.5057   -0.8770   -0.9547 C.3     1  UNL1       -0.0468
     26 C           1.2457    0.0230    0.0070 C.3     1  UNL1       -0.0259
     27 C           1.3553    1.4318   -0.4761 C.3     1  UNL1       -0.0590
     28 H           3.5425   -2.1525   -1.4170 H       1  UNL1        0.0233
     29 H           3.2883   -0.5548   -2.3114 H       1  UNL1        0.0233
     30 H           4.8858   -1.0734   -1.8243 H       1  UNL1        0.0233
     31 H           3.9241    0.6728   -0.3218 H       1  UNL1        0.0301
     32 H           4.7621   -0.4954    1.7507 H       1  UNL1        0.0273
     33 H           4.7487   -2.0369    0.8986 H       1  UNL1        0.0273
     34 H           6.9420   -1.1217    1.0172 H       1  UNL1        0.0378
     35 H           6.4778   -1.3644   -0.6583 H       1  UNL1        0.0378
     36 H           8.3671    1.8296   -0.3735 H       1  UNL1        0.2951
     37 H           2.2762   -1.6043    0.8604 H       1  UNL1        0.0309
     38 H           3.3720    0.9936    1.8508 H       1  UNL1        0.0268
     39 H           2.8936   -0.4955    2.7274 H       1  UNL1        0.0268
     40 H           0.9508    0.5807    3.2981 H       1  UNL1        0.0268
     41 H           1.2648    1.8456    2.0872 H       1  UNL1        0.0268
     42 H           0.2794   -1.0331    1.6519 H       1  UNL1        0.0309
     43 H          -1.0974    1.6329    0.9623 H       1  UNL1        0.0306
     44 H          -2.0935    1.0789    2.9032 H       1  UNL1        0.0268
     45 H          -1.2236   -0.4591    3.0178 H       1  UNL1        0.0268
     46 H          -2.9089   -1.6715    1.8576 H       1  UNL1        0.0268
     47 H          -3.7133   -0.5008    2.9140 H       1  UNL1        0.0268
     48 H          -4.4424    0.8849    1.2544 H       1  UNL1        0.0307
     49 H          -4.2525   -1.8770   -0.0656 H       1  UNL1        0.0293
     50 H          -5.3275   -1.5099    1.3014 H       1  UNL1        0.0293
     51 H          -6.6175    0.0620   -0.0409 H       1  UNL1        0.0593
     52 H          -6.8193   -1.3114   -2.0636 H       1  UNL1        0.2098
     53 H          -5.3505    1.3496   -1.4395 H       1  UNL1        0.0290
     54 H          -5.5269    0.0377   -2.6224 H       1  UNL1        0.0290
     55 H          -3.5206   -1.0940   -1.8039 H       1  UNL1        0.0271
     56 H          -3.1638    0.5373   -2.4330 H       1  UNL1        0.0271
     57 H          -1.8759    2.2283   -0.8276 H       1  UNL1        0.0235
     58 H          -3.0353    2.4210    0.5875 H       1  UNL1        0.0235
     59 H          -3.6224    2.3730   -1.0839 H       1  UNL1        0.0235
     60 H          -1.8034   -1.2539    0.1961 H       1  UNL1        0.0309
     61 H          -1.2951   -0.8264   -2.0681 H       1  UNL1        0.0268
     62 H          -0.6366    0.8006   -1.7682 H       1  UNL1        0.0268
     63 H           1.0164   -1.1004   -1.8814 H       1  UNL1        0.0271
     64 H           0.2080   -1.7807   -0.3707 H       1  UNL1        0.0271
     65 H           1.2998    1.5002   -1.6029 H       1  UNL1        0.0235
     66 H           0.5558    2.1129   -0.1179 H       1  UNL1        0.0235
     67 H           2.3148    1.9096   -0.1194 H       1  UNL1        0.0235
@<TRIPOS>BOND
     1     1     2    1
     2     2     3    1
     3     3     4    1
     4     4     5    1
     5     5     6    2
     6     5     7    1
     7     2     8    1
     8     8     9    1
     9     9    10    1
    10    10    11    1
    11    11    12    1
    12    12    13    1
    13    13    14    1
    14    14    15    1
    15    15    16    1
    16    16    17    1
    17    17    18    1
    18    17    19    1
    19    19    20    1
    20    20    21    1
    21    21    22    1
    22    21    23    1
    23    23    24    1
    24    24    25    1
    25    25    26    1
    26    26    27    1
    27    26     8    1
    28    26    11    1
    29    23    12    1
    30    21    15    1
    31     1    28    1
    32     1    29    1
    33     1    30    1
    34     2    31    1
    35     3    32    1
    36     3    33    1
    37     4    34    1
    38     4    35    1
    39     7    36    1
    40     8    37    1
    41     9    38    1
    42     9    39    1
    43    10    40    1
    44    10    41    1
    45    11    42    1
    46    12    43    1
    47    13    44    1
    48    13    45    1
    49    14    46    1
    50    14    47    1
    51    15    48    1
    52    16    49    1
    53    16    50    1
    54    17    51    1
    55    18    52    1
    56    19    53    1
    57    19    54    1
    58    20    55    1
    59    20    56    1
    60    22    57    1
    61    22    58    1
    62    22    59    1
    63    23    60    1
    64    24    61    1
    65    24    62    1
    66    25    63    1
    67    25    64    1
    68    27    65    1
    69    27    66    1
    70    27    67    1
