@<TRIPOS>MOLECULE
*****
 40 43 0 0 0
SMALL
GASTEIGER

@<TRIPOS>ATOM
      1 O          -0.2622   -0.3837    1.3658 O.2     1  UNL1       -0.2737
      2 C          -0.6033    0.7753    1.0183 C.2     1  UNL1        0.2354
      3 C           0.3567    1.7955    0.5197 C.3     1  UNL1        0.0964
      4 N           1.6702    1.2399    0.5103 N.am    1  UNL1       -0.2623
      5 C           2.5022    1.3617    1.6602 C.2     1  UNL1        0.2205
      6 O           2.3893    2.3435    2.4447 O.2     1  UNL1       -0.2752
      7 C           3.5021    0.2656    1.8719 C.3     1  UNL1        0.0285
      8 C           4.3660    0.2076    0.6443 C.3     1  UNL1       -0.0177
      9 C           3.5335    0.0295   -0.5667 C.ar    1  UNL1       -0.0255
     10 C           4.0680   -0.6550   -1.6666 C.ar    1  UNL1       -0.0568
     11 C           3.2580   -0.7826   -2.7684 C.ar    1  UNL1       -0.0614
     12 C           1.9776   -0.2862   -2.8508 C.ar    1  UNL1       -0.0600
     13 C           1.4827    0.3908   -1.7289 C.ar    1  UNL1       -0.0400
     14 C           2.2490    0.5488   -0.5973 C.ar    1  UNL1        0.0400
     15 N          -2.0095    1.0823    1.1276 N.am    1  UNL1       -0.2781
     16 C          -2.9419    0.1351    1.5969 C.ar    1  UNL1        0.0839
     17 S          -3.2639   -0.0290    3.4256 S.2     1  UNL1       -0.0797
     18 C          -4.4885   -1.3595    3.2163 C.ar    1  UNL1       -0.0035
     19 C          -4.5378   -1.5465    1.8483 C.ar    1  UNL1        0.0605
     20 CL         -5.6709   -2.8186    1.2501 Cl      1  UNL1       -0.0822
     21 C          -3.7579   -0.7894    1.0591 C.ar    1  UNL1        0.0658
     22 C          -3.7944   -0.9379   -0.4394 C.ar    1  UNL1        0.1652
     23 N          -4.5285   -1.7956   -1.1559 N.ar    1  UNL1       -0.1295
     24 N          -4.3059   -1.6234   -2.4466 N.ar    1  UNL1       -0.1377
     25 C          -3.4132   -0.6394   -2.5922 C.ar    1  UNL1        0.1175
     26 N          -3.1103   -0.2285   -1.3235 N.ar    1  UNL1       -0.3276
     27 H           0.3532    2.6112    1.2852 H       1  UNL1        0.0564
     28 H           0.0354    2.2817   -0.4126 H       1  UNL1        0.0564
     29 H           4.0899    0.4399    2.7965 H       1  UNL1        0.0362
     30 H           2.9944   -0.7060    1.9942 H       1  UNL1        0.0362
     31 H           5.0234   -0.6885    0.7245 H       1  UNL1        0.0318
     32 H           4.9501    1.1405    0.5036 H       1  UNL1        0.0318
     33 H           5.0649   -1.0435   -1.6071 H       1  UNL1        0.0621
     34 H           3.6720   -1.3117   -3.6180 H       1  UNL1        0.0618
     35 H           1.3462   -0.3906   -3.7217 H       1  UNL1        0.0618
     36 H           0.4829    0.8047   -1.7287 H       1  UNL1        0.0636
     37 H          -2.2658    2.0602    0.8296 H       1  UNL1        0.1554
     38 H          -4.9966   -1.8250    4.0115 H       1  UNL1        0.0709
     39 H          -2.9888   -0.2206   -3.5022 H       1  UNL1        0.1046
     40 H          -2.4285    0.5477   -1.1362 H       1  UNL1        0.1683
@<TRIPOS>BOND
     1     1     2    2
     2     2     3    1
     3     3     4    1
     4     4     5   am
     5     5     6    2
     6     5     7    1
     7     7     8    1
     8     8     9    1
     9     9    10   ar
    10    10    11   ar
    11    11    12   ar
    12    12    13   ar
    13    13    14   ar
    14     2    15   am
    15    15    16    1
    16    16    17   ar
    17    17    18   ar
    18    18    19   ar
    19    19    20    1
    20    19    21   ar
    21    21    22    1
    22    22    23   ar
    23    23    24   ar
    24    24    25   ar
    25    25    26   ar
    26    14     4    1
    27    21    16   ar
    28    26    22   ar
    29    14     9   ar
    30     3    27    1
    31     3    28    1
    32     7    29    1
    33     7    30    1
    34     8    31    1
    35     8    32    1
    36    10    33    1
    37    11    34    1
    38    12    35    1
    39    13    36    1
    40    15    37    1
    41    18    38    1
    42    25    39    1
    43    26    40    1
