@<TRIPOS>MOLECULE
*****
 78 83 0 0 0
SMALL
GASTEIGER

@<TRIPOS>ATOM
      1 C          11.4399   -0.5594   -0.6257 C.3     1  UNL1        0.0789
      2 O          11.0867    0.7259   -1.0998 O.3     1  UNL1       -0.4933
      3 C           9.8110    1.2526   -0.9602 C.ar    1  UNL1        0.1412
      4 C           8.7905    0.5573   -0.3458 C.ar    1  UNL1       -0.0104
      5 C           7.5116    1.0749   -0.2010 C.ar    1  UNL1       -0.0143
      6 C           6.4771    0.2865    0.4593 C.ar    1  UNL1       -0.0160
      7 C           6.7690   -0.6044    1.4756 C.ar    1  UNL1       -0.0532
      8 C           5.7912   -1.3509    2.0992 C.ar    1  UNL1       -0.0473
      9 C           4.4825   -1.2394    1.7347 C.ar    1  UNL1        0.0581
     10 C           4.1597   -0.3466    0.7107 C.ar    1  UNL1        0.0442
     11 C           5.1533    0.3984    0.0916 C.ar    1  UNL1       -0.0321
     12 N           2.8508   -0.0906    0.1901 N.pl3   1  UNL1       -0.3124
     13 C           1.6312   -0.8300    0.3024 C.ar    1  UNL1        0.0529
     14 C           0.6462   -0.4071   -0.5536 C.ar    1  UNL1       -0.0384
     15 C          -0.6165   -1.0289   -0.5718 C.ar    1  UNL1       -0.0557
     16 C          -0.9093   -2.0746    0.2596 C.ar    1  UNL1       -0.0311
     17 C          -2.2215   -2.7481    0.2631 C.3     1  UNL1        0.0666
     18 C          -2.3350   -3.6987   -0.9401 C.3     1  UNL1       -0.0474
     19 C          -2.3471   -3.6713    1.4871 C.3     1  UNL1       -0.0474
     20 C          -3.3970   -1.8890    0.2299 C.2     1  UNL1        0.2272
     21 O          -4.0704   -1.7434    1.3080 O.2     1  UNL1       -0.2745
     22 N          -3.9060   -1.1748   -0.8845 N.am    1  UNL1       -0.2848
     23 C          -5.0800   -0.3602   -0.7543 C.ar    1  UNL1        0.0335
     24 C          -5.0409    0.9711   -0.4127 C.ar    1  UNL1       -0.0387
     25 C          -6.1612    1.7579   -0.2828 C.ar    1  UNL1       -0.0389
     26 C          -7.3980    1.1514   -0.5153 C.ar    1  UNL1        0.0299
     27 N          -8.5811    1.9158   -0.3984 N.pl3   1  UNL1       -0.3255
     28 C          -8.4904    3.3379   -0.1541 C.3     1  UNL1        0.0357
     29 C          -9.8099    3.9251   -0.6751 C.3     1  UNL1        0.0634
     30 O         -10.8573    3.4541    0.0862 O.3     1  UNL1       -0.3767
     31 C         -10.8494    2.1077    0.3403 C.3     1  UNL1        0.0634
     32 C          -9.8817    1.3150   -0.5119 C.3     1  UNL1        0.0357
     33 C          -7.4800   -0.1830   -0.8604 C.ar    1  UNL1       -0.0389
     34 C          -6.3124   -0.9306   -0.9773 C.ar    1  UNL1       -0.0387
     35 C           0.1158   -2.4776    1.1161 C.ar    1  UNL1       -0.0345
     36 C           1.3566   -1.8822    1.1486 C.ar    1  UNL1        0.0553
     37 N           2.2459   -2.4592    2.1039 N.am    1  UNL1       -0.2799
     38 C           3.5679   -2.0922    2.4822 C.2     1  UNL1        0.2501
     39 O           4.0374   -2.5242    3.5643 O.2     1  UNL1       -0.2698
     40 C           7.3009    2.3398   -0.7081 C.ar    1  UNL1       -0.0521
     41 C           8.3263    3.0450   -1.3284 C.ar    1  UNL1       -0.0369
     42 C           9.5924    2.5174   -1.4649 C.ar    1  UNL1        0.0669
     43 N          10.6297    3.2641   -2.1072 N.pl3   1  UNL1       -0.3551
     44 H          10.6140   -1.3002   -0.7550 H       1  UNL1        0.0660
     45 H          11.5864   -0.4520    0.4739 H       1  UNL1        0.0660
     46 H          12.3629   -0.9387   -1.1130 H       1  UNL1        0.0660
     47 H           8.9551   -0.4380    0.0536 H       1  UNL1        0.0661
     48 H           7.7856   -0.7410    1.8126 H       1  UNL1        0.0624
     49 H           6.0262   -2.0503    2.8982 H       1  UNL1        0.0626
     50 H           4.8944    1.0895   -0.7027 H       1  UNL1        0.0642
     51 H           2.7832    0.7847   -0.3631 H       1  UNL1        0.1522
     52 H           0.8645    0.4180   -1.2157 H       1  UNL1        0.0637
     53 H          -1.3170   -0.6298   -1.2708 H       1  UNL1        0.0621
     54 H          -3.2881   -4.2487   -0.8108 H       1  UNL1        0.0243
     55 H          -1.5154   -4.4214   -0.8443 H       1  UNL1        0.0243
     56 H          -2.2602   -3.1461   -1.8850 H       1  UNL1        0.0243
     57 H          -2.0213   -3.1470    2.3900 H       1  UNL1        0.0243
     58 H          -3.3849   -4.0581    1.5632 H       1  UNL1        0.0243
     59 H          -1.6508   -4.5126    1.3045 H       1  UNL1        0.0243
     60 H          -3.4515   -1.2433   -1.8033 H       1  UNL1        0.1548
     61 H          -4.0516    1.4158   -0.2372 H       1  UNL1        0.0637
     62 H          -6.1107    2.8008   -0.0131 H       1  UNL1        0.0637
     63 H          -8.4021    3.5675    0.9259 H       1  UNL1        0.0486
     64 H          -7.6971    3.8271   -0.7572 H       1  UNL1        0.0486
     65 H          -9.7489    5.0202   -0.5266 H       1  UNL1        0.0575
     66 H          -9.8609    3.6471   -1.7354 H       1  UNL1        0.0575
     67 H         -10.6123    1.9130    1.4071 H       1  UNL1        0.0575
     68 H         -11.8626    1.6591    0.1476 H       1  UNL1        0.0575
     69 H         -10.2286    1.2199   -1.5547 H       1  UNL1        0.0486
     70 H          -9.9209    0.2707   -0.0938 H       1  UNL1        0.0486
     71 H          -8.4201   -0.6877   -1.0497 H       1  UNL1        0.0637
     72 H          -6.3384   -1.9778   -1.2457 H       1  UNL1        0.0637
     73 H          -0.0974   -3.2962    1.7735 H       1  UNL1        0.0640
     74 H           1.8586   -3.2848    2.6040 H       1  UNL1        0.1552
     75 H           6.3137    2.7588   -0.6051 H       1  UNL1        0.0624
     76 H           8.1211    4.0399   -1.7156 H       1  UNL1        0.0637
     77 H          11.0594    2.9585   -3.0071 H       1  UNL1        0.1424
     78 H          10.9876    4.1520   -1.6794 H       1  UNL1        0.1424
@<TRIPOS>BOND
     1     1     2    1
     2     2     3    1
     3     3     4   ar
     4     4     5   ar
     5     5     6    1
     6     6     7   ar
     7     7     8   ar
     8     8     9   ar
     9     9    10   ar
    10    10    11   ar
    11    10    12    1
    12    12    13    1
    13    13    14   ar
    14    14    15   ar
    15    15    16   ar
    16    16    17    1
    17    17    18    1
    18    17    19    1
    19    17    20    1
    20    20    21    2
    21    20    22   am
    22    22    23    1
    23    23    24   ar
    24    24    25   ar
    25    25    26   ar
    26    26    27    1
    27    27    28    1
    28    28    29    1
    29    29    30    1
    30    30    31    1
    31    31    32    1
    32    26    33   ar
    33    33    34   ar
    34    16    35   ar
    35    35    36   ar
    36    36    37    1
    37    37    38   am
    38    38    39    2
    39     5    40   ar
    40    40    41   ar
    41    41    42   ar
    42    42    43    1
    43    42     3   ar
    44    11     6   ar
    45    36    13   ar
    46    38     9    1
    47    34    23   ar
    48    32    27    1
    49     1    44    1
    50     1    45    1
    51     1    46    1
    52     4    47    1
    53     7    48    1
    54     8    49    1
    55    11    50    1
    56    12    51    1
    57    14    52    1
    58    15    53    1
    59    18    54    1
    60    18    55    1
    61    18    56    1
    62    19    57    1
    63    19    58    1
    64    19    59    1
    65    22    60    1
    66    24    61    1
    67    25    62    1
    68    28    63    1
    69    28    64    1
    70    29    65    1
    71    29    66    1
    72    31    67    1
    73    31    68    1
    74    32    69    1
    75    32    70    1
    76    33    71    1
    77    34    72    1
    78    35    73    1
    79    37    74    1
    80    40    75    1
    81    41    76    1
    82    43    77    1
    83    43    78    1
