
     RDKit          3D

 78 83  0  0  0  0  0  0  0  0999 V2000
   11.4399   -0.5594   -0.6257 C   0  0  0  0  0  0  0  0  0  0  0  0
   11.0867    0.7259   -1.0998 O   0  0  0  0  0  0  0  0  0  0  0  0
    9.8110    1.2526   -0.9602 C   0  0  0  0  0  0  0  0  0  0  0  0
    8.7905    0.5573   -0.3458 C   0  0  0  0  0  0  0  0  0  0  0  0
    7.5116    1.0749   -0.2010 C   0  0  0  0  0  0  0  0  0  0  0  0
    6.4771    0.2865    0.4593 C   0  0  0  0  0  0  0  0  0  0  0  0
    6.7690   -0.6044    1.4756 C   0  0  0  0  0  0  0  0  0  0  0  0
    5.7912   -1.3509    2.0992 C   0  0  0  0  0  0  0  0  0  0  0  0
    4.4825   -1.2394    1.7347 C   0  0  0  0  0  0  0  0  0  0  0  0
    4.1597   -0.3466    0.7107 C   0  0  0  0  0  0  0  0  0  0  0  0
    5.1533    0.3984    0.0916 C   0  0  0  0  0  0  0  0  0  0  0  0
    2.8508   -0.0906    0.1901 N   0  0  0  0  0  0  0  0  0  0  0  0
    1.6312   -0.8300    0.3024 C   0  0  0  0  0  0  0  0  0  0  0  0
    0.6462   -0.4071   -0.5536 C   0  0  0  0  0  0  0  0  0  0  0  0
   -0.6165   -1.0289   -0.5718 C   0  0  0  0  0  0  0  0  0  0  0  0
   -0.9093   -2.0746    0.2596 C   0  0  0  0  0  0  0  0  0  0  0  0
   -2.2215   -2.7481    0.2631 C   0  0  0  0  0  0  0  0  0  0  0  0
   -2.3350   -3.6987   -0.9401 C   0  0  0  0  0  0  0  0  0  0  0  0
   -2.3471   -3.6713    1.4871 C   0  0  0  0  0  0  0  0  0  0  0  0
   -3.3970   -1.8890    0.2299 C   0  0  0  0  0  0  0  0  0  0  0  0
   -4.0704   -1.7434    1.3080 O   0  0  0  0  0  0  0  0  0  0  0  0
   -3.9060   -1.1748   -0.8845 N   0  0  0  0  0  0  0  0  0  0  0  0
   -5.0800   -0.3602   -0.7543 C   0  0  0  0  0  0  0  0  0  0  0  0
   -5.0409    0.9711   -0.4127 C   0  0  0  0  0  0  0  0  0  0  0  0
   -6.1612    1.7579   -0.2828 C   0  0  0  0  0  0  0  0  0  0  0  0
   -7.3980    1.1514   -0.5153 C   0  0  0  0  0  0  0  0  0  0  0  0
   -8.5811    1.9158   -0.3984 N   0  0  0  0  0  0  0  0  0  0  0  0
   -8.4904    3.3379   -0.1541 C   0  0  0  0  0  0  0  0  0  0  0  0
   -9.8099    3.9251   -0.6751 C   0  0  0  0  0  0  0  0  0  0  0  0
  -10.8573    3.4541    0.0862 O   0  0  0  0  0  0  0  0  0  0  0  0
  -10.8494    2.1077    0.3403 C   0  0  0  0  0  0  0  0  0  0  0  0
   -9.8817    1.3150   -0.5119 C   0  0  0  0  0  0  0  0  0  0  0  0
   -7.4800   -0.1830   -0.8604 C   0  0  0  0  0  0  0  0  0  0  0  0
   -6.3124   -0.9306   -0.9773 C   0  0  0  0  0  0  0  0  0  0  0  0
    0.1158   -2.4776    1.1161 C   0  0  0  0  0  0  0  0  0  0  0  0
    1.3566   -1.8822    1.1486 C   0  0  0  0  0  0  0  0  0  0  0  0
    2.2459   -2.4592    2.1039 N   0  0  0  0  0  0  0  0  0  0  0  0
    3.5679   -2.0922    2.4822 C   0  0  0  0  0  0  0  0  0  0  0  0
    4.0374   -2.5242    3.5643 O   0  0  0  0  0  0  0  0  0  0  0  0
    7.3009    2.3398   -0.7081 C   0  0  0  0  0  0  0  0  0  0  0  0
    8.3263    3.0450   -1.3284 C   0  0  0  0  0  0  0  0  0  0  0  0
    9.5924    2.5174   -1.4649 C   0  0  0  0  0  0  0  0  0  0  0  0
   10.6297    3.2641   -2.1072 N   0  0  0  0  0  0  0  0  0  0  0  0
   10.6140   -1.3002   -0.7550 H   0  0  0  0  0  0  0  0  0  0  0  0
   11.5864   -0.4520    0.4739 H   0  0  0  0  0  0  0  0  0  0  0  0
   12.3629   -0.9387   -1.1130 H   0  0  0  0  0  0  0  0  0  0  0  0
    8.9551   -0.4380    0.0536 H   0  0  0  0  0  0  0  0  0  0  0  0
    7.7856   -0.7410    1.8126 H   0  0  0  0  0  0  0  0  0  0  0  0
    6.0262   -2.0503    2.8982 H   0  0  0  0  0  0  0  0  0  0  0  0
    4.8944    1.0895   -0.7027 H   0  0  0  0  0  0  0  0  0  0  0  0
    2.7832    0.7847   -0.3631 H   0  0  0  0  0  0  0  0  0  0  0  0
    0.8645    0.4180   -1.2157 H   0  0  0  0  0  0  0  0  0  0  0  0
   -1.3170   -0.6298   -1.2708 H   0  0  0  0  0  0  0  0  0  0  0  0
   -3.2881   -4.2487   -0.8108 H   0  0  0  0  0  0  0  0  0  0  0  0
   -1.5154   -4.4214   -0.8443 H   0  0  0  0  0  0  0  0  0  0  0  0
   -2.2602   -3.1461   -1.8850 H   0  0  0  0  0  0  0  0  0  0  0  0
   -2.0213   -3.1470    2.3900 H   0  0  0  0  0  0  0  0  0  0  0  0
   -3.3849   -4.0581    1.5632 H   0  0  0  0  0  0  0  0  0  0  0  0
   -1.6508   -4.5126    1.3045 H   0  0  0  0  0  0  0  0  0  0  0  0
   -3.4515   -1.2433   -1.8033 H   0  0  0  0  0  0  0  0  0  0  0  0
   -4.0516    1.4158   -0.2372 H   0  0  0  0  0  0  0  0  0  0  0  0
   -6.1107    2.8008   -0.0131 H   0  0  0  0  0  0  0  0  0  0  0  0
   -8.4021    3.5675    0.9259 H   0  0  0  0  0  0  0  0  0  0  0  0
   -7.6971    3.8271   -0.7572 H   0  0  0  0  0  0  0  0  0  0  0  0
   -9.7489    5.0202   -0.5266 H   0  0  0  0  0  0  0  0  0  0  0  0
   -9.8609    3.6471   -1.7354 H   0  0  0  0  0  0  0  0  0  0  0  0
  -10.6123    1.9130    1.4071 H   0  0  0  0  0  0  0  0  0  0  0  0
  -11.8626    1.6591    0.1476 H   0  0  0  0  0  0  0  0  0  0  0  0
  -10.2286    1.2199   -1.5547 H   0  0  0  0  0  0  0  0  0  0  0  0
   -9.9209    0.2707   -0.0938 H   0  0  0  0  0  0  0  0  0  0  0  0
   -8.4201   -0.6877   -1.0497 H   0  0  0  0  0  0  0  0  0  0  0  0
   -6.3384   -1.9778   -1.2457 H   0  0  0  0  0  0  0  0  0  0  0  0
   -0.0974   -3.2962    1.7735 H   0  0  0  0  0  0  0  0  0  0  0  0
    1.8586   -3.2848    2.6040 H   0  0  0  0  0  0  0  0  0  0  0  0
    6.3137    2.7588   -0.6051 H   0  0  0  0  0  0  0  0  0  0  0  0
    8.1211    4.0399   -1.7156 H   0  0  0  0  0  0  0  0  0  0  0  0
   11.0594    2.9585   -3.0071 H   0  0  0  0  0  0  0  0  0  0  0  0
   10.9876    4.1520   -1.6794 H   0  0  0  0  0  0  0  0  0  0  0  0
  1  2  1  0
  2  3  1  0
  3  4  2  0
  4  5  1  0
  5  6  1  0
  6  7  2  0
  7  8  1  0
  8  9  2  0
  9 10  1  0
 10 11  2  0
 10 12  1  0
 12 13  1  0
 13 14  2  0
 14 15  1  0
 15 16  2  0
 16 17  1  0
 17 18  1  0
 17 19  1  0
 17 20  1  0
 20 21  2  0
 20 22  1  0
 22 23  1  0
 23 24  2  0
 24 25  1  0
 25 26  2  0
 26 27  1  0
 27 28  1  0
 28 29  1  0
 29 30  1  0
 30 31  1  0
 31 32  1  0
 26 33  1  0
 33 34  2  0
 16 35  1  0
 35 36  2  0
 36 37  1  0
 37 38  1  0
 38 39  2  0
  5 40  2  0
 40 41  1  0
 41 42  2  0
 42 43  1  0
 42  3  1  0
 11  6  1  0
 36 13  1  0
 38  9  1  0
 34 23  1  0
 32 27  1  0
  1 44  1  0
  1 45  1  0
  1 46  1  0
  4 47  1  0
  7 48  1  0
  8 49  1  0
 11 50  1  0
 12 51  1  0
 14 52  1  0
 15 53  1  0
 18 54  1  0
 18 55  1  0
 18 56  1  0
 19 57  1  0
 19 58  1  0
 19 59  1  0
 22 60  1  0
 24 61  1  0
 25 62  1  0
 28 63  1  0
 28 64  1  0
 29 65  1  0
 29 66  1  0
 31 67  1  0
 31 68  1  0
 32 69  1  0
 32 70  1  0
 33 71  1  0
 34 72  1  0
 35 73  1  0
 37 74  1  0
 40 75  1  0
 41 76  1  0
 43 77  1  0
 43 78  1  0
M  END
$$$$
