@<TRIPOS>MOLECULE
*****
 71 76 0 0 0
SMALL
GASTEIGER

@<TRIPOS>ATOM
      1 C           5.0745    1.4170    2.9917 C.3     1  UNL1       -0.0391
      2 C           6.0982    0.5456    2.3751 C.ar    1  UNL1       -0.0405
      3 C           7.3610    0.4815    2.9798 C.ar    1  UNL1       -0.0442
      4 C           8.3827   -0.2982    2.4864 C.ar    1  UNL1        0.0591
      5 C           9.6952   -0.3502    3.1342 C.2     1  UNL1        0.3368
      6 O           9.8575    0.3503    4.1691 O.2     1  UNL1       -0.2451
      7 O          10.7279   -1.1165    2.6641 O.3     1  UNL1       -0.4771
      8 C           8.1099   -1.0274    1.3527 C.ar    1  UNL1       -0.0471
      9 C           6.8646   -0.9911    0.7201 C.ar    1  UNL1       -0.0515
     10 C           5.8599   -0.1984    1.2402 C.ar    1  UNL1        0.0033
     11 C           4.5523   -0.1405    0.6003 C.ar    1  UNL1        0.0713
     12 C           4.2755   -0.8725   -0.5485 C.ar    1  UNL1       -0.0339
     13 C           3.0178   -0.8105   -1.1579 C.ar    1  UNL1       -0.0363
     14 C           2.0353   -0.0187   -0.6222 C.ar    1  UNL1        0.0636
     15 N           0.7751    0.0452   -1.2330 N.am    1  UNL1       -0.1905
     16 C           0.3620    0.9745   -2.2594 C.2     1  UNL1        0.3219
     17 O           1.0910    1.8794   -2.7594 O.2     1  UNL1       -0.2512
     18 N          -0.9902    0.6979   -2.6047 N.am    1  UNL1       -0.2229
     19 C          -1.6387    0.9406   -3.8469 C.ar    1  UNL1        0.1478
     20 C          -0.9909    1.4934   -4.9209 C.ar    1  UNL1        0.0679
     21 N          -1.6352    1.7179   -6.1039 N.ar    1  UNL1       -0.2583
     22 C          -2.9322    1.4042   -6.2599 C.ar    1  UNL1        0.0458
     23 C          -3.5926    0.8472   -5.1844 C.ar    1  UNL1        0.0478
     24 N          -2.9439    0.6379   -4.0417 N.ar    1  UNL1       -0.2368
     25 C          -1.5347    0.1103   -1.3943 C.3     1  UNL1        0.1240
     26 C          -1.6260    1.1625   -0.3079 C.3     1  UNL1       -0.0095
     27 C          -2.0434    0.4042    0.9595 C.3     1  UNL1        0.0017
     28 N          -3.3549   -0.1455    0.6805 N.3     1  UNL1       -0.2965
     29 C          -4.0532   -0.5085    1.8886 C.3     1  UNL1        0.0415
     30 C          -5.3873   -1.0616    1.6572 C.ar    1  UNL1        0.0581
     31 N          -5.6211   -2.3693    1.7652 N.ar    1  UNL1       -0.2583
     32 C          -6.8535   -2.8419    1.5466 C.ar    1  UNL1        0.0279
     33 C          -7.9213   -2.0432    1.2089 C.ar    1  UNL1       -0.0433
     34 C          -7.7021   -0.6984    1.0932 C.ar    1  UNL1       -0.0557
     35 C          -6.4264   -0.2265    1.3215 C.ar    1  UNL1       -0.0279
     36 C          -6.2496    1.2500    1.1789 C.3     1  UNL1       -0.0380
     37 C          -3.2598   -1.2177   -0.2705 C.3     1  UNL1        0.0017
     38 C          -2.8128   -0.6209   -1.5884 C.3     1  UNL1       -0.0095
     39 C          -0.3878   -0.7688   -1.0061 C.2     1  UNL1        0.2516
     40 O          -0.3657   -1.9397   -0.5786 O.2     1  UNL1       -0.2724
     41 C           2.3249    0.6967    0.5112 C.ar    1  UNL1        0.0501
     42 N           3.5588    0.6233    1.0918 N.ar    1  UNL1       -0.2531
     43 H           5.5136    1.8857    3.9082 H       1  UNL1        0.0278
     44 H           4.1937    0.8140    3.3286 H       1  UNL1        0.0278
     45 H           4.7274    2.2346    2.3125 H       1  UNL1        0.0278
     46 H           7.5285    1.0728    3.8694 H       1  UNL1        0.0628
     47 H          11.6784   -0.7487    2.7494 H       1  UNL1        0.2954
     48 H           8.9095   -1.6413    0.9617 H       1  UNL1        0.0626
     49 H           6.7433   -1.6033   -0.1725 H       1  UNL1        0.0624
     50 H           4.9840   -1.5097   -1.0251 H       1  UNL1        0.0639
     51 H           2.8595   -1.4015   -2.0495 H       1  UNL1        0.0637
     52 H           0.0630    1.7537   -4.8150 H       1  UNL1        0.0865
     53 H          -3.4370    1.5855   -7.2022 H       1  UNL1        0.0845
     54 H          -4.6493    0.5939   -5.3187 H       1  UNL1        0.0846
     55 H          -0.6387    1.6260   -0.1984 H       1  UNL1        0.0303
     56 H          -2.4463    1.8656   -0.5260 H       1  UNL1        0.0303
     57 H          -2.0203    1.0652    1.8312 H       1  UNL1        0.0427
     58 H          -1.3150   -0.4409    1.1173 H       1  UNL1        0.0427
     59 H          -4.0979    0.3980    2.5235 H       1  UNL1        0.0491
     60 H          -3.4589   -1.2541    2.4942 H       1  UNL1        0.0491
     61 H          -7.0793   -3.9159    1.6277 H       1  UNL1        0.0829
     62 H          -8.9192   -2.4389    1.0335 H       1  UNL1        0.0633
     63 H          -8.5279   -0.0278    0.8257 H       1  UNL1        0.0621
     64 H          -5.9570    1.4456    0.1110 H       1  UNL1        0.0278
     65 H          -7.2137    1.7804    1.3361 H       1  UNL1        0.0278
     66 H          -5.5422    1.6798    1.8933 H       1  UNL1        0.0278
     67 H          -4.3120   -1.5880   -0.4524 H       1  UNL1        0.0427
     68 H          -2.6008   -2.0393    0.0672 H       1  UNL1        0.0427
     69 H          -2.7089   -1.4083   -2.3299 H       1  UNL1        0.0303
     70 H          -3.5890    0.1478   -1.8270 H       1  UNL1        0.0303
     71 H           1.6116    1.3437    0.9981 H       1  UNL1        0.0849
@<TRIPOS>BOND
     1     1     2    1
     2     2     3   ar
     3     3     4   ar
     4     4     5    1
     5     5     6    2
     6     5     7    1
     7     4     8   ar
     8     8     9   ar
     9     9    10   ar
    10    10    11    1
    11    11    12   ar
    12    12    13   ar
    13    13    14   ar
    14    14    15    1
    15    15    16   am
    16    16    17    2
    17    16    18   am
    18    18    19    1
    19    19    20   ar
    20    20    21   ar
    21    21    22   ar
    22    22    23   ar
    23    23    24   ar
    24    18    25    1
    25    25    26    1
    26    26    27    1
    27    27    28    1
    28    28    29    1
    29    29    30    1
    30    30    31   ar
    31    31    32   ar
    32    32    33   ar
    33    33    34   ar
    34    34    35   ar
    35    35    36    1
    36    28    37    1
    37    37    38    1
    38    25    39    1
    39    39    40    2
    40    14    41   ar
    41    41    42   ar
    42    10     2   ar
    43    42    11   ar
    44    39    15   am
    45    24    19   ar
    46    38    25    1
    47    35    30   ar
    48     1    43    1
    49     1    44    1
    50     1    45    1
    51     3    46    1
    52     7    47    1
    53     8    48    1
    54     9    49    1
    55    12    50    1
    56    13    51    1
    57    20    52    1
    58    22    53    1
    59    23    54    1
    60    26    55    1
    61    26    56    1
    62    27    57    1
    63    27    58    1
    64    29    59    1
    65    29    60    1
    66    32    61    1
    67    33    62    1
    68    34    63    1
    69    36    64    1
    70    36    65    1
    71    36    66    1
    72    37    67    1
    73    37    68    1
    74    38    69    1
    75    38    70    1
    76    41    71    1
