
     RDKit          3D

 28 29  0  0  0  0  0  0  0  0999 V2000
    1.7883    1.2320    1.9343 C   0  0  0  0  0  0  0  0  0  0  0  0
    1.5631    0.0957    0.9595 C   0  0  0  0  0  0  0  0  0  0  0  0
    2.3930    0.3182   -0.2092 N   0  0  0  0  0  0  0  0  0  0  0  0
    2.3040    1.3653   -1.0606 O   0  0  0  0  0  0  0  0  0  0  0  0
    3.3833   -0.6724   -0.4584 C   0  0  0  0  0  0  0  0  0  0  0  0
    4.2958   -0.6405   -1.5494 N   0  0  0  0  0  0  0  0  0  0  0  0
    3.5483   -1.6739    0.2630 O   0  0  0  0  0  0  0  0  0  0  0  0
    0.1689    0.0125    0.6275 C   0  0  0  0  0  0  0  0  0  0  0  0
   -0.7065    0.6896   -0.1509 C   0  0  0  0  0  0  0  0  0  0  0  0
   -2.0247    0.3205   -0.2376 C   0  0  0  0  0  0  0  0  0  0  0  0
   -3.0149    0.9206   -0.9884 C   0  0  0  0  0  0  0  0  0  0  0  0
   -4.2644    0.3966   -0.9345 C   0  0  0  0  0  0  0  0  0  0  0  0
   -4.6773   -0.6871   -0.2051 C   0  0  0  0  0  0  0  0  0  0  0  0
   -3.7020   -1.2969    0.5491 C   0  0  0  0  0  0  0  0  0  0  0  0
   -2.4142   -0.7863    0.5165 C   0  0  0  0  0  0  0  0  0  0  0  0
   -0.9022   -1.3171    1.3617 S   0  0  0  0  0  0  0  0  0  0  0  0
    1.1187    1.1445    2.8130 H   0  0  0  0  0  0  0  0  0  0  0  0
    1.5914    2.2003    1.4130 H   0  0  0  0  0  0  0  0  0  0  0  0
    2.8558    1.2376    2.2382 H   0  0  0  0  0  0  0  0  0  0  0  0
    1.9237   -0.8530    1.4051 H   0  0  0  0  0  0  0  0  0  0  0  0
    2.5015    1.0765   -1.9986 H   0  0  0  0  0  0  0  0  0  0  0  0
    4.8488    0.2353   -1.3157 H   0  0  0  0  0  0  0  0  0  0  0  0
    5.0686   -0.2999   -2.1459 H   0  0  0  0  0  0  0  0  0  0  0  0
   -0.2407    1.5181   -0.6658 H   0  0  0  0  0  0  0  0  0  0  0  0
   -2.8286    1.7892   -1.6142 H   0  0  0  0  0  0  0  0  0  0  0  0
   -5.0433    0.8832   -1.5365 H   0  0  0  0  0  0  0  0  0  0  0  0
   -5.6799   -1.0853   -0.1792 H   0  0  0  0  0  0  0  0  0  0  0  0
   -3.8544   -2.1456    1.1691 H   0  0  0  0  0  0  0  0  0  0  0  0
  1  2  1  0
  2  3  1  0
  3  4  1  0
  3  5  1  0
  5  6  1  0
  5  7  2  0
  2  8  1  0
  8  9  2  0
  9 10  1  0
 10 11  2  0
 11 12  1  0
 12 13  2  0
 13 14  1  0
 14 15  2  0
 15 16  1  0
 16  8  1  0
 15 10  1  0
  1 17  1  0
  1 18  1  0
  1 19  1  0
  2 20  1  0
  4 21  1  0
  6 22  1  0
  6 23  1  0
  9 24  1  0
 11 25  1  0
 12 26  1  0
 13 27  1  0
 14 28  1  0
M  END
$$$$
