@<TRIPOS>MOLECULE
*****
 42 45 0 0 0
SMALL
GASTEIGER

@<TRIPOS>ATOM
      1 C           7.3704    0.9563    0.6466 C.3     1  UNL1        0.0121
      2 C           6.0395    0.2757    0.7868 C.ar    1  UNL1        0.1929
      3 N           4.8253    0.7747    0.4958 N.ar    1  UNL1       -0.2089
      4 C           3.8698   -0.1321    0.7528 C.ar    1  UNL1        0.1638
      5 C           2.4023   -0.0164    0.5834 C.2     1  UNL1        0.2697
      6 O           1.6864   -0.9888    0.8855 O.2     1  UNL1       -0.2681
      7 N           1.8049    1.1585    0.0927 N.am    1  UNL1       -0.2802
      8 C           0.4232    1.4017   -0.1170 C.ar    1  UNL1        0.0342
      9 C           0.1068    2.6664   -0.6193 C.ar    1  UNL1       -0.0377
     10 C          -1.1939    2.9947   -0.8546 C.ar    1  UNL1       -0.0243
     11 C          -2.2087    2.0664   -0.5931 C.ar    1  UNL1        0.1292
     12 F          -3.4721    2.4453   -0.8880 F       1  UNL1       -0.2051
     13 C          -1.9440    0.8155   -0.0989 C.ar    1  UNL1        0.0228
     14 C          -3.0213   -0.1653    0.2307 C.3     1  UNL1        0.1603
     15 C          -3.8895    0.3476    1.3618 C.3     1  UNL1        0.2686
     16 F          -4.4895    1.5137    1.0271 F       1  UNL1       -0.2062
     17 F          -4.8759   -0.5697    1.6850 F       1  UNL1       -0.2062
     18 N          -3.8467   -0.4315   -0.9099 N.2     1  UNL1       -0.2194
     19 C          -3.4651   -1.1608   -1.8731 C.2     1  UNL1        0.2764
     20 N          -4.2847   -1.4372   -3.0386 N.pl3   1  UNL1       -0.3134
     21 O          -2.1761   -1.6982   -1.7406 O.2     1  UNL1       -0.4622
     22 C          -1.7805   -2.1791   -0.4894 C.3     1  UNL1        0.1091
     23 C          -2.8274   -2.7808    0.3899 C.3     1  UNL1       -0.0064
     24 C          -2.3125   -1.4263    0.6888 C.3     1  UNL1        0.0344
     25 C          -0.5939    0.5315    0.1233 C.ar    1  UNL1       -0.0321
     26 C           4.5458   -1.2347    1.2233 C.ar    1  UNL1        0.1245
     27 O           5.8455   -0.9440    1.2263 O.2     1  UNL1       -0.4474
     28 H           7.9833    0.6175    1.5062 H       1  UNL1        0.0324
     29 H           7.8087    0.6641   -0.3155 H       1  UNL1        0.0324
     30 H           7.2533    2.0581    0.6432 H       1  UNL1        0.0324
     31 H           2.5119    1.9289   -0.1346 H       1  UNL1        0.1552
     32 H           0.8721    3.3899   -0.8254 H       1  UNL1        0.0637
     33 H          -1.4844    3.9810   -1.2500 H       1  UNL1        0.0647
     34 H          -3.2421    0.5595    2.2611 H       1  UNL1        0.1047
     35 H          -4.8893   -2.2715   -3.0949 H       1  UNL1        0.1466
     36 H          -4.2603   -0.7733   -3.8396 H       1  UNL1        0.1466
     37 H          -0.7319   -2.5360   -0.4089 H       1  UNL1        0.0737
     38 H          -2.5066   -3.5882    1.0572 H       1  UNL1        0.0306
     39 H          -3.8231   -2.9420   -0.0835 H       1  UNL1        0.0306
     40 H          -1.7525   -1.2876    1.6215 H       1  UNL1        0.0366
     41 H          -0.3760   -0.4249    0.5067 H       1  UNL1        0.0640
     42 H           4.0988   -2.1582    1.5303 H       1  UNL1        0.1054
@<TRIPOS>BOND
     1     1     2    1
     2     2     3   ar
     3     3     4   ar
     4     4     5    1
     5     5     6    2
     6     5     7   am
     7     7     8    1
     8     8     9   ar
     9     9    10   ar
    10    10    11   ar
    11    11    12    1
    12    11    13   ar
    13    13    14    1
    14    14    15    1
    15    15    16    1
    16    15    17    1
    17    14    18    1
    18    18    19    2
    19    19    20    1
    20    19    21    1
    21    21    22    1
    22    22    23    1
    23    23    24    1
    24    13    25   ar
    25     4    26   ar
    26    26    27   ar
    27    27     2   ar
    28    25     8   ar
    29    24    14    1
    30    24    22    1
    31     1    28    1
    32     1    29    1
    33     1    30    1
    34     7    31    1
    35     9    32    1
    36    10    33    1
    37    15    34    1
    38    20    35    1
    39    20    36    1
    40    22    37    1
    41    23    38    1
    42    23    39    1
    43    24    40    1
    44    25    41    1
    45    26    42    1
