
     RDKit          3D

 42 45  0  0  0  0  0  0  0  0999 V2000
    7.3704    0.9563    0.6466 C   0  0  0  0  0  0  0  0  0  0  0  0
    6.0395    0.2757    0.7868 C   0  0  0  0  0  0  0  0  0  0  0  0
    4.8253    0.7747    0.4958 N   0  0  0  0  0  0  0  0  0  0  0  0
    3.8698   -0.1321    0.7528 C   0  0  0  0  0  0  0  0  0  0  0  0
    2.4023   -0.0164    0.5834 C   0  0  0  0  0  0  0  0  0  0  0  0
    1.6864   -0.9888    0.8855 O   0  0  0  0  0  0  0  0  0  0  0  0
    1.8049    1.1585    0.0927 N   0  0  0  0  0  0  0  0  0  0  0  0
    0.4232    1.4017   -0.1170 C   0  0  0  0  0  0  0  0  0  0  0  0
    0.1068    2.6664   -0.6193 C   0  0  0  0  0  0  0  0  0  0  0  0
   -1.1939    2.9947   -0.8546 C   0  0  0  0  0  0  0  0  0  0  0  0
   -2.2087    2.0664   -0.5931 C   0  0  0  0  0  0  0  0  0  0  0  0
   -3.4721    2.4453   -0.8880 F   0  0  0  0  0  0  0  0  0  0  0  0
   -1.9440    0.8155   -0.0989 C   0  0  0  0  0  0  0  0  0  0  0  0
   -3.0213   -0.1653    0.2307 C   0  0  1  0  0  0  0  0  0  0  0  0
   -3.8895    0.3476    1.3618 C   0  0  0  0  0  0  0  0  0  0  0  0
   -4.4895    1.5137    1.0271 F   0  0  0  0  0  0  0  0  0  0  0  0
   -4.8759   -0.5697    1.6850 F   0  0  0  0  0  0  0  0  0  0  0  0
   -3.8467   -0.4315   -0.9099 N   0  0  0  0  0  0  0  0  0  0  0  0
   -3.4651   -1.1608   -1.8731 C   0  0  0  0  0  0  0  0  0  0  0  0
   -4.2847   -1.4372   -3.0386 N   0  0  0  0  0  0  0  0  0  0  0  0
   -2.1761   -1.6982   -1.7406 O   0  0  0  0  0  0  0  0  0  0  0  0
   -1.7805   -2.1791   -0.4894 C   0  0  2  0  0  0  0  0  0  0  0  0
   -2.8274   -2.7808    0.3899 C   0  0  0  0  0  0  0  0  0  0  0  0
   -2.3125   -1.4263    0.6888 C   0  0  2  0  0  0  0  0  0  0  0  0
   -0.5939    0.5315    0.1233 C   0  0  0  0  0  0  0  0  0  0  0  0
    4.5458   -1.2347    1.2233 C   0  0  0  0  0  0  0  0  0  0  0  0
    5.8455   -0.9440    1.2263 O   0  0  0  0  0  0  0  0  0  0  0  0
    7.9833    0.6175    1.5062 H   0  0  0  0  0  0  0  0  0  0  0  0
    7.8087    0.6641   -0.3155 H   0  0  0  0  0  0  0  0  0  0  0  0
    7.2533    2.0581    0.6432 H   0  0  0  0  0  0  0  0  0  0  0  0
    2.5119    1.9289   -0.1346 H   0  0  0  0  0  0  0  0  0  0  0  0
    0.8721    3.3899   -0.8254 H   0  0  0  0  0  0  0  0  0  0  0  0
   -1.4844    3.9810   -1.2500 H   0  0  0  0  0  0  0  0  0  0  0  0
   -3.2421    0.5595    2.2611 H   0  0  0  0  0  0  0  0  0  0  0  0
   -4.8893   -2.2715   -3.0949 H   0  0  0  0  0  0  0  0  0  0  0  0
   -4.2603   -0.7733   -3.8396 H   0  0  0  0  0  0  0  0  0  0  0  0
   -0.7319   -2.5360   -0.4089 H   0  0  0  0  0  0  0  0  0  0  0  0
   -2.5066   -3.5882    1.0572 H   0  0  0  0  0  0  0  0  0  0  0  0
   -3.8231   -2.9420   -0.0835 H   0  0  0  0  0  0  0  0  0  0  0  0
   -1.7525   -1.2876    1.6215 H   0  0  0  0  0  0  0  0  0  0  0  0
   -0.3760   -0.4249    0.5067 H   0  0  0  0  0  0  0  0  0  0  0  0
    4.0988   -2.1582    1.5303 H   0  0  0  0  0  0  0  0  0  0  0  0
  1  2  1  0
  2  3  2  0
  3  4  1  0
  4  5  1  0
  5  6  2  0
  5  7  1  0
  7  8  1  0
  8  9  2  0
  9 10  1  0
 10 11  2  0
 11 12  1  0
 11 13  1  0
 13 14  1  0
 14 15  1  1
 15 16  1  0
 15 17  1  0
 14 18  1  0
 18 19  2  0
 19 20  1  0
 19 21  1  0
 21 22  1  0
 22 23  1  0
 23 24  1  0
 13 25  2  0
  4 26  2  0
 26 27  1  0
 27  2  1  0
 25  8  1  0
 24 14  1  0
 24 22  1  0
  1 28  1  0
  1 29  1  0
  1 30  1  0
  7 31  1  0
  9 32  1  0
 10 33  1  0
 15 34  1  0
 20 35  1  0
 20 36  1  0
 22 37  1  6
 23 38  1  0
 23 39  1  0
 24 40  1  1
 25 41  1  0
 26 42  1  0
M  END
$$$$
