@<TRIPOS>MOLECULE
*****
 44 48 0 0 0
SMALL
GASTEIGER

@<TRIPOS>ATOM
      1 N           8.6057   -0.4126    1.1362 N.am    1  UNL1       -0.3253
      2 C           7.8898   -0.4777   -0.0700 C.2     1  UNL1        0.2415
      3 O           8.4444   -0.6493   -1.1853 O.2     1  UNL1       -0.2704
      4 C           6.4275   -0.3386   -0.0196 C.ar    1  UNL1        0.0365
      5 C           5.6853   -0.3867   -1.1824 C.ar    1  UNL1       -0.0491
      6 C           4.3225   -0.2550   -1.1077 C.ar    1  UNL1       -0.0533
      7 C           3.6304   -0.0741    0.0738 C.ar    1  UNL1       -0.0178
      8 C           2.1958    0.0655    0.1367 C.ar    1  UNL1       -0.0177
      9 C           1.5437    0.6702   -0.9214 C.ar    1  UNL1       -0.0506
     10 C           0.1733    0.8401   -0.9350 C.ar    1  UNL1       -0.0188
     11 C          -0.6018    0.4065    0.1205 C.ar    1  UNL1        0.1286
     12 O          -1.9763    0.5488    0.1638 O.3     1  UNL1       -0.4539
     13 C          -2.8264   -0.4411   -0.3502 C.ar    1  UNL1        0.1546
     14 C          -2.2700   -1.5446   -0.8944 C.ar    1  UNL1        0.0704
     15 N          -2.9483   -2.5637   -1.4197 N.ar    1  UNL1       -0.2585
     16 C          -4.3108   -2.4643   -1.3957 C.ar    1  UNL1        0.0421
     17 C          -4.9120   -1.3589   -0.8515 C.ar    1  UNL1        0.0416
     18 S          -6.6193   -0.8519   -0.6283 S.2     1  UNL1       -0.0835
     19 C          -6.2828    0.7146    0.1659 C.ar    1  UNL1        0.0589
     20 C          -7.2763    1.6459    0.6159 C.ar    1  UNL1        0.1860
     21 N          -7.0016    2.8077    1.2052 N.ar    1  UNL1       -0.1078
     22 N          -8.1494    3.4100    1.4868 N.ar    1  UNL1       -0.0229
     23 N          -9.1521    2.6414    1.0820 N.ar    1  UNL1       -0.0464
     24 N          -8.6155    1.5586    0.5475 N.ar    1  UNL1       -0.2384
     25 C          -4.9142    0.7358    0.2021 C.ar    1  UNL1       -0.0325
     26 C          -4.2281   -0.2901   -0.3011 C.ar    1  UNL1        0.0351
     27 C           0.0392   -0.1995    1.1833 C.ar    1  UNL1       -0.0188
     28 C           1.4134   -0.3657    1.1888 C.ar    1  UNL1       -0.0506
     29 C           4.3914   -0.0285    1.2275 C.ar    1  UNL1       -0.0533
     30 C           5.7623   -0.1591    1.1724 C.ar    1  UNL1       -0.0491
     31 H           9.2726   -1.2047    1.3377 H       1  UNL1        0.1453
     32 H           8.5217    0.3564    1.8345 H       1  UNL1        0.1453
     33 H           6.1968   -0.5275   -2.1279 H       1  UNL1        0.0625
     34 H           3.7774   -0.3004   -2.0593 H       1  UNL1        0.0624
     35 H           2.1373    1.0198   -1.7646 H       1  UNL1        0.0625
     36 H          -0.3447    1.3128   -1.7590 H       1  UNL1        0.0654
     37 H          -1.1712   -1.6306   -0.9167 H       1  UNL1        0.0867
     38 H          -4.9311   -3.2399   -1.7973 H       1  UNL1        0.0841
     39 H          -9.1342    0.7619    0.1376 H       1  UNL1        0.1923
     40 H          -4.4536    1.6650    0.6776 H       1  UNL1        0.0637
     41 H          -0.5526   -0.5428    2.0133 H       1  UNL1        0.0654
     42 H           1.9204   -0.8377    2.0151 H       1  UNL1        0.0625
     43 H           3.9553    0.1090    2.2045 H       1  UNL1        0.0624
     44 H           6.3659   -0.1246    2.0667 H       1  UNL1        0.0625
@<TRIPOS>BOND
     1     1     2   am
     2     2     3    2
     3     2     4    1
     4     4     5   ar
     5     5     6   ar
     6     6     7   ar
     7     7     8    1
     8     8     9   ar
     9     9    10   ar
    10    10    11   ar
    11    11    12    1
    12    12    13    1
    13    13    14   ar
    14    14    15   ar
    15    15    16   ar
    16    16    17   ar
    17    17    18   ar
    18    18    19   ar
    19    19    20    1
    20    20    21   ar
    21    21    22   ar
    22    22    23   ar
    23    23    24   ar
    24    19    25   ar
    25    25    26   ar
    26    11    27   ar
    27    27    28   ar
    28     7    29   ar
    29    29    30   ar
    30    30     4   ar
    31    28     8   ar
    32    26    13   ar
    33    26    17   ar
    34    24    20   ar
    35     1    31    1
    36     1    32    1
    37     5    33    1
    38     6    34    1
    39     9    35    1
    40    10    36    1
    41    14    37    1
    42    16    38    1
    43    24    39    1
    44    25    40    1
    45    27    41    1
    46    28    42    1
    47    29    43    1
    48    30    44    1
