@<TRIPOS>MOLECULE
*****
 45 48 0 0 0
SMALL
GASTEIGER

@<TRIPOS>ATOM
      1 C          -2.2283   -1.3605    1.3701 C.3     1  UNL1        0.0023
      2 N          -2.0413   -0.1070    0.6957 N.pl3   1  UNL1       -0.3146
      3 C          -3.2161    0.6547    0.4436 C.ar    1  UNL1        0.1337
      4 N          -3.3572    1.9099    0.9680 N.ar    1  UNL1       -0.2200
      5 C          -4.4471    2.6457    0.7488 C.ar    1  UNL1        0.1204
      6 N          -5.4424    2.1743    0.0039 N.ar    1  UNL1       -0.2178
      7 C          -5.3865    0.9470   -0.5517 C.ar    1  UNL1        0.1432
      8 N          -6.2554    0.2933   -1.3177 N.ar    1  UNL1       -0.3457
      9 C          -5.7082   -0.8922   -1.5967 C.ar    1  UNL1        0.0042
     10 C          -4.4653   -0.9874   -0.9922 C.ar    1  UNL1       -0.0318
     11 C          -4.2507    0.1952   -0.3162 C.ar    1  UNL1        0.0585
     12 C          -0.8056    0.4364    0.2625 C.3     1  UNL1        0.0251
     13 C           0.1191    0.6342    1.4750 C.3     1  UNL1       -0.0299
     14 C           1.2046   -0.0245    0.6725 C.3     1  UNL1       -0.0179
     15 C           1.8750   -1.2004    1.3174 C.3     1  UNL1        0.0738
     16 S           3.1102   -1.8032    0.1866 S.O2    1  UNL1       -0.0028
     17 O           3.7918   -3.0074    0.8211 O.2     1  UNL1       -0.1693
     18 O           2.4603   -2.2795   -1.0790 O.2     1  UNL1       -0.1693
     19 C           4.2641   -0.5390   -0.1266 C.ar    1  UNL1        0.0882
     20 C           5.4051   -0.3395    0.6166 C.ar    1  UNL1       -0.0369
     21 C           6.3046    0.6634    0.3551 C.ar    1  UNL1       -0.0600
     22 C           6.0304    1.4994   -0.7094 C.ar    1  UNL1       -0.0616
     23 C           4.9058    1.3387   -1.4779 C.ar    1  UNL1       -0.0600
     24 C           4.0266    0.3179   -1.1817 C.ar    1  UNL1       -0.0369
     25 C           0.2012   -0.4638   -0.3591 C.3     1  UNL1       -0.0299
     26 H          -3.2044   -1.4195    1.8930 H       1  UNL1        0.0428
     27 H          -1.4647   -1.5141    2.1878 H       1  UNL1        0.0428
     28 H          -2.1586   -2.2412    0.7092 H       1  UNL1        0.0428
     29 H          -4.5224    3.6245    1.1759 H       1  UNL1        0.1048
     30 H          -7.1770    0.6615   -1.6240 H       1  UNL1        0.1668
     31 H          -6.1563   -1.6573   -2.1958 H       1  UNL1        0.0807
     32 H          -3.7655   -1.7979   -1.0129 H       1  UNL1        0.0640
     33 H          -0.9018    1.4119   -0.2515 H       1  UNL1        0.0500
     34 H          -0.1653    0.0442    2.3629 H       1  UNL1        0.0286
     35 H           0.2978    1.6880    1.7415 H       1  UNL1        0.0286
     36 H           1.9220    0.7570    0.3165 H       1  UNL1        0.0318
     37 H           2.3140   -0.8746    2.2693 H       1  UNL1        0.0507
     38 H           1.1143   -1.9704    1.5254 H       1  UNL1        0.0507
     39 H           5.5649   -1.0318    1.4426 H       1  UNL1        0.0636
     40 H           7.1943    0.8005    0.9531 H       1  UNL1        0.0618
     41 H           6.7242    2.2915   -0.9297 H       1  UNL1        0.0618
     42 H           4.6582    1.9719   -2.3173 H       1  UNL1        0.0618
     43 H           3.1367    0.1810   -1.7801 H       1  UNL1        0.0636
     44 H           0.5144   -0.0980   -1.3613 H       1  UNL1        0.0286
     45 H          -0.0195   -1.5327   -0.4120 H       1  UNL1        0.0286
@<TRIPOS>BOND
     1     1     2    1
     2     2     3    1
     3     3     4   ar
     4     4     5   ar
     5     5     6   ar
     6     6     7   ar
     7     7     8   ar
     8     8     9   ar
     9     9    10   ar
    10    10    11   ar
    11     2    12    1
    12    12    13    1
    13    13    14    1
    14    14    15    1
    15    15    16    1
    16    16    17    2
    17    16    18    2
    18    16    19    1
    19    19    20   ar
    20    20    21   ar
    21    21    22   ar
    22    22    23   ar
    23    23    24   ar
    24    14    25    1
    25    11     3   ar
    26    25    12    1
    27    11     7   ar
    28    24    19   ar
    29     1    26    1
    30     1    27    1
    31     1    28    1
    32     5    29    1
    33     8    30    1
    34     9    31    1
    35    10    32    1
    36    12    33    1
    37    13    34    1
    38    13    35    1
    39    14    36    1
    40    15    37    1
    41    15    38    1
    42    20    39    1
    43    21    40    1
    44    22    41    1
    45    23    42    1
    46    24    43    1
    47    25    44    1
    48    25    45    1
