
     RDKit          3D

 40 43  0  0  0  0  0  0  0  0999 V2000
    7.3635   -1.2846   -0.0855 C   0  0  0  0  0  0  0  0  0  0  0  0
    6.1008   -0.5314   -0.4530 C   0  0  0  0  0  0  0  0  0  0  0  0
    5.9811   -0.0692   -1.7596 N   0  0  0  0  0  0  0  0  0  0  0  0
    4.3263    0.7436   -1.7358 S   0  0  0  0  0  0  0  0  0  0  0  0
    4.0689    0.3291    0.0134 C   0  0  0  0  0  0  0  0  0  0  0  0
    2.8143    0.7163    0.7146 C   0  0  0  0  0  0  0  0  0  0  0  0
    2.6547    1.4546    1.8206 N   0  0  0  0  0  0  0  0  0  0  0  0
    1.3578    1.5463    2.0897 N   0  0  0  0  0  0  0  0  0  0  0  0
    0.6872    0.8539    1.1381 C   0  0  0  0  0  0  0  0  0  0  0  0
    1.5996    0.3512    0.3040 N   0  0  0  0  0  0  0  0  0  0  0  0
    1.1263   -0.4727   -0.8284 C   0  0  0  0  0  0  0  0  0  0  0  0
    0.1185   -1.4070   -0.1778 C   0  0  0  0  0  0  0  0  0  0  0  0
   -1.0550   -0.5512    0.1601 N   0  0  0  0  0  0  0  0  0  0  0  0
   -2.2636   -1.0416   -0.3094 C   0  0  0  0  0  0  0  0  0  0  0  0
   -2.3138   -2.1692   -0.9763 O   0  0  0  0  0  0  0  0  0  0  0  0
   -3.5708   -0.4530   -0.1507 C   0  0  0  0  0  0  0  0  0  0  0  0
   -4.4682   -1.0895    0.7369 C   0  0  0  0  0  0  0  0  0  0  0  0
   -5.7274   -0.6094    0.8827 C   0  0  0  0  0  0  0  0  0  0  0  0
   -6.2015    0.4970    0.1958 C   0  0  0  0  0  0  0  0  0  0  0  0
   -7.4799    0.9367    0.3785 F   0  0  0  0  0  0  0  0  0  0  0  0
   -5.3065    1.0912   -0.6577 C   0  0  0  0  0  0  0  0  0  0  0  0
   -4.0138    0.6455   -0.8450 C   0  0  0  0  0  0  0  0  0  0  0  0
   -0.7928    0.6201    0.9281 C   0  0  2  0  0  0  0  0  0  0  0  0
   -1.2790    1.9238    0.2972 C   0  0  0  0  0  0  0  0  0  0  0  0
    5.0984   -0.2679    0.3023 N   0  0  0  0  0  0  0  0  0  0  0  0
    7.4685   -1.2698    1.0205 H   0  0  0  0  0  0  0  0  0  0  0  0
    8.2138   -0.7694   -0.5570 H   0  0  0  0  0  0  0  0  0  0  0  0
    7.2799   -2.3452   -0.3867 H   0  0  0  0  0  0  0  0  0  0  0  0
    0.6141    0.2167   -1.5177 H   0  0  0  0  0  0  0  0  0  0  0  0
    1.9636   -1.0224   -1.2967 H   0  0  0  0  0  0  0  0  0  0  0  0
   -0.1613   -2.2571   -0.7935 H   0  0  0  0  0  0  0  0  0  0  0  0
    0.5708   -1.7251    0.7971 H   0  0  0  0  0  0  0  0  0  0  0  0
   -4.0965   -1.9766    1.2896 H   0  0  0  0  0  0  0  0  0  0  0  0
   -6.4214   -1.1020    1.5612 H   0  0  0  0  0  0  0  0  0  0  0  0
   -5.6249    1.9792   -1.2320 H   0  0  0  0  0  0  0  0  0  0  0  0
   -3.3393    1.1515   -1.5386 H   0  0  0  0  0  0  0  0  0  0  0  0
   -1.2763    0.5190    1.9525 H   0  0  0  0  0  0  0  0  0  0  0  0
   -0.5724    2.7743    0.5779 H   0  0  0  0  0  0  0  0  0  0  0  0
   -1.1927    1.8116   -0.7836 H   0  0  0  0  0  0  0  0  0  0  0  0
   -2.2510    2.2527    0.6835 H   0  0  0  0  0  0  0  0  0  0  0  0
  1  2  1  0
  2  3  2  0
  3  4  1  0
  4  5  1  0
  5  6  1  0
  6  7  2  0
  7  8  1  0
  8  9  2  0
  9 10  1  0
 10 11  1  0
 11 12  1  0
 12 13  1  0
 13 14  1  0
 14 15  2  0
 14 16  1  0
 16 17  2  0
 17 18  1  0
 18 19  2  0
 19 20  1  0
 19 21  1  0
 21 22  2  0
 13 23  1  0
 23 24  1  0
  5 25  2  0
 25  2  1  0
 10  6  1  0
 22 16  1  0
 23  9  1  0
  1 26  1  0
  1 27  1  0
  1 28  1  0
 11 29  1  0
 11 30  1  0
 12 31  1  0
 12 32  1  0
 17 33  1  0
 18 34  1  0
 21 35  1  0
 22 36  1  0
 23 37  1  1
 24 38  1  0
 24 39  1  0
 24 40  1  0
M  END
$$$$
