@<TRIPOS>MOLECULE
*****
 40 43 0 0 0
SMALL
GASTEIGER

@<TRIPOS>ATOM
      1 C           7.3635   -1.2846   -0.0855 C.3     1  UNL1       -0.0039
      2 C           6.1008   -0.5314   -0.4530 C.ar    1  UNL1        0.1359
      3 N           5.9811   -0.0692   -1.7596 N.ar    1  UNL1       -0.1939
      4 S           4.3263    0.7436   -1.7358 S.2     1  UNL1        0.0369
      5 C           4.0689    0.3291    0.0134 C.ar    1  UNL1        0.1652
      6 C           2.8143    0.7163    0.7146 C.ar    1  UNL1        0.1910
      7 N           2.6547    1.4546    1.8206 N.ar    1  UNL1       -0.1269
      8 N           1.3578    1.5463    2.0897 N.ar    1  UNL1       -0.1320
      9 C           0.6872    0.8539    1.1381 C.ar    1  UNL1        0.1542
     10 N           1.5996    0.3512    0.3040 N.ar    1  UNL1       -0.3062
     11 C           1.1263   -0.4727   -0.8284 C.3     1  UNL1        0.0423
     12 C           0.1185   -1.4070   -0.1778 C.3     1  UNL1        0.0338
     13 N          -1.0550   -0.5512    0.1601 N.am    1  UNL1       -0.2860
     14 C          -2.2636   -1.0416   -0.3094 C.2     1  UNL1        0.2472
     15 O          -2.3138   -2.1692   -0.9763 O.2     1  UNL1       -0.2700
     16 C          -3.5708   -0.4530   -0.1507 C.ar    1  UNL1        0.0371
     17 C          -4.4682   -1.0895    0.7369 C.ar    1  UNL1       -0.0469
     18 C          -5.7274   -0.6094    0.8827 C.ar    1  UNL1       -0.0257
     19 C          -6.2015    0.4970    0.1958 C.ar    1  UNL1        0.1234
     20 F          -7.4799    0.9367    0.3785 F       1  UNL1       -0.2055
     21 C          -5.3065    1.0912   -0.6577 C.ar    1  UNL1       -0.0257
     22 C          -4.0138    0.6455   -0.8450 C.ar    1  UNL1       -0.0469
     23 C          -0.7928    0.6201    0.9281 C.3     1  UNL1        0.0834
     24 C          -1.2790    1.9238    0.2972 C.3     1  UNL1       -0.0393
     25 N           5.0984   -0.2679    0.3023 N.ar    1  UNL1       -0.2199
     26 H           7.4685   -1.2698    1.0205 H       1  UNL1        0.0308
     27 H           8.2138   -0.7694   -0.5570 H       1  UNL1        0.0308
     28 H           7.2799   -2.3452   -0.3867 H       1  UNL1        0.0308
     29 H           0.6141    0.2167   -1.5177 H       1  UNL1        0.0508
     30 H           1.9636   -1.0224   -1.2967 H       1  UNL1        0.0508
     31 H          -0.1613   -2.2571   -0.7935 H       1  UNL1        0.0482
     32 H           0.5708   -1.7251    0.7971 H       1  UNL1        0.0482
     33 H          -4.0965   -1.9766    1.2896 H       1  UNL1        0.0626
     34 H          -6.4214   -1.1020    1.5612 H       1  UNL1        0.0646
     35 H          -5.6249    1.9792   -1.2320 H       1  UNL1        0.0646
     36 H          -3.3393    1.1515   -1.5386 H       1  UNL1        0.0626
     37 H          -1.2763    0.5190    1.9525 H       1  UNL1        0.0579
     38 H          -0.5724    2.7743    0.5779 H       1  UNL1        0.0252
     39 H          -1.1927    1.8116   -0.7836 H       1  UNL1        0.0252
     40 H          -2.2510    2.2527    0.6835 H       1  UNL1        0.0252
@<TRIPOS>BOND
     1     1     2    1
     2     2     3   ar
     3     3     4   ar
     4     4     5   ar
     5     5     6    1
     6     6     7   ar
     7     7     8   ar
     8     8     9   ar
     9     9    10   ar
    10    10    11    1
    11    11    12    1
    12    12    13    1
    13    13    14   am
    14    14    15    2
    15    14    16    1
    16    16    17   ar
    17    17    18   ar
    18    18    19   ar
    19    19    20    1
    20    19    21   ar
    21    21    22   ar
    22    13    23    1
    23    23    24    1
    24     5    25   ar
    25    25     2   ar
    26    10     6   ar
    27    22    16   ar
    28    23     9    1
    29     1    26    1
    30     1    27    1
    31     1    28    1
    32    11    29    1
    33    11    30    1
    34    12    31    1
    35    12    32    1
    36    17    33    1
    37    18    34    1
    38    21    35    1
    39    22    36    1
    40    23    37    1
    41    24    38    1
    42    24    39    1
    43    24    40    1
