@<TRIPOS>MOLECULE
*****
 65 70 0 0 0
SMALL
GASTEIGER

@<TRIPOS>ATOM
      1 O          -4.3598    2.9490    1.4689 O.2     1  UNL1       -0.2510
      2 C          -5.4877    2.8136    0.9425 C.2     1  UNL1        0.3053
      3 O          -6.3327    3.9109    0.8603 O.3     1  UNL1       -0.4806
      4 C          -5.9131    1.5218    0.4210 C.3     1  UNL1        0.0516
      5 C          -4.8304    0.5031    0.5912 C.3     1  UNL1       -0.0047
      6 C          -3.5447    0.8189   -0.1113 C.3     1  UNL1       -0.0359
      7 C          -2.8818   -0.5680   -0.1426 C.3     1  UNL1        0.0005
      8 C          -2.2996   -0.9247    1.1837 C.3     1  UNL1       -0.0273
      9 C          -1.2961    0.0669    1.6612 C.3     1  UNL1        0.0169
     10 N          -0.2605    0.2015    0.6568 N.am    1  UNL1       -0.2856
     11 C           1.0821    0.1075    1.0453 C.2     1  UNL1        0.3024
     12 O           1.3307   -0.0954    2.2753 O.2     1  UNL1       -0.2526
     13 N           2.2162    0.2183    0.1859 N.am    1  UNL1       -0.2959
     14 C           3.5429    0.0996    0.7324 C.3     1  UNL1        0.0302
     15 C           4.3768    1.3173    0.4823 C.3     1  UNL1       -0.0218
     16 C           4.6157    1.5488   -0.9897 C.3     1  UNL1       -0.0456
     17 C           5.3390    0.3606   -1.5344 C.3     1  UNL1       -0.0402
     18 C           6.6572    0.0850   -0.8415 C.3     1  UNL1       -0.0473
     19 C           6.4226   -0.0891    0.6253 C.3     1  UNL1       -0.0402
     20 C           5.7357    1.1519    1.1305 C.3     1  UNL1       -0.0456
     21 C           5.5778   -1.3277    0.8477 C.3     1  UNL1       -0.0456
     22 C           4.2508   -1.0840    0.1331 C.3     1  UNL1       -0.0218
     23 C           4.4545   -0.8623   -1.3272 C.3     1  UNL1       -0.0456
     24 C          -0.6542    0.4253   -0.6853 C.3     1  UNL1        0.0169
     25 C          -1.7682   -0.4955   -1.1458 C.3     1  UNL1       -0.0273
     26 C          -4.0130   -1.4087   -0.5216 C.ar    1  UNL1       -0.0237
     27 C          -4.2002   -2.6194   -1.1747 C.ar    1  UNL1        0.0218
     28 BR         -2.7166   -3.5780   -1.8115 Br      1  UNL1       -0.0500
     29 C          -5.4481   -3.1800   -1.3878 C.ar    1  UNL1       -0.0475
     30 C          -6.5724   -2.5604   -0.9595 C.ar    1  UNL1       -0.0604
     31 C          -6.4246   -1.3368   -0.2959 C.ar    1  UNL1       -0.0580
     32 C          -5.1773   -0.7921   -0.0917 C.ar    1  UNL1       -0.0390
     33 H          -5.9487    4.8626    0.8237 H       1  UNL1        0.2951
     34 H          -6.2512    1.5689   -0.6380 H       1  UNL1        0.0383
     35 H          -6.8014    1.1216    0.9926 H       1  UNL1        0.0383
     36 H          -4.6935    0.3433    1.6834 H       1  UNL1        0.0354
     37 H          -2.9094    1.5675    0.3365 H       1  UNL1        0.0280
     38 H          -3.8170    1.0407   -1.1748 H       1  UNL1        0.0280
     39 H          -3.0634   -1.1671    1.9518 H       1  UNL1        0.0289
     40 H          -1.7408   -1.8918    1.0296 H       1  UNL1        0.0289
     41 H          -1.6912    1.0783    1.8659 H       1  UNL1        0.0465
     42 H          -0.8804   -0.2740    2.6379 H       1  UNL1        0.0465
     43 H           2.0835    0.3895   -0.8322 H       1  UNL1        0.1505
     44 H           3.4972   -0.0259    1.8505 H       1  UNL1        0.0504
     45 H           3.9329    2.2442    0.8911 H       1  UNL1        0.0319
     46 H           5.1738    2.4966   -1.1139 H       1  UNL1        0.0271
     47 H           3.6288    1.5978   -1.4752 H       1  UNL1        0.0271
     48 H           5.5363    0.5320   -2.6095 H       1  UNL1        0.0301
     49 H           7.4091    0.8495   -1.0835 H       1  UNL1        0.0271
     50 H           7.0175   -0.8907   -1.2378 H       1  UNL1        0.0271
     51 H           7.3869   -0.2002    1.1643 H       1  UNL1        0.0301
     52 H           5.6854    1.1691    2.2294 H       1  UNL1        0.0271
     53 H           6.3569    2.0215    0.8048 H       1  UNL1        0.0271
     54 H           5.3685   -1.5023    1.9077 H       1  UNL1        0.0271
     55 H           6.0766   -2.1719    0.3614 H       1  UNL1        0.0271
     56 H           3.5932   -1.9672    0.2690 H       1  UNL1        0.0319
     57 H           4.9336   -1.7422   -1.8144 H       1  UNL1        0.0271
     58 H           3.4850   -0.6430   -1.8049 H       1  UNL1        0.0271
     59 H           0.1928    0.4512   -1.3498 H       1  UNL1        0.0465
     60 H          -1.1083    1.4618   -0.7272 H       1  UNL1        0.0465
     61 H          -2.1436   -0.0632   -2.0953 H       1  UNL1        0.0289
     62 H          -1.2918   -1.4499   -1.3941 H       1  UNL1        0.0289
     63 H          -5.5604   -4.1307   -1.9036 H       1  UNL1        0.0629
     64 H          -7.5474   -2.9937   -1.1235 H       1  UNL1        0.0618
     65 H          -7.3306   -0.8606    0.0366 H       1  UNL1        0.0620
@<TRIPOS>BOND
     1     1     2    2
     2     2     3    1
     3     2     4    1
     4     4     5    1
     5     5     6    1
     6     6     7    1
     7     7     8    1
     8     8     9    1
     9     9    10    1
    10    10    11   am
    11    11    12    2
    12    11    13   am
    13    13    14    1
    14    14    15    1
    15    15    16    1
    16    16    17    1
    17    17    18    1
    18    18    19    1
    19    19    20    1
    20    19    21    1
    21    21    22    1
    22    22    23    1
    23    10    24    1
    24    24    25    1
    25     7    26    1
    26    26    27   ar
    27    27    28    1
    28    27    29   ar
    29    29    30   ar
    30    30    31   ar
    31    31    32   ar
    32    32     5    1
    33    25     7    1
    34    32    26   ar
    35    22    14    1
    36    20    15    1
    37    23    17    1
    38     3    33    1
    39     4    34    1
    40     4    35    1
    41     5    36    1
    42     6    37    1
    43     6    38    1
    44     8    39    1
    45     8    40    1
    46     9    41    1
    47     9    42    1
    48    13    43    1
    49    14    44    1
    50    15    45    1
    51    16    46    1
    52    16    47    1
    53    17    48    1
    54    18    49    1
    55    18    50    1
    56    19    51    1
    57    20    52    1
    58    20    53    1
    59    21    54    1
    60    21    55    1
    61    22    56    1
    62    23    57    1
    63    23    58    1
    64    24    59    1
    65    24    60    1
    66    25    61    1
    67    25    62    1
    68    29    63    1
    69    30    64    1
    70    31    65    1
