@<TRIPOS>MOLECULE
*****
 84 87 0 0 0
SMALL
GASTEIGER

@<TRIPOS>ATOM
      1 C          -7.2852    0.6434   -3.1347 C.3     1  UNL1       -0.0610
      2 C          -5.9525    1.1861   -3.5289 C.3     1  UNL1       -0.0239
      3 C          -4.8115    0.3347   -3.1145 C.ar    1  UNL1        0.0348
      4 C          -3.9711    0.6059   -2.0576 C.ar    1  UNL1        0.0158
      5 N          -2.9416   -0.2241   -1.7388 N.ar    1  UNL1       -0.3177
      6 C          -2.0382    0.1462   -0.6486 C.3     1  UNL1        0.1015
      7 C          -0.9857    1.0667   -1.1310 C.2     1  UNL1        0.2357
      8 O          -1.0537    1.4711   -2.3202 O.2     1  UNL1       -0.2736
      9 N           0.1090    1.5459   -0.3545 N.am    1  UNL1       -0.2945
     10 C           1.0392    2.5081   -0.8354 C.3     1  UNL1        0.0278
     11 C           0.7385    3.9445   -0.6936 C.3     1  UNL1        0.0147
     12 N           0.4908    4.5140    0.5567 N.3     1  UNL1       -0.3014
     13 C          -0.7156    4.2696    1.2374 C.3     1  UNL1       -0.0039
     14 C          -0.7578    4.9428    2.6192 C.3     1  UNL1       -0.0524
     15 C           1.1968    5.7030    0.8921 C.3     1  UNL1       -0.0039
     16 C           0.7158    6.8560    0.0102 C.3     1  UNL1       -0.0524
     17 C           0.3911    0.9585    0.9751 C.3     1  UNL1        0.0398
     18 C           1.4974   -0.0365    0.9018 C.ar    1  UNL1       -0.0301
     19 C           1.3667   -1.3449    0.5304 C.ar    1  UNL1       -0.0565
     20 C           2.4567   -2.2293    0.4973 C.ar    1  UNL1       -0.0537
     21 C           3.7048   -1.7956    0.8431 C.ar    1  UNL1       -0.0179
     22 C           4.8608   -2.6948    0.8114 C.ar    1  UNL1       -0.0179
     23 C           5.9192   -2.5370    1.6927 C.ar    1  UNL1       -0.0535
     24 C           7.0174   -3.3703    1.6779 C.ar    1  UNL1       -0.0495
     25 C           7.1025   -4.4060    0.7708 C.ar    1  UNL1        0.0548
     26 C           8.2901   -5.3191    0.7418 C.3     1  UNL1        0.4174
     27 F           7.9592   -6.5813    0.3035 F       1  UNL1       -0.1659
     28 F           8.7911   -5.3853    2.0259 F       1  UNL1       -0.1659
     29 F           9.2947   -4.7614   -0.0472 F       1  UNL1       -0.1659
     30 C           6.0508   -4.5666   -0.1087 C.ar    1  UNL1       -0.0495
     31 C           4.9490   -3.7342   -0.0967 C.ar    1  UNL1       -0.0535
     32 C           3.8562   -0.4793    1.2214 C.ar    1  UNL1       -0.0537
     33 C           2.7928    0.3720    1.2510 C.ar    1  UNL1       -0.0565
     34 C          -2.7000   -1.3409   -2.4345 C.ar    1  UNL1        0.1733
     35 S          -1.3991   -2.5030   -2.0018 S.3     1  UNL1       -0.0829
     36 C          -2.0129   -3.8148   -0.9379 C.3     1  UNL1        0.0262
     37 C          -2.4677   -3.3912    0.3866 C.ar    1  UNL1       -0.0370
     38 C          -3.7690   -2.9979    0.5972 C.ar    1  UNL1       -0.0551
     39 C          -4.1406   -2.6130    1.8685 C.ar    1  UNL1       -0.0262
     40 C          -3.2792   -2.6003    2.9420 C.ar    1  UNL1        0.1234
     41 F          -3.6685   -2.2167    4.1858 F       1  UNL1       -0.2055
     42 C          -1.9854   -2.9971    2.7061 C.ar    1  UNL1       -0.0262
     43 C          -1.5951   -3.3833    1.4516 C.ar    1  UNL1       -0.0551
     44 N          -3.5319   -1.6092   -3.4815 N.ar    1  UNL1       -0.1848
     45 C          -4.5573   -0.8142   -3.8278 C.ar    1  UNL1        0.2770
     46 O          -5.2972   -1.1137   -4.8098 O.2     1  UNL1       -0.2655
     47 H          -7.6970    0.0731   -3.9941 H       1  UNL1        0.0233
     48 H          -8.0270    1.4679   -2.9380 H       1  UNL1        0.0233
     49 H          -7.2527   -0.0747   -2.2887 H       1  UNL1        0.0233
     50 H          -5.9511    1.3223   -4.6500 H       1  UNL1        0.0313
     51 H          -5.8741    2.2162   -3.1259 H       1  UNL1        0.0313
     52 H          -4.1693    1.5121   -1.4935 H       1  UNL1        0.0814
     53 H          -1.6679   -0.7123   -0.0754 H       1  UNL1        0.0588
     54 H          -2.7278    0.6805    0.0829 H       1  UNL1        0.0588
     55 H           1.1764    2.2456   -1.9446 H       1  UNL1        0.0477
     56 H           2.0670    2.2586   -0.4336 H       1  UNL1        0.0477
     57 H          -0.0473    4.2862   -1.4578 H       1  UNL1        0.0442
     58 H           1.6570    4.4891   -1.1130 H       1  UNL1        0.0442
     59 H          -1.5185    4.8598    0.6676 H       1  UNL1        0.0424
     60 H          -1.1173    3.2718    1.2919 H       1  UNL1        0.0424
     61 H           0.1175    4.7030    3.2269 H       1  UNL1        0.0242
     62 H          -0.9613    6.0261    2.5092 H       1  UNL1        0.0242
     63 H          -1.6972    4.5271    3.0923 H       1  UNL1        0.0242
     64 H           2.2938    5.5434    0.7496 H       1  UNL1        0.0424
     65 H           0.9812    5.9972    1.9216 H       1  UNL1        0.0424
     66 H           1.3194    7.7560    0.2657 H       1  UNL1        0.0242
     67 H           0.8710    6.6503   -1.0505 H       1  UNL1        0.0242
     68 H          -0.3296    7.0468    0.2948 H       1  UNL1        0.0242
     69 H           0.7300    1.8092    1.6014 H       1  UNL1        0.0514
     70 H          -0.5155    0.5516    1.4307 H       1  UNL1        0.0514
     71 H           0.3967   -1.7015    0.2529 H       1  UNL1        0.0621
     72 H           2.2630   -3.2388    0.1923 H       1  UNL1        0.0624
     73 H           5.8278   -1.7183    2.3943 H       1  UNL1        0.0624
     74 H           7.8180   -3.2220    2.3732 H       1  UNL1        0.0623
     75 H           6.0983   -5.3667   -0.8226 H       1  UNL1        0.0623
     76 H           4.1257   -3.8694   -0.7948 H       1  UNL1        0.0624
     77 H           4.8445   -0.1361    1.4968 H       1  UNL1        0.0624
     78 H           2.9196    1.4062    1.5624 H       1  UNL1        0.0621
     79 H          -2.8755   -4.2987   -1.4719 H       1  UNL1        0.0429
     80 H          -1.2319   -4.6133   -0.8841 H       1  UNL1        0.0429
     81 H          -4.5042   -2.9847   -0.2151 H       1  UNL1        0.0621
     82 H          -5.1725   -2.2964    2.0563 H       1  UNL1        0.0646
     83 H          -1.2983   -2.9864    3.5646 H       1  UNL1        0.0646
     84 H          -0.5447   -3.6882    1.3323 H       1  UNL1        0.0621
@<TRIPOS>BOND
     1     1     2    1
     2     2     3    1
     3     3     4   ar
     4     4     5   ar
     5     5     6    1
     6     6     7    1
     7     7     8    2
     8     7     9   am
     9     9    10    1
    10    10    11    1
    11    11    12    1
    12    12    13    1
    13    13    14    1
    14    12    15    1
    15    15    16    1
    16     9    17    1
    17    17    18    1
    18    18    19   ar
    19    19    20   ar
    20    20    21   ar
    21    21    22    1
    22    22    23   ar
    23    23    24   ar
    24    24    25   ar
    25    25    26    1
    26    26    27    1
    27    26    28    1
    28    26    29    1
    29    25    30   ar
    30    30    31   ar
    31    21    32   ar
    32    32    33   ar
    33     5    34   ar
    34    34    35    1
    35    35    36    1
    36    36    37    1
    37    37    38   ar
    38    38    39   ar
    39    39    40   ar
    40    40    41    1
    41    40    42   ar
    42    42    43   ar
    43    34    44   ar
    44    44    45   ar
    45    45    46    2
    46    45     3   ar
    47    33    18   ar
    48    43    37   ar
    49    31    22   ar
    50     1    47    1
    51     1    48    1
    52     1    49    1
    53     2    50    1
    54     2    51    1
    55     4    52    1
    56     6    53    1
    57     6    54    1
    58    10    55    1
    59    10    56    1
    60    11    57    1
    61    11    58    1
    62    13    59    1
    63    13    60    1
    64    14    61    1
    65    14    62    1
    66    14    63    1
    67    15    64    1
    68    15    65    1
    69    16    66    1
    70    16    67    1
    71    16    68    1
    72    17    69    1
    73    17    70    1
    74    19    71    1
    75    20    72    1
    76    23    73    1
    77    24    74    1
    78    30    75    1
    79    31    76    1
    80    32    77    1
    81    33    78    1
    82    36    79    1
    83    36    80    1
    84    38    81    1
    85    39    82    1
    86    42    83    1
    87    43    84    1
