
     RDKit          3D

 84 87  0  0  0  0  0  0  0  0999 V2000
   -7.2852    0.6434   -3.1347 C   0  0  0  0  0  0  0  0  0  0  0  0
   -5.9525    1.1861   -3.5289 C   0  0  0  0  0  0  0  0  0  0  0  0
   -4.8115    0.3347   -3.1145 C   0  0  0  0  0  0  0  0  0  0  0  0
   -3.9711    0.6059   -2.0576 C   0  0  0  0  0  0  0  0  0  0  0  0
   -2.9416   -0.2241   -1.7388 N   0  0  0  0  0  0  0  0  0  0  0  0
   -2.0382    0.1462   -0.6486 C   0  0  0  0  0  0  0  0  0  0  0  0
   -0.9857    1.0667   -1.1310 C   0  0  0  0  0  0  0  0  0  0  0  0
   -1.0537    1.4711   -2.3202 O   0  0  0  0  0  0  0  0  0  0  0  0
    0.1090    1.5459   -0.3545 N   0  0  0  0  0  0  0  0  0  0  0  0
    1.0392    2.5081   -0.8354 C   0  0  0  0  0  0  0  0  0  0  0  0
    0.7385    3.9445   -0.6936 C   0  0  0  0  0  0  0  0  0  0  0  0
    0.4908    4.5140    0.5567 N   0  0  0  0  0  0  0  0  0  0  0  0
   -0.7156    4.2696    1.2374 C   0  0  0  0  0  0  0  0  0  0  0  0
   -0.7578    4.9428    2.6192 C   0  0  0  0  0  0  0  0  0  0  0  0
    1.1968    5.7030    0.8921 C   0  0  0  0  0  0  0  0  0  0  0  0
    0.7158    6.8560    0.0102 C   0  0  0  0  0  0  0  0  0  0  0  0
    0.3911    0.9585    0.9751 C   0  0  0  0  0  0  0  0  0  0  0  0
    1.4974   -0.0365    0.9018 C   0  0  0  0  0  0  0  0  0  0  0  0
    1.3667   -1.3449    0.5304 C   0  0  0  0  0  0  0  0  0  0  0  0
    2.4567   -2.2293    0.4973 C   0  0  0  0  0  0  0  0  0  0  0  0
    3.7048   -1.7956    0.8431 C   0  0  0  0  0  0  0  0  0  0  0  0
    4.8608   -2.6948    0.8114 C   0  0  0  0  0  0  0  0  0  0  0  0
    5.9192   -2.5370    1.6927 C   0  0  0  0  0  0  0  0  0  0  0  0
    7.0174   -3.3703    1.6779 C   0  0  0  0  0  0  0  0  0  0  0  0
    7.1025   -4.4060    0.7708 C   0  0  0  0  0  0  0  0  0  0  0  0
    8.2901   -5.3191    0.7418 C   0  0  0  0  0  0  0  0  0  0  0  0
    7.9592   -6.5813    0.3035 F   0  0  0  0  0  0  0  0  0  0  0  0
    8.7911   -5.3853    2.0259 F   0  0  0  0  0  0  0  0  0  0  0  0
    9.2947   -4.7614   -0.0472 F   0  0  0  0  0  0  0  0  0  0  0  0
    6.0508   -4.5666   -0.1087 C   0  0  0  0  0  0  0  0  0  0  0  0
    4.9490   -3.7342   -0.0967 C   0  0  0  0  0  0  0  0  0  0  0  0
    3.8562   -0.4793    1.2214 C   0  0  0  0  0  0  0  0  0  0  0  0
    2.7928    0.3720    1.2510 C   0  0  0  0  0  0  0  0  0  0  0  0
   -2.7000   -1.3409   -2.4345 C   0  0  0  0  0  0  0  0  0  0  0  0
   -1.3991   -2.5030   -2.0018 S   0  0  0  0  0  0  0  0  0  0  0  0
   -2.0129   -3.8148   -0.9379 C   0  0  0  0  0  0  0  0  0  0  0  0
   -2.4677   -3.3912    0.3866 C   0  0  0  0  0  0  0  0  0  0  0  0
   -3.7690   -2.9979    0.5972 C   0  0  0  0  0  0  0  0  0  0  0  0
   -4.1406   -2.6130    1.8685 C   0  0  0  0  0  0  0  0  0  0  0  0
   -3.2792   -2.6003    2.9420 C   0  0  0  0  0  0  0  0  0  0  0  0
   -3.6685   -2.2167    4.1858 F   0  0  0  0  0  0  0  0  0  0  0  0
   -1.9854   -2.9971    2.7061 C   0  0  0  0  0  0  0  0  0  0  0  0
   -1.5951   -3.3833    1.4516 C   0  0  0  0  0  0  0  0  0  0  0  0
   -3.5319   -1.6092   -3.4815 N   0  0  0  0  0  0  0  0  0  0  0  0
   -4.5573   -0.8142   -3.8278 C   0  0  0  0  0  0  0  0  0  0  0  0
   -5.2972   -1.1137   -4.8098 O   0  0  0  0  0  0  0  0  0  0  0  0
   -7.6970    0.0731   -3.9941 H   0  0  0  0  0  0  0  0  0  0  0  0
   -8.0270    1.4679   -2.9380 H   0  0  0  0  0  0  0  0  0  0  0  0
   -7.2527   -0.0747   -2.2887 H   0  0  0  0  0  0  0  0  0  0  0  0
   -5.9511    1.3223   -4.6500 H   0  0  0  0  0  0  0  0  0  0  0  0
   -5.8741    2.2162   -3.1259 H   0  0  0  0  0  0  0  0  0  0  0  0
   -4.1693    1.5121   -1.4935 H   0  0  0  0  0  0  0  0  0  0  0  0
   -1.6679   -0.7123   -0.0754 H   0  0  0  0  0  0  0  0  0  0  0  0
   -2.7278    0.6805    0.0829 H   0  0  0  0  0  0  0  0  0  0  0  0
    1.1764    2.2456   -1.9446 H   0  0  0  0  0  0  0  0  0  0  0  0
    2.0670    2.2586   -0.4336 H   0  0  0  0  0  0  0  0  0  0  0  0
   -0.0473    4.2862   -1.4578 H   0  0  0  0  0  0  0  0  0  0  0  0
    1.6570    4.4891   -1.1130 H   0  0  0  0  0  0  0  0  0  0  0  0
   -1.5185    4.8598    0.6676 H   0  0  0  0  0  0  0  0  0  0  0  0
   -1.1173    3.2718    1.2919 H   0  0  0  0  0  0  0  0  0  0  0  0
    0.1175    4.7030    3.2269 H   0  0  0  0  0  0  0  0  0  0  0  0
   -0.9613    6.0261    2.5092 H   0  0  0  0  0  0  0  0  0  0  0  0
   -1.6972    4.5271    3.0923 H   0  0  0  0  0  0  0  0  0  0  0  0
    2.2938    5.5434    0.7496 H   0  0  0  0  0  0  0  0  0  0  0  0
    0.9812    5.9972    1.9216 H   0  0  0  0  0  0  0  0  0  0  0  0
    1.3194    7.7560    0.2657 H   0  0  0  0  0  0  0  0  0  0  0  0
    0.8710    6.6503   -1.0505 H   0  0  0  0  0  0  0  0  0  0  0  0
   -0.3296    7.0468    0.2948 H   0  0  0  0  0  0  0  0  0  0  0  0
    0.7300    1.8092    1.6014 H   0  0  0  0  0  0  0  0  0  0  0  0
   -0.5155    0.5516    1.4307 H   0  0  0  0  0  0  0  0  0  0  0  0
    0.3967   -1.7015    0.2529 H   0  0  0  0  0  0  0  0  0  0  0  0
    2.2630   -3.2388    0.1923 H   0  0  0  0  0  0  0  0  0  0  0  0
    5.8278   -1.7183    2.3943 H   0  0  0  0  0  0  0  0  0  0  0  0
    7.8180   -3.2220    2.3732 H   0  0  0  0  0  0  0  0  0  0  0  0
    6.0983   -5.3667   -0.8226 H   0  0  0  0  0  0  0  0  0  0  0  0
    4.1257   -3.8694   -0.7948 H   0  0  0  0  0  0  0  0  0  0  0  0
    4.8445   -0.1361    1.4968 H   0  0  0  0  0  0  0  0  0  0  0  0
    2.9196    1.4062    1.5624 H   0  0  0  0  0  0  0  0  0  0  0  0
   -2.8755   -4.2987   -1.4719 H   0  0  0  0  0  0  0  0  0  0  0  0
   -1.2319   -4.6133   -0.8841 H   0  0  0  0  0  0  0  0  0  0  0  0
   -4.5042   -2.9847   -0.2151 H   0  0  0  0  0  0  0  0  0  0  0  0
   -5.1725   -2.2964    2.0563 H   0  0  0  0  0  0  0  0  0  0  0  0
   -1.2983   -2.9864    3.5646 H   0  0  0  0  0  0  0  0  0  0  0  0
   -0.5447   -3.6882    1.3323 H   0  0  0  0  0  0  0  0  0  0  0  0
  1  2  1  0
  2  3  1  0
  3  4  2  0
  4  5  1  0
  5  6  1  0
  6  7  1  0
  7  8  2  0
  7  9  1  0
  9 10  1  0
 10 11  1  0
 11 12  1  0
 12 13  1  0
 13 14  1  0
 12 15  1  0
 15 16  1  0
  9 17  1  0
 17 18  1  0
 18 19  2  0
 19 20  1  0
 20 21  2  0
 21 22  1  0
 22 23  2  0
 23 24  1  0
 24 25  2  0
 25 26  1  0
 26 27  1  0
 26 28  1  0
 26 29  1  0
 25 30  1  0
 30 31  2  0
 21 32  1  0
 32 33  2  0
  5 34  1  0
 34 35  1  0
 35 36  1  0
 36 37  1  0
 37 38  2  0
 38 39  1  0
 39 40  2  0
 40 41  1  0
 40 42  1  0
 42 43  2  0
 34 44  2  0
 44 45  1  0
 45 46  2  0
 45  3  1  0
 33 18  1  0
 43 37  1  0
 31 22  1  0
  1 47  1  0
  1 48  1  0
  1 49  1  0
  2 50  1  0
  2 51  1  0
  4 52  1  0
  6 53  1  0
  6 54  1  0
 10 55  1  0
 10 56  1  0
 11 57  1  0
 11 58  1  0
 13 59  1  0
 13 60  1  0
 14 61  1  0
 14 62  1  0
 14 63  1  0
 15 64  1  0
 15 65  1  0
 16 66  1  0
 16 67  1  0
 16 68  1  0
 17 69  1  0
 17 70  1  0
 19 71  1  0
 20 72  1  0
 23 73  1  0
 24 74  1  0
 30 75  1  0
 31 76  1  0
 32 77  1  0
 33 78  1  0
 36 79  1  0
 36 80  1  0
 38 81  1  0
 39 82  1  0
 42 83  1  0
 43 84  1  0
M  END
$$$$
