
     RDKit          3D

 45 48  0  0  0  0  0  0  0  0999 V2000
   -2.6032    0.0547   -0.7339 C   0  0  0  0  0  0  0  0  0  0  0  0
   -2.4067    0.2142    0.7019 N   0  0  0  0  0  0  0  0  0  0  0  0
   -3.0055   -0.7403    1.5963 C   0  0  0  0  0  0  0  0  0  0  0  0
   -4.5117   -0.6760    1.6434 C   0  0  0  0  0  0  0  0  0  0  0  0
   -5.0397   -0.9187    0.3978 O   0  0  0  0  0  0  0  0  0  0  0  0
   -1.6252    1.3187    1.1235 C   0  0  0  0  0  0  0  0  0  0  0  0
   -2.3619    2.2417    1.8028 N   0  0  0  0  0  0  0  0  0  0  0  0
   -1.7338    3.3645    2.2432 C   0  0  0  0  0  0  0  0  0  0  0  0
   -0.4173    3.5696    2.0194 N   0  0  0  0  0  0  0  0  0  0  0  0
    0.3555    2.6917    1.3557 C   0  0  0  0  0  0  0  0  0  0  0  0
   -0.2956    1.5607    0.9169 C   0  0  0  0  0  0  0  0  0  0  0  0
    0.5996    0.7464    0.2588 C   0  0  0  0  0  0  0  0  0  0  0  0
    1.8089    1.4480    0.3271 C   0  0  0  0  0  0  0  0  0  0  0  0
    1.5947    2.5687    0.9775 O   0  0  0  0  0  0  0  0  0  0  0  0
    3.0463    0.9360   -0.2574 C   0  0  0  0  0  0  0  0  0  0  0  0
    3.6789    1.6357   -1.2715 C   0  0  0  0  0  0  0  0  0  0  0  0
    4.8351    1.0962   -1.7716 C   0  0  0  0  0  0  0  0  0  0  0  0
    5.3809   -0.0976   -1.3089 C   0  0  0  0  0  0  0  0  0  0  0  0
    4.7321   -0.7768   -0.2970 C   0  0  0  0  0  0  0  0  0  0  0  0
    3.5557   -0.2514    0.2294 C   0  0  0  0  0  0  0  0  0  0  0  0
    0.4057   -0.5514   -0.3743 C   0  0  0  0  0  0  0  0  0  0  0  0
    0.5582   -0.6808   -1.7389 C   0  0  0  0  0  0  0  0  0  0  0  0
    0.3861   -1.9096   -2.3666 C   0  0  0  0  0  0  0  0  0  0  0  0
    0.0589   -2.9960   -1.5883 C   0  0  0  0  0  0  0  0  0  0  0  0
   -0.0979   -2.8899   -0.2253 C   0  0  0  0  0  0  0  0  0  0  0  0
    0.0774   -1.6507    0.3936 C   0  0  0  0  0  0  0  0  0  0  0  0
   -2.4434   -0.9597   -1.1000 H   0  0  0  0  0  0  0  0  0  0  0  0
   -3.6596    0.3267   -1.0044 H   0  0  0  0  0  0  0  0  0  0  0  0
   -1.9783    0.7657   -1.3274 H   0  0  0  0  0  0  0  0  0  0  0  0
   -2.6281   -0.6483    2.6361 H   0  0  0  0  0  0  0  0  0  0  0  0
   -2.6970   -1.7573    1.2102 H   0  0  0  0  0  0  0  0  0  0  0  0
   -4.7712    0.3521    1.9713 H   0  0  0  0  0  0  0  0  0  0  0  0
   -4.8278   -1.4389    2.3993 H   0  0  0  0  0  0  0  0  0  0  0  0
   -5.7711   -0.2928    0.1865 H   0  0  0  0  0  0  0  0  0  0  0  0
   -2.1787    4.1892    2.7963 H   0  0  0  0  0  0  0  0  0  0  0  0
    3.2884    2.5742   -1.6666 H   0  0  0  0  0  0  0  0  0  0  0  0
    5.3419    1.6456   -2.5766 H   0  0  0  0  0  0  0  0  0  0  0  0
    6.2934   -0.4675   -1.7468 H   0  0  0  0  0  0  0  0  0  0  0  0
    5.1616   -1.7211    0.0715 H   0  0  0  0  0  0  0  0  0  0  0  0
    3.0475   -0.7971    1.0324 H   0  0  0  0  0  0  0  0  0  0  0  0
    0.8161    0.1570   -2.3760 H   0  0  0  0  0  0  0  0  0  0  0  0
    0.5091   -1.9878   -3.4273 H   0  0  0  0  0  0  0  0  0  0  0  0
   -0.0776   -3.9626   -2.0789 H   0  0  0  0  0  0  0  0  0  0  0  0
   -0.3525   -3.7100    0.4141 H   0  0  0  0  0  0  0  0  0  0  0  0
   -0.0485   -1.5747    1.4733 H   0  0  0  0  0  0  0  0  0  0  0  0
  1  2  1  0
  2  3  1  0
  3  4  1  0
  4  5  1  0
  2  6  1  0
  6  7  2  0
  7  8  1  0
  8  9  2  0
  9 10  1  0
 10 11  2  0
 11 12  1  0
 12 13  2  0
 13 14  1  0
 13 15  1  0
 15 16  2  0
 16 17  1  0
 17 18  2  0
 18 19  1  0
 19 20  2  0
 12 21  1  0
 21 22  2  0
 22 23  1  0
 23 24  2  0
 24 25  1  0
 25 26  2  0
 11  6  1  0
 20 15  1  0
 26 21  1  0
 14 10  1  0
  1 27  1  0
  1 28  1  0
  1 29  1  0
  3 30  1  0
  3 31  1  0
  4 32  1  0
  4 33  1  0
  5 34  1  0
  8 35  1  0
 16 36  1  0
 17 37  1  0
 18 38  1  0
 19 39  1  0
 20 40  1  0
 22 41  1  0
 23 42  1  0
 24 43  1  0
 25 44  1  0
 26 45  1  0
M  END
$$$$
