
     RDKit          3D

 66 69  0  0  0  0  0  0  0  0999 V2000
   -3.0583    2.5189    1.4714 C   0  0  0  0  0  0  0  0  0  0  0  0
   -3.8980    2.2478    2.6750 C   0  0  0  0  0  0  0  0  0  0  0  0
   -4.0135    0.7866    2.9745 C   0  0  0  0  0  0  0  0  0  0  0  0
   -4.6460    0.0784    1.8413 C   0  0  0  0  0  0  0  0  0  0  0  0
   -5.9762   -0.2448    1.7437 N   0  0  0  0  0  0  0  0  0  0  0  0
   -6.2167   -0.8507    0.6010 N   0  0  0  0  0  0  0  0  0  0  0  0
   -7.5051   -1.3445    0.1337 C   0  0  0  0  0  0  0  0  0  0  0  0
   -5.0386   -0.9321   -0.0666 C   0  0  0  0  0  0  0  0  0  0  0  0
   -4.6836   -1.4584   -1.2757 C   0  0  0  0  0  0  0  0  0  0  0  0
   -5.5547   -1.9947   -2.0078 O   0  0  0  0  0  0  0  0  0  0  0  0
   -3.3757   -1.3949   -1.6775 N   0  0  0  0  0  0  0  0  0  0  0  0
   -2.4001   -0.8477   -0.9660 C   0  0  0  0  0  0  0  0  0  0  0  0
   -0.9859   -0.7573   -1.3585 C   0  0  0  0  0  0  0  0  0  0  0  0
   -0.0849   -0.1576   -0.4692 C   0  0  0  0  0  0  0  0  0  0  0  0
    1.2528   -0.0334   -0.7611 C   0  0  0  0  0  0  0  0  0  0  0  0
    2.1778    0.5617    0.1310 N   0  0  0  0  0  0  0  0  0  0  0  0
    1.8570    0.9613    1.4817 C   0  0  0  0  0  0  0  0  0  0  0  0
    3.0087    0.7122    2.4285 C   0  0  0  0  0  0  0  0  0  0  0  0
    4.3119    1.3444    1.9534 C   0  0  0  0  0  0  0  0  0  0  0  0
    5.4034    0.3105    2.0124 C   0  0  0  0  0  0  0  0  0  0  0  0
    6.7346    0.7687    1.6186 C   0  0  0  0  0  0  0  0  0  0  0  0
    7.0008    1.9708    1.3727 O   0  0  0  0  0  0  0  0  0  0  0  0
    7.7870   -0.2204    1.5105 N   0  0  0  0  0  0  0  0  0  0  0  0
    9.0149    0.1900    1.1488 O   0  0  0  0  0  0  0  0  0  0  0  0
    4.1856    1.8656    0.5578 C   0  0  0  0  0  0  0  0  0  0  0  0
    3.5319    0.8045   -0.3042 C   0  0  0  0  0  0  0  0  0  0  0  0
    1.7506   -0.5103   -1.9717 C   0  0  0  0  0  0  0  0  0  0  0  0
    0.8867   -1.0967   -2.8493 C   0  0  0  0  0  0  0  0  0  0  0  0
   -0.4578   -1.2101   -2.5307 C   0  0  0  0  0  0  0  0  0  0  0  0
   -1.2761   -1.8118   -3.4613 O   0  0  0  0  0  0  0  0  0  0  0  0
   -0.9538   -2.3420   -4.6953 C   0  0  0  0  0  0  0  0  0  0  0  0
    0.0156   -3.4770   -4.7051 C   0  0  0  0  0  0  0  0  0  0  0  0
   -2.7583   -0.3206    0.2446 N   0  0  0  0  0  0  0  0  0  0  0  0
   -4.0188   -0.3595    0.6762 C   0  0  0  0  0  0  0  0  0  0  0  0
   -2.8415    3.6334    1.4098 H   0  0  0  0  0  0  0  0  0  0  0  0
   -3.5433    2.2887    0.5227 H   0  0  0  0  0  0  0  0  0  0  0  0
   -2.0928    1.9984    1.5362 H   0  0  0  0  0  0  0  0  0  0  0  0
   -4.9193    2.6730    2.4465 H   0  0  0  0  0  0  0  0  0  0  0  0
   -3.4338    2.8077    3.5221 H   0  0  0  0  0  0  0  0  0  0  0  0
   -2.9785    0.4027    3.1260 H   0  0  0  0  0  0  0  0  0  0  0  0
   -4.5524    0.5965    3.9312 H   0  0  0  0  0  0  0  0  0  0  0  0
   -8.1830   -1.4662    0.9827 H   0  0  0  0  0  0  0  0  0  0  0  0
   -7.3452   -2.3628   -0.3196 H   0  0  0  0  0  0  0  0  0  0  0  0
   -7.9355   -0.7136   -0.6466 H   0  0  0  0  0  0  0  0  0  0  0  0
   -3.1668   -1.8101   -2.5997 H   0  0  0  0  0  0  0  0  0  0  0  0
   -0.4443    0.2205    0.4706 H   0  0  0  0  0  0  0  0  0  0  0  0
    1.5155    1.9966    1.4614 H   0  0  0  0  0  0  0  0  0  0  0  0
    1.0243    0.3134    1.8472 H   0  0  0  0  0  0  0  0  0  0  0  0
    2.7500    1.1658    3.3961 H   0  0  0  0  0  0  0  0  0  0  0  0
    3.1459   -0.3629    2.5385 H   0  0  0  0  0  0  0  0  0  0  0  0
    4.6209    2.1824    2.6096 H   0  0  0  0  0  0  0  0  0  0  0  0
    5.4929   -0.0615    3.0795 H   0  0  0  0  0  0  0  0  0  0  0  0
    5.1760   -0.5924    1.3964 H   0  0  0  0  0  0  0  0  0  0  0  0
    7.5500   -1.2141    1.7177 H   0  0  0  0  0  0  0  0  0  0  0  0
    9.5054    0.5060    1.9354 H   0  0  0  0  0  0  0  0  0  0  0  0
    3.5660    2.7904    0.5378 H   0  0  0  0  0  0  0  0  0  0  0  0
    5.1537    2.0891    0.1383 H   0  0  0  0  0  0  0  0  0  0  0  0
    3.4624    1.2319   -1.3326 H   0  0  0  0  0  0  0  0  0  0  0  0
    4.1315   -0.1135   -0.2657 H   0  0  0  0  0  0  0  0  0  0  0  0
    2.7846   -0.4394   -2.2474 H   0  0  0  0  0  0  0  0  0  0  0  0
    1.1956   -1.4874   -3.8159 H   0  0  0  0  0  0  0  0  0  0  0  0
   -1.9101   -2.7054   -5.1600 H   0  0  0  0  0  0  0  0  0  0  0  0
   -0.6210   -1.5050   -5.3604 H   0  0  0  0  0  0  0  0  0  0  0  0
   -0.4363   -4.3951   -5.1918 H   0  0  0  0  0  0  0  0  0  0  0  0
    0.4547   -3.7398   -3.7397 H   0  0  0  0  0  0  0  0  0  0  0  0
    0.8575   -3.2177   -5.4032 H   0  0  0  0  0  0  0  0  0  0  0  0
  1  2  1  0
  2  3  1  0
  3  4  1  0
  4  5  2  0
  5  6  1  0
  6  7  1  0
  6  8  1  0
  8  9  1  0
  9 10  2  0
  9 11  1  0
 11 12  1  0
 12 13  1  0
 13 14  2  0
 14 15  1  0
 15 16  1  0
 16 17  1  0
 17 18  1  0
 18 19  1  0
 19 20  1  0
 20 21  1  0
 21 22  2  0
 21 23  1  0
 23 24  1  0
 19 25  1  0
 25 26  1  0
 15 27  2  0
 27 28  1  0
 28 29  2  0
 29 30  1  0
 30 31  1  0
 31 32  1  0
 12 33  2  0
 33 34  1  0
 34  4  1  0
 34  8  2  0
 29 13  1  0
 26 16  1  0
  1 35  1  0
  1 36  1  0
  1 37  1  0
  2 38  1  0
  2 39  1  0
  3 40  1  0
  3 41  1  0
  7 42  1  0
  7 43  1  0
  7 44  1  0
 11 45  1  0
 14 46  1  0
 17 47  1  0
 17 48  1  0
 18 49  1  0
 18 50  1  0
 19 51  1  0
 20 52  1  0
 20 53  1  0
 23 54  1  0
 24 55  1  0
 25 56  1  0
 25 57  1  0
 26 58  1  0
 26 59  1  0
 27 60  1  0
 28 61  1  0
 31 62  1  0
 31 63  1  0
 32 64  1  0
 32 65  1  0
 32 66  1  0
M  END
$$$$
