@<TRIPOS>MOLECULE
*****
 66 69 0 0 0
SMALL
GASTEIGER

@<TRIPOS>ATOM
      1 C          -3.0583    2.5189    1.4714 C.3     1  UNL1       -0.0649
      2 C          -3.8980    2.2478    2.6750 C.3     1  UNL1       -0.0504
      3 C          -4.0135    0.7866    2.9745 C.3     1  UNL1       -0.0068
      4 C          -4.6460    0.0784    1.8413 C.ar    1  UNL1        0.0891
      5 N          -5.9762   -0.2448    1.7437 N.ar    1  UNL1       -0.1736
      6 N          -6.2167   -0.8507    0.6010 N.ar    1  UNL1       -0.2598
      7 C          -7.5051   -1.3445    0.1337 C.3     1  UNL1        0.0311
      8 C          -5.0386   -0.9321   -0.0666 C.ar    1  UNL1        0.1513
      9 C          -4.6836   -1.4584   -1.2757 C.ar    1  UNL1        0.2775
     10 O          -5.5547   -1.9947   -2.0078 O.2     1  UNL1       -0.2655
     11 N          -3.3757   -1.3949   -1.6775 N.ar    1  UNL1       -0.3051
     12 C          -2.4001   -0.8477   -0.9660 C.ar    1  UNL1        0.1452
     13 C          -0.9859   -0.7573   -1.3585 C.ar    1  UNL1        0.0607
     14 C          -0.0849   -0.1576   -0.4692 C.ar    1  UNL1       -0.0265
     15 C           1.2528   -0.0334   -0.7611 C.ar    1  UNL1        0.0306
     16 N           2.1778    0.5617    0.1310 N.pl3   1  UNL1       -0.3299
     17 C           1.8570    0.9613    1.4817 C.3     1  UNL1        0.0124
     18 C           3.0087    0.7122    2.4285 C.3     1  UNL1       -0.0339
     19 C           4.3119    1.3444    1.9534 C.3     1  UNL1       -0.0299
     20 C           5.4034    0.3105    2.0124 C.3     1  UNL1        0.0288
     21 C           6.7346    0.7687    1.6186 C.2     1  UNL1        0.2357
     22 O           7.0008    1.9708    1.3727 O.2     1  UNL1       -0.2737
     23 N           7.7870   -0.2204    1.5105 N.am    1  UNL1       -0.1975
     24 O           9.0149    0.1900    1.1488 O.3     1  UNL1       -0.2952
     25 C           4.1856    1.8656    0.5578 C.3     1  UNL1       -0.0339
     26 C           3.5319    0.8045   -0.3042 C.3     1  UNL1        0.0124
     27 C           1.7506   -0.5103   -1.9717 C.ar    1  UNL1       -0.0372
     28 C           0.8867   -1.0967   -2.8493 C.ar    1  UNL1       -0.0175
     29 C          -0.4578   -1.2101   -2.5307 C.ar    1  UNL1        0.1312
     30 O          -1.2761   -1.8118   -3.4613 O.3     1  UNL1       -0.4915
     31 C          -0.9538   -2.3420   -4.6953 C.3     1  UNL1        0.0868
     32 C           0.0156   -3.4770   -4.7051 C.3     1  UNL1       -0.0307
     33 N          -2.7583   -0.3206    0.2446 N.ar    1  UNL1       -0.2254
     34 C          -4.0188   -0.3595    0.6762 C.ar    1  UNL1        0.1192
     35 H          -2.8415    3.6334    1.4098 H       1  UNL1        0.0230
     36 H          -3.5433    2.2887    0.5227 H       1  UNL1        0.0230
     37 H          -2.0928    1.9984    1.5362 H       1  UNL1        0.0230
     38 H          -4.9193    2.6730    2.4465 H       1  UNL1        0.0266
     39 H          -3.4338    2.8077    3.5221 H       1  UNL1        0.0266
     40 H          -2.9785    0.4027    3.1260 H       1  UNL1        0.0329
     41 H          -4.5524    0.5965    3.9312 H       1  UNL1        0.0329
     42 H          -8.1830   -1.4662    0.9827 H       1  UNL1        0.0473
     43 H          -7.3452   -2.3628   -0.3196 H       1  UNL1        0.0473
     44 H          -7.9355   -0.7136   -0.6466 H       1  UNL1        0.0473
     45 H          -3.1668   -1.8101   -2.5997 H       1  UNL1        0.1704
     46 H          -0.4443    0.2205    0.4706 H       1  UNL1        0.0644
     47 H           1.5155    1.9966    1.4614 H       1  UNL1        0.0464
     48 H           1.0243    0.3134    1.8472 H       1  UNL1        0.0464
     49 H           2.7500    1.1658    3.3961 H       1  UNL1        0.0283
     50 H           3.1459   -0.3629    2.5385 H       1  UNL1        0.0283
     51 H           4.6209    2.1824    2.6096 H       1  UNL1        0.0306
     52 H           5.4929   -0.0615    3.0795 H       1  UNL1        0.0362
     53 H           5.1760   -0.5924    1.3964 H       1  UNL1        0.0362
     54 H           7.5500   -1.2141    1.7177 H       1  UNL1        0.1822
     55 H           9.5054    0.5060    1.9354 H       1  UNL1        0.2414
     56 H           3.5660    2.7904    0.5378 H       1  UNL1        0.0283
     57 H           5.1537    2.0891    0.1383 H       1  UNL1        0.0283
     58 H           3.4624    1.2319   -1.3326 H       1  UNL1        0.0464
     59 H           4.1315   -0.1135   -0.2657 H       1  UNL1        0.0464
     60 H           2.7846   -0.4394   -2.2474 H       1  UNL1        0.0637
     61 H           1.1956   -1.4874   -3.8159 H       1  UNL1        0.0655
     62 H          -1.9101   -2.7054   -5.1600 H       1  UNL1        0.0694
     63 H          -0.6210   -1.5050   -5.3604 H       1  UNL1        0.0694
     64 H          -0.4363   -4.3951   -5.1918 H       1  UNL1        0.0262
     65 H           0.4547   -3.7398   -3.7397 H       1  UNL1        0.0262
     66 H           0.8575   -3.2177   -5.4032 H       1  UNL1        0.0262
@<TRIPOS>BOND
     1     1     2    1
     2     2     3    1
     3     3     4    1
     4     4     5   ar
     5     5     6   ar
     6     6     7    1
     7     6     8   ar
     8     8     9   ar
     9     9    10    2
    10     9    11   ar
    11    11    12   ar
    12    12    13    1
    13    13    14   ar
    14    14    15   ar
    15    15    16    1
    16    16    17    1
    17    17    18    1
    18    18    19    1
    19    19    20    1
    20    20    21    1
    21    21    22    2
    22    21    23   am
    23    23    24    1
    24    19    25    1
    25    25    26    1
    26    15    27   ar
    27    27    28   ar
    28    28    29   ar
    29    29    30    1
    30    30    31    1
    31    31    32    1
    32    12    33   ar
    33    33    34   ar
    34    34     4   ar
    35    34     8   ar
    36    29    13   ar
    37    26    16    1
    38     1    35    1
    39     1    36    1
    40     1    37    1
    41     2    38    1
    42     2    39    1
    43     3    40    1
    44     3    41    1
    45     7    42    1
    46     7    43    1
    47     7    44    1
    48    11    45    1
    49    14    46    1
    50    17    47    1
    51    17    48    1
    52    18    49    1
    53    18    50    1
    54    19    51    1
    55    20    52    1
    56    20    53    1
    57    23    54    1
    58    24    55    1
    59    25    56    1
    60    25    57    1
    61    26    58    1
    62    26    59    1
    63    27    60    1
    64    28    61    1
    65    31    62    1
    66    31    63    1
    67    32    64    1
    68    32    65    1
    69    32    66    1
