@<TRIPOS>MOLECULE
*****
 25 26 0 0 0
SMALL
GASTEIGER

@<TRIPOS>ATOM
      1 N           4.2242    0.5055   -0.9697 N.3     1  UNL1       -0.2035
      2 S           3.3138    0.3098    0.4783 S.O2    1  UNL1        0.0574
      3 O           3.3174    1.6585    1.1749 O.2     1  UNL1       -0.1532
      4 O           3.9516   -0.6654    1.4275 O.2     1  UNL1       -0.1532
      5 C           1.6479   -0.1045    0.1768 C.ar    1  UNL1        0.1252
      6 C           1.3015   -1.2514   -0.5084 C.ar    1  UNL1        0.0691
      7 CL          2.6214   -2.2775   -1.0644 Cl      1  UNL1       -0.0815
      8 C           0.0087   -1.6375   -0.7803 C.ar    1  UNL1       -0.0187
      9 C          -1.0188   -0.8298   -0.3424 C.ar    1  UNL1        0.0563
     10 N          -2.3764   -1.1854   -0.5987 N.pl3   1  UNL1       -0.3284
     11 C          -3.4006   -0.2135   -0.7659 C.3     1  UNL1        0.0798
     12 N          -3.5282    0.7680    0.2787 N.3     1  UNL1       -0.1728
     13 S          -2.0282    1.3240    0.8861 S.O2    1  UNL1        0.0616
     14 O          -1.8003    2.7470    0.5286 O.2     1  UNL1       -0.1529
     15 O          -2.0524    1.2589    2.4033 O.2     1  UNL1       -0.1529
     16 C          -0.7084    0.3218    0.3443 C.ar    1  UNL1        0.1280
     17 C           0.5738    0.6807    0.5999 C.ar    1  UNL1       -0.0057
     18 H           4.6683   -0.4211   -1.2434 H       1  UNL1        0.1442
     19 H           5.0627    1.1062   -0.7357 H       1  UNL1        0.1442
     20 H          -0.1837   -2.5612   -1.3292 H       1  UNL1        0.0652
     21 H          -2.5542   -2.2344   -0.6535 H       1  UNL1        0.1474
     22 H          -4.3799   -0.7634   -0.7575 H       1  UNL1        0.0644
     23 H          -3.3993    0.2879   -1.7651 H       1  UNL1        0.0644
     24 H          -4.0683    1.5759   -0.0941 H       1  UNL1        0.1498
     25 H           0.8073    1.6008    1.1480 H       1  UNL1        0.0658
@<TRIPOS>BOND
     1     1     2    1
     2     2     3    2
     3     2     4    2
     4     2     5    1
     5     5     6   ar
     6     6     7    1
     7     6     8   ar
     8     8     9   ar
     9     9    10    1
    10    10    11    1
    11    11    12    1
    12    12    13    1
    13    13    14    2
    14    13    15    2
    15    13    16    1
    16    16    17   ar
    17    17     5   ar
    18    16     9   ar
    19     1    18    1
    20     1    19    1
    21     8    20    1
    22    10    21    1
    23    11    22    1
    24    11    23    1
    25    12    24    1
    26    17    25    1
