
     RDKit          3D

 28 31  0  0  0  0  0  0  0  0999 V2000
    0.2747   -3.0138    2.0640 O   0  0  0  0  0  0  0  0  0  0  0  0
   -0.0039   -2.0281    1.3383 C   0  0  0  0  0  0  0  0  0  0  0  0
   -1.2342   -1.8628    0.8996 O   0  0  0  0  0  0  0  0  0  0  0  0
   -1.6144   -0.8698    0.1419 C   0  0  0  0  0  0  0  0  0  0  0  0
   -2.9052   -0.6874   -0.3244 C   0  0  0  0  0  0  0  0  0  0  0  0
   -3.8778   -1.6095    0.0242 O   0  0  0  0  0  0  0  0  0  0  0  0
   -3.2159    0.3977   -1.1243 C   0  0  0  0  0  0  0  0  0  0  0  0
   -4.5178    0.5576   -1.5787 O   0  0  0  0  0  0  0  0  0  0  0  0
   -2.2486    1.3374   -1.4859 C   0  0  0  0  0  0  0  0  0  0  0  0
   -0.9572    1.1377   -1.0081 C   0  0  0  0  0  0  0  0  0  0  0  0
    0.0451    2.0231   -1.3245 C   0  0  0  0  0  0  0  0  0  0  0  0
   -0.2396    3.0131   -2.0547 O   0  0  0  0  0  0  0  0  0  0  0  0
    1.2862    1.8698   -0.8908 O   0  0  0  0  0  0  0  0  0  0  0  0
    1.6240    0.8546   -0.1298 C   0  0  0  0  0  0  0  0  0  0  0  0
    2.9411    0.7233    0.3097 C   0  0  0  0  0  0  0  0  0  0  0  0
    3.9221    1.6444   -0.0359 O   0  0  0  0  0  0  0  0  0  0  0  0
    3.2588   -0.3587    1.1095 C   0  0  0  0  0  0  0  0  0  0  0  0
    4.5812   -0.4620    1.5320 O   0  0  0  0  0  0  0  0  0  0  0  0
    2.2948   -1.2996    1.4728 C   0  0  0  0  0  0  0  0  0  0  0  0
    1.0018   -1.1430    1.0230 C   0  0  0  0  0  0  0  0  0  0  0  0
    0.6582   -0.0679    0.2209 C   0  0  0  0  0  0  0  0  0  0  0  0
   -0.6445    0.0570   -0.2106 C   0  0  0  0  0  0  0  0  0  0  0  0
   -3.8915   -2.5663   -0.2775 H   0  0  0  0  0  0  0  0  0  0  0  0
   -5.3155    0.1573   -1.0943 H   0  0  0  0  0  0  0  0  0  0  0  0
   -2.5262    2.1635   -2.1060 H   0  0  0  0  0  0  0  0  0  0  0  0
    3.7788    2.1395   -0.9155 H   0  0  0  0  0  0  0  0  0  0  0  0
    4.9411    0.0111    2.3339 H   0  0  0  0  0  0  0  0  0  0  0  0
    2.5844   -2.1182    2.0911 H   0  0  0  0  0  0  0  0  0  0  0  0
  1  2  2  0
  2  3  1  0
  3  4  1  0
  4  5  2  0
  5  6  1  0
  5  7  1  0
  7  8  1  0
  7  9  2  0
  9 10  1  0
 10 11  1  0
 11 12  2  0
 11 13  1  0
 13 14  1  0
 14 15  1  0
 15 16  1  0
 15 17  2  0
 17 18  1  0
 17 19  1  0
 19 20  2  0
 20 21  1  0
 21 22  1  0
 20  2  1  0
 22  4  1  0
 22 10  2  0
 21 14  2  0
  6 23  1  0
  8 24  1  0
  9 25  1  0
 16 26  1  0
 18 27  1  0
 19 28  1  0
M  END
$$$$
