@<TRIPOS>MOLECULE
*****
 28 31 0 0 0
SMALL
GASTEIGER

@<TRIPOS>ATOM
      1 O           0.2747   -3.0138    2.0640 O.2     1  UNL1       -0.2445
      2 C          -0.0039   -2.0281    1.3383 C.ar    1  UNL1        0.3454
      3 O          -1.2342   -1.8628    0.8996 O.2     1  UNL1       -0.4178
      4 C          -1.6144   -0.8698    0.1419 C.ar    1  UNL1        0.1854
      5 C          -2.9052   -0.6874   -0.3244 C.ar    1  UNL1        0.2022
      6 O          -3.8778   -1.6095    0.0242 O.3     1  UNL1       -0.5009
      7 C          -3.2159    0.3977   -1.1243 C.ar    1  UNL1        0.1628
      8 O          -4.5178    0.5576   -1.5787 O.3     1  UNL1       -0.5032
      9 C          -2.2486    1.3374   -1.4859 C.ar    1  UNL1       -0.0017
     10 C          -0.9572    1.1377   -1.0081 C.ar    1  UNL1        0.0744
     11 C           0.0451    2.0231   -1.3245 C.ar    1  UNL1        0.3454
     12 O          -0.2396    3.0131   -2.0547 O.2     1  UNL1       -0.2445
     13 O           1.2862    1.8698   -0.8908 O.2     1  UNL1       -0.4178
     14 C           1.6240    0.8546   -0.1298 C.ar    1  UNL1        0.1854
     15 C           2.9411    0.7233    0.3097 C.ar    1  UNL1        0.2022
     16 O           3.9221    1.6444   -0.0359 O.3     1  UNL1       -0.5009
     17 C           3.2588   -0.3587    1.1095 C.ar    1  UNL1        0.1628
     18 O           4.5812   -0.4620    1.5320 O.3     1  UNL1       -0.5032
     19 C           2.2948   -1.2996    1.4728 C.ar    1  UNL1       -0.0017
     20 C           1.0018   -1.1430    1.0230 C.ar    1  UNL1        0.0744
     21 C           0.6582   -0.0679    0.2209 C.ar    1  UNL1        0.0468
     22 C          -0.6445    0.0570   -0.2106 C.ar    1  UNL1        0.0468
     23 H          -3.8915   -2.5663   -0.2775 H       1  UNL1        0.2924
     24 H          -5.3155    0.1573   -1.0943 H       1  UNL1        0.2923
     25 H          -2.5262    2.1635   -2.1060 H       1  UNL1        0.0664
     26 H           3.7788    2.1395   -0.9155 H       1  UNL1        0.2924
     27 H           4.9411    0.0111    2.3339 H       1  UNL1        0.2923
     28 H           2.5844   -2.1182    2.0911 H       1  UNL1        0.0664
@<TRIPOS>BOND
     1     1     2    2
     2     2     3   ar
     3     3     4   ar
     4     4     5   ar
     5     5     6    1
     6     5     7   ar
     7     7     8    1
     8     7     9   ar
     9     9    10   ar
    10    10    11   ar
    11    11    12    2
    12    11    13   ar
    13    13    14   ar
    14    14    15   ar
    15    15    16    1
    16    15    17   ar
    17    17    18    1
    18    17    19   ar
    19    19    20   ar
    20    20    21   ar
    21    21    22   ar
    22    20     2   ar
    23    22     4   ar
    24    22    10   ar
    25    21    14   ar
    26     6    23    1
    27     8    24    1
    28     9    25    1
    29    16    26    1
    30    18    27    1
    31    19    28    1
