@<TRIPOS>MOLECULE
*****
 34 35 0 0 0
SMALL
GASTEIGER

@<TRIPOS>ATOM
      1 O          -0.5149    2.0409    1.8923 O.2     1  UNL1       -0.2860
      2 C          -0.3071    1.5794    0.7539 C.2     1  UNL1        0.2012
      3 C          -0.0290    0.1123    0.6590 C.2     1  UNL1        0.0724
      4 S           0.0475   -0.8561    2.1314 S.3     1  UNL1       -0.1180
      5 C           1.4052   -1.9839    2.2802 C.3     1  UNL1        0.0217
      6 C           2.7131   -1.1725    2.4091 C.3     1  UNL1        0.0535
      7 O           2.6881   -0.3534    3.5208 O.3     1  UNL1       -0.3942
      8 C           0.1818   -0.3915   -0.5114 C.2     1  UNL1        0.0724
      9 S           0.5143   -2.1157   -0.7632 S.3     1  UNL1       -0.1180
     10 C          -0.8155   -3.0595    0.0087 C.3     1  UNL1        0.0217
     11 C          -2.1403   -2.8467   -0.6981 C.3     1  UNL1        0.0535
     12 O          -3.1240   -3.5989   -0.0591 O.3     1  UNL1       -0.3942
     13 C           0.1702    0.4318   -1.7533 C.2     1  UNL1        0.2012
     14 O           0.3850   -0.0752   -2.8847 O.2     1  UNL1       -0.2860
     15 C          -0.0902    1.8528   -1.7033 C.ar    1  UNL1        0.0336
     16 C          -0.1060    2.6429   -2.8587 C.ar    1  UNL1       -0.0502
     17 C          -0.3639    3.9913   -2.7232 C.ar    1  UNL1       -0.0610
     18 C          -0.6005    4.5499   -1.4842 C.ar    1  UNL1       -0.0610
     19 C          -0.5799    3.7505   -0.3565 C.ar    1  UNL1       -0.0502
     20 C          -0.3234    2.3861   -0.4525 C.ar    1  UNL1        0.0336
     21 H           1.5592   -2.6034    1.4010 H       1  UNL1        0.0402
     22 H           1.3237   -2.6291    3.1795 H       1  UNL1        0.0402
     23 H           2.8483   -0.5883    1.4869 H       1  UNL1        0.0565
     24 H           3.5576   -1.8856    2.4750 H       1  UNL1        0.0565
     25 H           3.3977   -0.6030    4.1375 H       1  UNL1        0.2094
     26 H          -0.9692   -2.8639    1.0748 H       1  UNL1        0.0402
     27 H          -0.5190   -4.1437   -0.0689 H       1  UNL1        0.0402
     28 H          -2.0166   -3.2017   -1.7328 H       1  UNL1        0.0565
     29 H          -2.4669   -1.7991   -0.6592 H       1  UNL1        0.0565
     30 H          -3.9639   -3.0994    0.0169 H       1  UNL1        0.2094
     31 H           0.0839    2.1756   -3.8234 H       1  UNL1        0.0625
     32 H          -0.3816    4.6206   -3.5969 H       1  UNL1        0.0618
     33 H          -0.8058    5.6035   -1.3484 H       1  UNL1        0.0618
     34 H          -0.7577    4.1329    0.6369 H       1  UNL1        0.0625
@<TRIPOS>BOND
     1     1     2    2
     2     2     3    1
     3     3     4    1
     4     4     5    1
     5     5     6    1
     6     6     7    1
     7     3     8    2
     8     8     9    1
     9     9    10    1
    10    10    11    1
    11    11    12    1
    12     8    13    1
    13    13    14    2
    14    13    15    1
    15    15    16   ar
    16    16    17   ar
    17    17    18   ar
    18    18    19   ar
    19    19    20   ar
    20    20     2    1
    21    20    15   ar
    22     5    21    1
    23     5    22    1
    24     6    23    1
    25     6    24    1
    26     7    25    1
    27    10    26    1
    28    10    27    1
    29    11    28    1
    30    11    29    1
    31    12    30    1
    32    16    31    1
    33    17    32    1
    34    18    33    1
    35    19    34    1
