@<TRIPOS>MOLECULE
*****
 34 37 0 0 0
SMALL
GASTEIGER

@<TRIPOS>ATOM
      1 C           3.9488   -0.3504   -0.6594 C.3     1  UNL1       -0.0378
      2 C           2.8700    0.4301   -0.0190 C.ar    1  UNL1       -0.0244
      3 C           1.5754   -0.0125   -0.1866 C.ar    1  UNL1        0.0774
      4 N           1.4970   -1.1927   -0.9786 N.am    1  UNL1       -0.2784
      5 C           0.4484   -2.1760   -0.9158 C.2     1  UNL1        0.2517
      6 O           0.8010   -3.3035   -1.3742 O.2     1  UNL1       -0.2697
      7 C          -0.9082   -2.0219   -0.4069 C.ar    1  UNL1        0.0772
      8 C          -1.4377   -0.8946    0.1289 C.ar    1  UNL1        0.1390
      9 N          -2.7320   -0.9188    0.5596 N.ar    1  UNL1       -0.2392
     10 C          -3.4925   -2.0039    0.4740 C.ar    1  UNL1        0.0297
     11 C          -2.9340   -3.1407   -0.0746 C.ar    1  UNL1       -0.0427
     12 C          -1.6265   -3.1917   -0.5335 C.ar    1  UNL1       -0.0449
     13 N          -0.9192    0.4353    0.3734 N.pl3   1  UNL1       -0.2649
     14 C          -1.8090    1.5028    0.6098 C.3     1  UNL1        0.0314
     15 C          -1.6114    2.8808    0.8534 C.3     1  UNL1       -0.0322
     16 C          -1.9897    2.4459   -0.5863 C.3     1  UNL1       -0.0322
     17 C           0.5055    0.6513    0.3736 C.ar    1  UNL1        0.1485
     18 N           0.7725    1.7587    1.0977 N.ar    1  UNL1       -0.2380
     19 C           2.0221    2.2230    1.2846 C.ar    1  UNL1        0.0301
     20 C           3.1039    1.5640    0.7265 C.ar    1  UNL1       -0.0388
     21 H           4.0072   -0.1744   -1.7383 H       1  UNL1        0.0278
     22 H           3.8514   -1.3869   -0.3364 H       1  UNL1        0.0278
     23 H           4.9133    0.0391   -0.2296 H       1  UNL1        0.0278
     24 H           2.2833   -1.3224   -1.6498 H       1  UNL1        0.1552
     25 H          -4.5198   -2.0353    0.8119 H       1  UNL1        0.0830
     26 H          -3.5258   -4.0376   -0.1579 H       1  UNL1        0.0633
     27 H          -1.1665   -4.0615   -0.9644 H       1  UNL1        0.0627
     28 H          -2.8205    1.0944    0.9337 H       1  UNL1        0.0505
     29 H          -2.4460    3.4692    1.3444 H       1  UNL1        0.0284
     30 H          -0.7423    3.5389    0.8070 H       1  UNL1        0.0284
     31 H          -2.9995    2.6972   -0.9511 H       1  UNL1        0.0284
     32 H          -1.2214    2.4466   -1.3619 H       1  UNL1        0.0284
     33 H           2.1803    3.1271    1.8820 H       1  UNL1        0.0830
     34 H           4.1221    1.9205    0.8639 H       1  UNL1        0.0636
@<TRIPOS>BOND
     1     1     2    1
     2     2     3   ar
     3     3     4    1
     4     4     5   am
     5     5     6    2
     6     5     7    1
     7     7     8   ar
     8     8     9   ar
     9     9    10   ar
    10    10    11   ar
    11    11    12   ar
    12     8    13    1
    13    13    14    1
    14    14    15    1
    15    15    16    1
    16    13    17    1
    17    17    18   ar
    18    18    19   ar
    19    19    20   ar
    20    20     2   ar
    21    17     3   ar
    22    12     7   ar
    23    16    14    1
    24     1    21    1
    25     1    22    1
    26     1    23    1
    27     4    24    1
    28    10    25    1
    29    11    26    1
    30    12    27    1
    31    14    28    1
    32    15    29    1
    33    15    30    1
    34    16    31    1
    35    16    32    1
    36    19    33    1
    37    20    34    1
