@<TRIPOS>MOLECULE
*****
 68 72 0 0 0
SMALL
GASTEIGER

@<TRIPOS>ATOM
      1 C           0.9586   -2.4653   -1.5728 C.3     1  UNL1        0.0612
      2 O           2.0999   -2.4550   -2.2915 O.3     1  UNL1       -0.3912
      3 C           0.9799   -3.3451   -0.3188 C.3     1  UNL1       -0.0260
      4 C          -0.2433   -2.8933    0.4775 C.3     1  UNL1       -0.0470
      5 C          -0.8098   -1.7838   -0.3515 C.3     1  UNL1       -0.0298
      6 C          -1.6248   -0.7836    0.3722 C.3     1  UNL1       -0.0343
      7 C          -2.8167   -1.4810    0.9423 C.3     1  UNL1       -0.0494
      8 C          -4.0424   -0.6582    1.0981 C.3     1  UNL1       -0.0491
      9 C          -4.2972    0.3707    0.0453 C.3     1  UNL1       -0.0287
     10 C          -5.4923    1.1826    0.4343 C.3     1  UNL1        0.0092
     11 C          -5.3834    2.6013    0.0098 C.2     1  UNL1        0.1337
     12 O          -6.1786    3.3941    0.5006 O.2     1  UNL1       -0.2974
     13 C          -4.4104    3.1704   -0.9508 C.3     1  UNL1        0.0063
     14 C          -3.2620    2.2425   -1.2474 C.3     1  UNL1       -0.0404
     15 C          -3.0495    1.2023   -0.1998 C.3     1  UNL1       -0.0254
     16 C          -2.5950    1.8984    1.0633 C.3     1  UNL1       -0.0590
     17 C          -2.0333    0.2248   -0.6949 C.3     1  UNL1       -0.0322
     18 C          -0.8526    0.8526   -1.3483 C.3     1  UNL1       -0.0489
     19 C           0.0391   -0.1690   -1.9775 C.3     1  UNL1       -0.0444
     20 C           0.4779   -1.1955   -0.9689 C.3     1  UNL1        0.0019
     21 C           1.2801   -0.5779    0.1042 C.3     1  UNL1       -0.0212
     22 C           2.6630   -0.1827   -0.2371 C.3     1  UNL1        0.0487
     23 O           3.5290   -1.1559   -0.6360 O.3     1  UNL1       -0.3752
     24 C           4.8125   -0.6522   -0.9322 C.3     1  UNL1        0.0729
     25 C           5.4573    0.0084    0.2044 C.ar    1  UNL1       -0.0165
     26 C           5.3216    1.3721    0.4770 C.ar    1  UNL1       -0.0209
     27 C           5.8824    2.0716    1.5081 C.ar    1  UNL1        0.1265
     28 F           5.6427    3.3937    1.6195 F       1  UNL1       -0.2054
     29 C           6.6729    1.3330    2.3742 C.ar    1  UNL1        0.0088
     30 C           6.8624   -0.0153    2.1828 C.ar    1  UNL1        0.1265
     31 F           7.6555   -0.6613    3.0841 F       1  UNL1       -0.2054
     32 C           6.2653   -0.6689    1.1160 C.ar    1  UNL1       -0.0209
     33 H           0.0867   -2.8365   -2.2096 H       1  UNL1        0.0599
     34 H           1.8997   -2.5242   -3.2569 H       1  UNL1        0.2098
     35 H           0.9353   -4.4177   -0.5907 H       1  UNL1        0.0290
     36 H           1.9173   -3.1869    0.2145 H       1  UNL1        0.0290
     37 H          -0.9551   -3.7551    0.4440 H       1  UNL1        0.0269
     38 H          -0.0324   -2.6594    1.5182 H       1  UNL1        0.0269
     39 H          -1.3946   -2.1933   -1.1767 H       1  UNL1        0.0310
     40 H          -1.1394   -0.2289    1.1769 H       1  UNL1        0.0306
     41 H          -2.5343   -1.8403    1.9660 H       1  UNL1        0.0268
     42 H          -3.0316   -2.4141    0.3706 H       1  UNL1        0.0268
     43 H          -4.1448   -0.1980    2.1241 H       1  UNL1        0.0268
     44 H          -4.9175   -1.3665    1.0480 H       1  UNL1        0.0268
     45 H          -4.5238   -0.1172   -0.9190 H       1  UNL1        0.0310
     46 H          -6.4256    0.7867   -0.0468 H       1  UNL1        0.0344
     47 H          -5.5733    1.1687    1.5269 H       1  UNL1        0.0344
     48 H          -4.9487    3.4245   -1.8870 H       1  UNL1        0.0342
     49 H          -4.0660    4.1564   -0.5276 H       1  UNL1        0.0342
     50 H          -2.3461    2.8894   -1.2487 H       1  UNL1        0.0275
     51 H          -3.3744    1.8061   -2.2591 H       1  UNL1        0.0275
     52 H          -3.1715    2.8258    1.1656 H       1  UNL1        0.0235
     53 H          -2.7613    1.2999    1.9835 H       1  UNL1        0.0235
     54 H          -1.4815    2.0582    1.0158 H       1  UNL1        0.0235
     55 H          -2.5458   -0.3824   -1.4852 H       1  UNL1        0.0309
     56 H          -1.2687    1.4513   -2.2143 H       1  UNL1        0.0268
     57 H          -0.3234    1.6099   -0.7357 H       1  UNL1        0.0268
     58 H           0.9157    0.3781   -2.3896 H       1  UNL1        0.0272
     59 H          -0.4610   -0.6515   -2.8141 H       1  UNL1        0.0272
     60 H           1.3229   -1.2223    1.0207 H       1  UNL1        0.0294
     61 H           0.6894    0.3201    0.4639 H       1  UNL1        0.0294
     62 H           3.1227    0.2794    0.6911 H       1  UNL1        0.0560
     63 H           2.7262    0.6428   -0.9835 H       1  UNL1        0.0560
     64 H           5.4230   -1.4250   -1.4207 H       1  UNL1        0.0610
     65 H           4.6136    0.1101   -1.7407 H       1  UNL1        0.0610
     66 H           4.6914    1.9122   -0.2300 H       1  UNL1        0.0650
     67 H           7.1364    1.8560    3.2075 H       1  UNL1        0.0675
     68 H           6.4318   -1.7305    0.9898 H       1  UNL1        0.0650
@<TRIPOS>BOND
     1     1     2    1
     2     1     3    1
     3     3     4    1
     4     4     5    1
     5     5     6    1
     6     6     7    1
     7     7     8    1
     8     8     9    1
     9     9    10    1
    10    10    11    1
    11    11    12    2
    12    11    13    1
    13    13    14    1
    14    14    15    1
    15    15    16    1
    16    15    17    1
    17    17    18    1
    18    18    19    1
    19    19    20    1
    20    20    21    1
    21    21    22    1
    22    22    23    1
    23    23    24    1
    24    24    25    1
    25    25    26   ar
    26    26    27   ar
    27    27    28    1
    28    27    29   ar
    29    29    30   ar
    30    30    31    1
    31    30    32   ar
    32    20     1    1
    33    32    25   ar
    34    20     5    1
    35    17     6    1
    36    15     9    1
    37     1    33    1
    38     2    34    1
    39     3    35    1
    40     3    36    1
    41     4    37    1
    42     4    38    1
    43     5    39    1
    44     6    40    1
    45     7    41    1
    46     7    42    1
    47     8    43    1
    48     8    44    1
    49     9    45    1
    50    10    46    1
    51    10    47    1
    52    13    48    1
    53    13    49    1
    54    14    50    1
    55    14    51    1
    56    16    52    1
    57    16    53    1
    58    16    54    1
    59    17    55    1
    60    18    56    1
    61    18    57    1
    62    19    58    1
    63    19    59    1
    64    21    60    1
    65    21    61    1
    66    22    62    1
    67    22    63    1
    68    24    64    1
    69    24    65    1
    70    26    66    1
    71    29    67    1
    72    32    68    1
