@<TRIPOS>MOLECULE
*****
 12 11 0 0 0
SMALL
GASTEIGER

@<TRIPOS>ATOM
      1 C          -1.6661   -0.2569    0.0661 C.3     1  UNL1        0.0426
      2 O          -0.8042    0.7533    0.4179 O.3     1  UNL1       -0.3211
      3 C           0.4075    0.7688   -0.1717 C.3     1  UNL1        0.3867
      4 F           0.2970    0.8799   -1.5565 F       1  UNL1       -0.1723
      5 F           1.0711    1.9079    0.2502 F       1  UNL1       -0.1723
      6 C           1.2855   -0.4210    0.0776 C.3     1  UNL1        0.1974
      7 CL          1.5761   -0.5455    1.8444 Cl      1  UNL1       -0.0954
      8 CL          2.8815   -0.1918   -0.6768 Cl      1  UNL1       -0.0954
      9 H          -1.9146   -0.2702   -1.0025 H       1  UNL1        0.0526
     10 H          -1.3806   -1.2518    0.4724 H       1  UNL1        0.0526
     11 H          -2.6403   -0.0133    0.5788 H       1  UNL1        0.0526
     12 H           0.8872   -1.3593   -0.3000 H       1  UNL1        0.0722
@<TRIPOS>BOND
     1     1     2    1
     2     2     3    1
     3     3     4    1
     4     3     5    1
     5     3     6    1
     6     6     7    1
     7     6     8    1
     8     1     9    1
     9     1    10    1
    10     1    11    1
    11     6    12    1
