
     RDKit          3D

 12 11  0  0  0  0  0  0  0  0999 V2000
   -1.6661   -0.2569    0.0661 C   0  0  0  0  0  0  0  0  0  0  0  0
   -0.8042    0.7533    0.4179 O   0  0  0  0  0  0  0  0  0  0  0  0
    0.4075    0.7688   -0.1717 C   0  0  0  0  0  0  0  0  0  0  0  0
    0.2970    0.8799   -1.5565 F   0  0  0  0  0  0  0  0  0  0  0  0
    1.0711    1.9079    0.2502 F   0  0  0  0  0  0  0  0  0  0  0  0
    1.2855   -0.4210    0.0776 C   0  0  0  0  0  0  0  0  0  0  0  0
    1.5761   -0.5455    1.8444 Cl  0  0  0  0  0  0  0  0  0  0  0  0
    2.8815   -0.1918   -0.6768 Cl  0  0  0  0  0  0  0  0  0  0  0  0
   -1.9146   -0.2702   -1.0025 H   0  0  0  0  0  0  0  0  0  0  0  0
   -1.3806   -1.2518    0.4724 H   0  0  0  0  0  0  0  0  0  0  0  0
   -2.6403   -0.0133    0.5788 H   0  0  0  0  0  0  0  0  0  0  0  0
    0.8872   -1.3593   -0.3000 H   0  0  0  0  0  0  0  0  0  0  0  0
  1  2  1  0
  2  3  1  0
  3  4  1  0
  3  5  1  0
  3  6  1  0
  6  7  1  0
  6  8  1  0
  1  9  1  0
  1 10  1  0
  1 11  1  0
  6 12  1  0
M  END
$$$$
