@<TRIPOS>MOLECULE
*****
 59 62 0 0 0
SMALL
GASTEIGER

@<TRIPOS>ATOM
      1 C          -3.2378    0.5279    0.0523 C.3     1  UNL1        0.0600
      2 C          -2.7020   -0.2118    1.2136 C.3     1  UNL1        0.0650
      3 O          -3.6051   -1.1168    1.7697 O.3     1  UNL1       -0.3930
      4 C          -3.7005   -0.1845   -1.1347 C.3     1  UNL1       -0.0119
      5 C          -2.8339   -1.0248   -1.9669 C.3     1  UNL1        0.0252
      6 N          -2.1651   -2.1557   -1.4120 N.ar    1  UNL1       -0.3465
      7 C          -2.8038   -3.3535   -1.2462 C.ar    1  UNL1        0.0057
      8 C          -1.9986   -4.3039   -0.6756 C.ar    1  UNL1       -0.0364
      9 C          -0.7810   -3.7014   -0.4596 C.ar    1  UNL1       -0.0000
     10 C          -0.9259   -2.4117   -0.9169 C.ar    1  UNL1        0.0508
     11 C           0.1131   -1.4996   -0.8695 C.ar    1  UNL1       -0.0163
     12 C           1.3500   -1.8228   -0.3638 C.ar    1  UNL1        0.0367
     13 N           2.3721   -0.8502   -0.3412 N.am    1  UNL1       -0.2694
     14 C           3.7027   -0.9336    0.1188 C.2     1  UNL1        0.3041
     15 O           4.0927   -2.0050    0.5878 O.2     1  UNL1       -0.2525
     16 N           4.6389    0.1082    0.0913 N.am    1  UNL1       -0.2950
     17 C           5.9642   -0.1729    0.6127 C.3     1  UNL1        0.0383
     18 C           6.8548    0.9922    0.5305 C.ar    1  UNL1       -0.0303
     19 C           6.9454    1.9184    1.5727 C.ar    1  UNL1       -0.0571
     20 C           7.7679    3.0237    1.5348 C.ar    1  UNL1       -0.0615
     21 C           8.5445    3.2379    0.4203 C.ar    1  UNL1       -0.0617
     22 C           8.5017    2.3565   -0.6493 C.ar    1  UNL1       -0.0615
     23 C           7.6575    1.2450   -0.5805 C.ar    1  UNL1       -0.0571
     24 C           1.4509   -3.1178    0.0819 C.ar    1  UNL1       -0.0397
     25 C           0.4465   -4.0610    0.0552 C.ar    1  UNL1       -0.0508
     26 N          -4.2931    1.4874    0.4724 N.ar    1  UNL1       -0.3308
     27 C          -4.1455    2.4697    1.4073 C.ar    1  UNL1        0.0971
     28 N          -5.3441    3.1104    1.4848 N.ar    1  UNL1       -0.2311
     29 C          -6.2213    2.5554    0.6305 C.ar    1  UNL1        0.1428
     30 C          -5.5671    1.5271   -0.0158 C.ar    1  UNL1        0.0368
     31 C          -7.6069    2.9601    0.4212 C.2     1  UNL1        0.2613
     32 N          -8.4152    2.2764   -0.5195 N.am    1  UNL1       -0.3240
     33 O          -8.0846    3.9199    1.0791 O.2     1  UNL1       -0.2687
     34 H          -2.3915    1.2296   -0.2726 H       1  UNL1        0.0551
     35 H          -2.5504    0.5480    2.0493 H       1  UNL1        0.0578
     36 H          -1.7420   -0.6646    1.0813 H       1  UNL1        0.0578
     37 H          -3.9267   -1.7809    1.1255 H       1  UNL1        0.2095
     38 H          -4.6781   -0.7280   -0.8825 H       1  UNL1        0.0303
     39 H          -4.1178    0.6165   -1.8524 H       1  UNL1        0.0303
     40 H          -3.4306   -1.4453   -2.8508 H       1  UNL1        0.0492
     41 H          -2.0532   -0.4155   -2.5234 H       1  UNL1        0.0492
     42 H          -3.8306   -3.5961   -1.5130 H       1  UNL1        0.0809
     43 H          -2.2350   -5.3269   -0.4302 H       1  UNL1        0.0639
     44 H          -0.0221   -0.4703   -1.2415 H       1  UNL1        0.0657
     45 H           2.1646    0.1111   -0.7155 H       1  UNL1        0.1564
     46 H           4.3432    1.0465   -0.3045 H       1  UNL1        0.1506
     47 H           5.9301   -0.5574    1.6542 H       1  UNL1        0.0512
     48 H           6.4191   -0.9757   -0.0219 H       1  UNL1        0.0512
     49 H           6.3392    1.7753    2.4739 H       1  UNL1        0.0621
     50 H           7.8465    3.7397    2.3251 H       1  UNL1        0.0618
     51 H           9.2402    4.0703    0.2550 H       1  UNL1        0.0618
     52 H           9.0950    2.4679   -1.5686 H       1  UNL1        0.0618
     53 H           7.6119    0.5420   -1.4131 H       1  UNL1        0.0621
     54 H           2.3774   -3.4749    0.4977 H       1  UNL1        0.0636
     55 H           0.5664   -5.0572    0.4118 H       1  UNL1        0.0625
     56 H          -3.2250    2.6540    1.9495 H       1  UNL1        0.1029
     57 H          -5.9558    0.8648   -0.7649 H       1  UNL1        0.0833
     58 H          -8.9013    2.6364   -1.3610 H       1  UNL1        0.1453
     59 H          -8.8451    1.4013   -0.8371 H       1  UNL1        0.1453
@<TRIPOS>BOND
     1     1     2    1
     2     2     3    1
     3     1     4    1
     4     4     5    1
     5     5     6    1
     6     6     7   ar
     7     7     8   ar
     8     8     9   ar
     9     9    10   ar
    10    10    11   ar
    11    11    12   ar
    12    12    13    1
    13    13    14   am
    14    14    15    2
    15    14    16   am
    16    16    17    1
    17    17    18    1
    18    18    19   ar
    19    19    20   ar
    20    20    21   ar
    21    21    22   ar
    22    22    23   ar
    23    12    24   ar
    24    24    25   ar
    25     1    26    1
    26    26    27   ar
    27    27    28   ar
    28    28    29   ar
    29    29    30   ar
    30    29    31    1
    31    31    32   am
    32    31    33    2
    33    10     6   ar
    34    23    18   ar
    35    30    26   ar
    36    25     9   ar
    37     1    34    1
    38     2    35    1
    39     2    36    1
    40     3    37    1
    41     4    38    1
    42     4    39    1
    43     5    40    1
    44     5    41    1
    45     7    42    1
    46     8    43    1
    47    11    44    1
    48    13    45    1
    49    16    46    1
    50    17    47    1
    51    17    48    1
    52    19    49    1
    53    20    50    1
    54    21    51    1
    55    22    52    1
    56    23    53    1
    57    24    54    1
    58    25    55    1
    59    27    56    1
    60    30    57    1
    61    32    58    1
    62    32    59    1
