
     RDKit          3D

 50 53  0  0  0  0  0  0  0  0999 V2000
    2.2775    0.7617   -1.8259 C   0  0  0  0  0  0  0  0  0  0  0  0
    1.7936   -0.0412   -0.7637 N   0  0  0  0  0  0  0  0  0  0  0  0
    0.4011   -0.0524   -0.5876 C   0  0  2  0  0  0  0  0  0  0  0  0
   -0.3263    0.2233   -1.8566 C   0  0  0  0  0  0  0  0  0  0  0  0
   -1.5498    1.0932   -1.7113 C   0  0  0  0  0  0  0  0  0  0  0  0
   -2.2673    0.7872   -0.4525 C   0  0  0  0  0  0  0  0  0  0  0  0
   -1.5247    0.6686    0.7022 C   0  0  0  0  0  0  0  0  0  0  0  0
   -2.3703    0.3897    1.7604 C   0  0  0  0  0  0  0  0  0  0  0  0
   -2.1254    0.1822    3.1059 C   0  0  0  0  0  0  0  0  0  0  0  0
   -3.1767   -0.0832    3.9535 C   0  0  0  0  0  0  0  0  0  0  0  0
   -4.4484   -0.1332    3.4251 C   0  0  0  0  0  0  0  0  0  0  0  0
   -4.6223    0.0823    2.0788 C   0  0  0  0  0  0  0  0  0  0  0  0
   -3.6104    0.3441    1.2271 N   0  0  0  0  0  0  0  0  0  0  0  0
   -3.5930    0.5766   -0.0952 C   0  0  0  0  0  0  0  0  0  0  0  0
   -4.7519    0.6073   -1.0219 C   0  0  0  0  0  0  0  0  0  0  0  0
   -4.8534   -0.5938   -1.8489 C   0  0  0  0  0  0  0  0  0  0  0  0
   -4.0147   -1.5148   -1.7349 O   0  0  0  0  0  0  0  0  0  0  0  0
   -5.8708   -0.7477   -2.7747 O   0  0  0  0  0  0  0  0  0  0  0  0
   -0.0496    0.8523    0.5485 C   0  0  0  0  0  0  0  0  0  0  0  0
    2.6448   -1.4679   -0.4474 S   0  0  0  0  0  6  0  0  0  0  0  0
    2.0268   -2.1904    0.6981 O   0  0  0  0  0  0  0  0  0  0  0  0
    2.7544   -2.3636   -1.6480 O   0  0  0  0  0  0  0  0  0  0  0  0
    4.2893   -1.0381    0.0049 C   0  0  0  0  0  0  0  0  0  0  0  0
    5.2939   -0.9002   -0.9456 C   0  0  0  0  0  0  0  0  0  0  0  0
    6.5933   -0.5621   -0.6037 C   0  0  0  0  0  0  0  0  0  0  0  0
    6.8723   -0.3602    0.7389 C   0  0  0  0  0  0  0  0  0  0  0  0
    8.1570   -0.0285    1.0448 F   0  0  0  0  0  0  0  0  0  0  0  0
    5.8873   -0.4937    1.6870 C   0  0  0  0  0  0  0  0  0  0  0  0
    4.6002   -0.8296    1.3397 C   0  0  0  0  0  0  0  0  0  0  0  0
    3.3808    0.9878   -1.7174 H   0  0  0  0  0  0  0  0  0  0  0  0
    2.2308    0.2124   -2.8098 H   0  0  0  0  0  0  0  0  0  0  0  0
    1.7976    1.7547   -1.8682 H   0  0  0  0  0  0  0  0  0  0  0  0
    0.1213   -1.0997   -0.2370 H   0  0  0  0  0  0  0  0  0  0  0  0
    0.2920    0.6764   -2.6561 H   0  0  0  0  0  0  0  0  0  0  0  0
   -0.6880   -0.7462   -2.2917 H   0  0  0  0  0  0  0  0  0  0  0  0
   -2.2317    0.8742   -2.5480 H   0  0  0  0  0  0  0  0  0  0  0  0
   -1.2325    2.1651   -1.7447 H   0  0  0  0  0  0  0  0  0  0  0  0
   -1.1211    0.2269    3.4942 H   0  0  0  0  0  0  0  0  0  0  0  0
   -3.0095   -0.2522    5.0302 H   0  0  0  0  0  0  0  0  0  0  0  0
   -5.3076   -0.3385    4.0545 H   0  0  0  0  0  0  0  0  0  0  0  0
   -5.6240    0.0496    1.6242 H   0  0  0  0  0  0  0  0  0  0  0  0
   -5.6931    0.7549   -0.4147 H   0  0  0  0  0  0  0  0  0  0  0  0
   -4.6819    1.5240   -1.6475 H   0  0  0  0  0  0  0  0  0  0  0  0
   -5.6784   -1.3785   -3.5614 H   0  0  0  0  0  0  0  0  0  0  0  0
    0.2298    1.9001    0.3658 H   0  0  0  0  0  0  0  0  0  0  0  0
    0.4248    0.4662    1.4730 H   0  0  0  0  0  0  0  0  0  0  0  0
    5.0686   -1.0577   -1.9798 H   0  0  0  0  0  0  0  0  0  0  0  0
    7.3384   -0.4672   -1.3817 H   0  0  0  0  0  0  0  0  0  0  0  0
    6.1180   -0.3358    2.7183 H   0  0  0  0  0  0  0  0  0  0  0  0
    3.8295   -0.9321    2.1008 H   0  0  0  0  0  0  0  0  0  0  0  0
  1  2  1  0
  2  3  1  0
  3  4  1  0
  4  5  1  0
  5  6  1  0
  6  7  1  0
  7  8  2  0
  8  9  1  0
  9 10  2  0
 10 11  1  0
 11 12  2  0
 12 13  1  0
 13 14  1  0
 14 15  1  0
 15 16  1  0
 16 17  2  0
 16 18  1  0
  7 19  1  0
  2 20  1  0
 20 21  2  0
 20 22  2  0
 20 23  1  0
 23 24  2  0
 24 25  1  0
 25 26  2  0
 26 27  1  0
 26 28  1  0
 28 29  2  0
 19  3  1  0
 29 23  1  0
 14  6  2  0
 13  8  1  0
  1 30  1  0
  1 31  1  0
  1 32  1  0
  3 33  1  1
  4 34  1  0
  4 35  1  0
  5 36  1  0
  5 37  1  0
  9 38  1  0
 10 39  1  0
 11 40  1  0
 12 41  1  0
 15 42  1  0
 15 43  1  0
 18 44  1  0
 19 45  1  0
 19 46  1  0
 24 47  1  0
 25 48  1  0
 28 49  1  0
 29 50  1  0
M  END
$$$$
