@<TRIPOS>MOLECULE
*****
 50 53 0 0 0
SMALL
GASTEIGER

@<TRIPOS>ATOM
      1 C           2.2775    0.7617   -1.8259 C.3     1  UNL1        0.0093
      2 N           1.7936   -0.0412   -0.7637 N.3     1  UNL1       -0.1763
      3 C           0.4011   -0.0524   -0.5876 C.3     1  UNL1        0.0359
      4 C          -0.3263    0.2233   -1.8566 C.3     1  UNL1       -0.0313
      5 C          -1.5498    1.0932   -1.7113 C.3     1  UNL1       -0.0242
      6 C          -2.2673    0.7872   -0.4525 C.ar    1  UNL1       -0.0219
      7 C          -1.5247    0.6686    0.7022 C.ar    1  UNL1       -0.0172
      8 C          -2.3703    0.3897    1.7604 C.ar    1  UNL1        0.0498
      9 C          -2.1254    0.1822    3.1059 C.ar    1  UNL1       -0.0375
     10 C          -3.1767   -0.0832    3.9535 C.ar    1  UNL1       -0.0584
     11 C          -4.4484   -0.1332    3.4251 C.ar    1  UNL1       -0.0451
     12 C          -4.6223    0.0823    2.0788 C.ar    1  UNL1        0.0101
     13 N          -3.6104    0.3441    1.2271 N.ar    1  UNL1       -0.3190
     14 C          -3.5930    0.5766   -0.0952 C.ar    1  UNL1        0.0378
     15 C          -4.7519    0.6073   -1.0219 C.3     1  UNL1        0.0857
     16 C          -4.8534   -0.5938   -1.8489 C.2     1  UNL1        0.3105
     17 O          -4.0147   -1.5148   -1.7349 O.2     1  UNL1       -0.2506
     18 O          -5.8708   -0.7477   -2.7747 O.3     1  UNL1       -0.4804
     19 C          -0.0496    0.8523    0.5485 C.3     1  UNL1       -0.0081
     20 S           2.6448   -1.4679   -0.4474 S.O2    1  UNL1        0.0609
     21 O           2.0268   -2.1904    0.6981 O.2     1  UNL1       -0.1528
     22 O           2.7544   -2.3636   -1.6480 O.2     1  UNL1       -0.1528
     23 C           4.2893   -1.0381    0.0049 C.ar    1  UNL1        0.1056
     24 C           5.2939   -0.9002   -0.9456 C.ar    1  UNL1       -0.0326
     25 C           6.5933   -0.5621   -0.6037 C.ar    1  UNL1       -0.0246
     26 C           6.8723   -0.3602    0.7389 C.ar    1  UNL1        0.1235
     27 F           8.1570   -0.0285    1.0448 F       1  UNL1       -0.2055
     28 C           5.8873   -0.4937    1.6870 C.ar    1  UNL1       -0.0246
     29 C           4.6002   -0.8296    1.3397 C.ar    1  UNL1       -0.0326
     30 H           3.3808    0.9878   -1.7174 H       1  UNL1        0.0408
     31 H           2.2308    0.2124   -2.8098 H       1  UNL1        0.0408
     32 H           1.7976    1.7547   -1.8682 H       1  UNL1        0.0408
     33 H           0.1213   -1.0997   -0.2370 H       1  UNL1        0.0483
     34 H           0.2920    0.6764   -2.6561 H       1  UNL1        0.0284
     35 H          -0.6880   -0.7462   -2.2917 H       1  UNL1        0.0284
     36 H          -2.2317    0.8742   -2.5480 H       1  UNL1        0.0314
     37 H          -1.2325    2.1651   -1.7447 H       1  UNL1        0.0314
     38 H          -1.1211    0.2269    3.4942 H       1  UNL1        0.0638
     39 H          -3.0095   -0.2522    5.0302 H       1  UNL1        0.0619
     40 H          -5.3076   -0.3385    4.0545 H       1  UNL1        0.0632
     41 H          -5.6240    0.0496    1.6242 H       1  UNL1        0.0813
     42 H          -5.6931    0.7549   -0.4147 H       1  UNL1        0.0441
     43 H          -4.6819    1.5240   -1.6475 H       1  UNL1        0.0441
     44 H          -5.6784   -1.3785   -3.5614 H       1  UNL1        0.2951
     45 H           0.2298    1.9001    0.3658 H       1  UNL1        0.0330
     46 H           0.4248    0.4662    1.4730 H       1  UNL1        0.0330
     47 H           5.0686   -1.0577   -1.9798 H       1  UNL1        0.0638
     48 H           7.3384   -0.4672   -1.3817 H       1  UNL1        0.0647
     49 H           6.1180   -0.3358    2.7183 H       1  UNL1        0.0647
     50 H           3.8295   -0.9321    2.1008 H       1  UNL1        0.0638
@<TRIPOS>BOND
     1     1     2    1
     2     2     3    1
     3     3     4    1
     4     4     5    1
     5     5     6    1
     6     6     7   ar
     7     7     8   ar
     8     8     9   ar
     9     9    10   ar
    10    10    11   ar
    11    11    12   ar
    12    12    13   ar
    13    13    14   ar
    14    14    15    1
    15    15    16    1
    16    16    17    2
    17    16    18    1
    18     7    19    1
    19     2    20    1
    20    20    21    2
    21    20    22    2
    22    20    23    1
    23    23    24   ar
    24    24    25   ar
    25    25    26   ar
    26    26    27    1
    27    26    28   ar
    28    28    29   ar
    29    19     3    1
    30    29    23   ar
    31    14     6   ar
    32    13     8   ar
    33     1    30    1
    34     1    31    1
    35     1    32    1
    36     3    33    1
    37     4    34    1
    38     4    35    1
    39     5    36    1
    40     5    37    1
    41     9    38    1
    42    10    39    1
    43    11    40    1
    44    12    41    1
    45    15    42    1
    46    15    43    1
    47    18    44    1
    48    19    45    1
    49    19    46    1
    50    24    47    1
    51    25    48    1
    52    28    49    1
    53    29    50    1
