@<TRIPOS>MOLECULE
*****
 38 41 0 0 0
SMALL
GASTEIGER

@<TRIPOS>ATOM
      1 CL         -4.2418   -4.3777   -0.9968 Cl      1  UNL1       -0.0820
      2 C          -4.2829   -2.6628   -0.7311 C.ar    1  UNL1        0.0599
      3 C          -5.5163   -2.0605   -0.7372 C.ar    1  UNL1       -0.0419
      4 C          -5.5577   -0.7029   -0.5276 C.ar    1  UNL1       -0.0597
      5 C          -4.4018    0.0136   -0.3209 C.ar    1  UNL1       -0.0511
      6 C          -3.1458   -0.5612   -0.3087 C.ar    1  UNL1        0.0202
      7 C          -3.1633   -1.9083   -0.5214 C.ar    1  UNL1        0.0684
      8 CL         -1.6842   -2.7960   -0.5401 Cl      1  UNL1       -0.0814
      9 C          -2.0259    0.3172   -0.0795 C.ar    1  UNL1        0.0780
     10 N          -2.2851    1.6212    0.1040 N.ar    1  UNL1       -0.2276
     11 C          -1.3633    2.5682    0.3278 C.ar    1  UNL1        0.1581
     12 C          -1.5606    3.9194    0.5237 C.ar    1  UNL1        0.0024
     13 C          -0.2782    4.4429    0.7104 C.ar    1  UNL1        0.0520
     14 N           0.6067    3.4064    0.6200 N.ar    1  UNL1       -0.1717
     15 N          -0.0543    2.2889    0.3907 N.ar    1  UNL1       -0.2006
     16 C           0.2910    1.0030    0.2171 C.ar    1  UNL1        0.1248
     17 N           1.6560    0.6039    0.2658 N.pl3   1  UNL1       -0.3248
     18 C           2.1437   -0.7262    0.0968 C.3     1  UNL1        0.0358
     19 C           3.6047   -0.8865    0.1909 C.ar    1  UNL1       -0.0275
     20 C           4.4509   -0.7896   -0.9043 C.ar    1  UNL1       -0.0389
     21 C           5.8000   -0.9597   -0.6840 C.ar    1  UNL1        0.0279
     22 N           6.3878   -1.2136    0.5006 N.ar    1  UNL1       -0.2632
     23 C           5.5850   -1.3116    1.5768 C.ar    1  UNL1        0.0279
     24 C           4.2289   -1.1494    1.4088 C.ar    1  UNL1       -0.0389
     25 C          -0.6934    0.0762   -0.0086 C.ar    1  UNL1        0.0043
     26 H          -6.4349   -2.5927   -0.8956 H       1  UNL1        0.0633
     27 H          -6.5233   -0.2232   -0.5311 H       1  UNL1        0.0618
     28 H          -4.5755    1.0805   -0.1677 H       1  UNL1        0.0625
     29 H          -2.5182    4.4417    0.5275 H       1  UNL1        0.0670
     30 H          -0.0383    5.4676    0.8908 H       1  UNL1        0.0848
     31 H           2.3778    1.3073    0.4351 H       1  UNL1        0.1478
     32 H           1.6969   -1.3476    0.9213 H       1  UNL1        0.0511
     33 H           1.8247   -1.1411   -0.8840 H       1  UNL1        0.0511
     34 H           4.0447   -0.5908   -1.8649 H       1  UNL1        0.0636
     35 H           6.4837   -0.8867   -1.5372 H       1  UNL1        0.0829
     36 H           5.9800   -1.5146    2.5688 H       1  UNL1        0.0829
     37 H           3.5495   -1.2245    2.2715 H       1  UNL1        0.0636
     38 H          -0.3672   -0.9309   -0.1401 H       1  UNL1        0.0673
@<TRIPOS>BOND
     1     1     2    1
     2     2     3   ar
     3     3     4   ar
     4     4     5   ar
     5     5     6   ar
     6     6     7   ar
     7     7     8    1
     8     6     9    1
     9     9    10   ar
    10    10    11   ar
    11    11    12   ar
    12    12    13   ar
    13    13    14   ar
    14    14    15   ar
    15    15    16   ar
    16    16    17    1
    17    17    18    1
    18    18    19    1
    19    19    20   ar
    20    20    21   ar
    21    21    22   ar
    22    22    23   ar
    23    23    24   ar
    24    16    25   ar
    25     7     2   ar
    26    25     9   ar
    27    15    11   ar
    28    24    19   ar
    29     3    26    1
    30     4    27    1
    31     5    28    1
    32    12    29    1
    33    13    30    1
    34    17    31    1
    35    18    32    1
    36    18    33    1
    37    20    34    1
    38    21    35    1
    39    23    36    1
    40    24    37    1
    41    25    38    1
