
     RDKit          3D

 38 41  0  0  0  0  0  0  0  0999 V2000
   -1.5411    2.1206   -0.2766 F   0  0  0  0  0  0  0  0  0  0  0  0
   -2.8349    1.6955   -0.2413 C   0  0  0  0  0  0  0  0  0  0  0  0
   -3.8301    2.6297   -0.4060 C   0  0  0  0  0  0  0  0  0  0  0  0
   -5.1577    2.2690   -0.3812 C   0  0  0  0  0  0  0  0  0  0  0  0
   -5.4464    0.9219   -0.1827 C   0  0  0  0  0  0  0  0  0  0  0  0
   -4.4407   -0.0037   -0.0191 C   0  0  0  0  0  0  0  0  0  0  0  0
   -3.1113    0.3432   -0.0417 C   0  0  0  0  0  0  0  0  0  0  0  0
   -1.9787   -0.5623    0.1217 C   0  0  0  0  0  0  0  0  0  0  0  0
   -2.1562   -1.9075    0.3224 C   0  0  0  0  0  0  0  0  0  0  0  0
   -1.1532   -2.7920    0.4797 N   0  0  0  0  0  0  0  0  0  0  0  0
   -1.0182   -4.1149    0.6841 C   0  0  0  0  0  0  0  0  0  0  0  0
    0.3196   -4.4391    0.7637 C   0  0  0  0  0  0  0  0  0  0  0  0
    1.0455   -3.3053    0.6076 N   0  0  0  0  0  0  0  0  0  0  0  0
    0.1271   -2.3310    0.4385 C   0  0  0  0  0  0  0  0  0  0  0  0
    0.3154   -0.9782    0.2369 C   0  0  0  0  0  0  0  0  0  0  0  0
    1.6498   -0.4331    0.1842 N   0  0  0  0  0  0  0  0  0  0  0  0
    1.8887    0.9892   -0.0268 C   0  0  0  0  0  0  0  0  0  0  0  0
    3.3472    1.2565   -0.0347 C   0  0  0  0  0  0  0  0  0  0  0  0
    3.9861    1.1810   -1.2704 C   0  0  0  0  0  0  0  0  0  0  0  0
    5.3485    1.4152   -1.3768 C   0  0  0  0  0  0  0  0  0  0  0  0
    5.9908    1.7196   -0.1853 C   0  0  0  0  0  0  0  0  0  0  0  0
    5.3770    1.7933    1.0095 N   0  0  0  0  0  0  0  0  0  0  0  0
    4.0399    1.5646    1.1211 C   0  0  0  0  0  0  0  0  0  0  0  0
   -0.7074   -0.1263    0.0841 N   0  0  0  0  0  0  0  0  0  0  0  0
   -3.6280    3.6845   -0.5619 H   0  0  0  0  0  0  0  0  0  0  0  0
   -6.0177    2.9080   -0.4979 H   0  0  0  0  0  0  0  0  0  0  0  0
   -6.4715    0.5759   -0.1533 H   0  0  0  0  0  0  0  0  0  0  0  0
   -4.6662   -1.0404    0.1336 H   0  0  0  0  0  0  0  0  0  0  0  0
   -3.1253   -2.3554    0.3686 H   0  0  0  0  0  0  0  0  0  0  0  0
   -1.8894   -4.7754    0.7649 H   0  0  0  0  0  0  0  0  0  0  0  0
    0.6796   -5.4659    0.9281 H   0  0  0  0  0  0  0  0  0  0  0  0
    2.4604   -1.0812    0.3011 H   0  0  0  0  0  0  0  0  0  0  0  0
    1.3823    1.5637    0.7748 H   0  0  0  0  0  0  0  0  0  0  0  0
    1.4083    1.2706   -0.9839 H   0  0  0  0  0  0  0  0  0  0  0  0
    3.4130    0.9354   -2.1674 H   0  0  0  0  0  0  0  0  0  0  0  0
    5.8302    1.3554   -2.3269 H   0  0  0  0  0  0  0  0  0  0  0  0
    7.0673    1.9076   -0.2504 H   0  0  0  0  0  0  0  0  0  0  0  0
    3.4973    1.6113    2.0598 H   0  0  0  0  0  0  0  0  0  0  0  0
  1  2  1  0
  2  3  2  0
  3  4  1  0
  4  5  2  0
  5  6  1  0
  6  7  2  0
  7  8  1  0
  8  9  2  0
  9 10  1  0
 10 11  1  0
 11 12  2  0
 12 13  1  0
 13 14  2  0
 14 15  1  0
 15 16  1  0
 16 17  1  0
 17 18  1  0
 18 19  2  0
 19 20  1  0
 20 21  2  0
 21 22  1  0
 22 23  2  0
 15 24  2  0
  7  2  1  0
 24  8  1  0
 14 10  1  0
 23 18  1  0
  3 25  1  0
  4 26  1  0
  5 27  1  0
  6 28  1  0
  9 29  1  0
 11 30  1  0
 12 31  1  0
 16 32  1  0
 17 33  1  0
 17 34  1  0
 19 35  1  0
 20 36  1  0
 21 37  1  0
 23 38  1  0
M  END
$$$$
