@<TRIPOS>MOLECULE
*****
 38 41 0 0 0
SMALL
GASTEIGER

@<TRIPOS>ATOM
      1 F          -1.5411    2.1206   -0.2766 F       1  UNL1       -0.2048
      2 C          -2.8349    1.6955   -0.2413 C.ar    1  UNL1        0.1326
      3 C          -3.8301    2.6297   -0.4060 C.ar    1  UNL1       -0.0258
      4 C          -5.1577    2.2690   -0.3812 C.ar    1  UNL1       -0.0590
      5 C          -5.4464    0.9219   -0.1827 C.ar    1  UNL1       -0.0610
      6 C          -4.4407   -0.0037   -0.0191 C.ar    1  UNL1       -0.0498
      7 C          -3.1113    0.3432   -0.0417 C.ar    1  UNL1        0.0370
      8 C          -1.9787   -0.5623    0.1217 C.ar    1  UNL1        0.0924
      9 C          -2.1562   -1.9075    0.3224 C.ar    1  UNL1        0.0374
     10 N          -1.1532   -2.7920    0.4797 N.ar    1  UNL1       -0.3018
     11 C          -1.0182   -4.1149    0.6841 C.ar    1  UNL1        0.0294
     12 C           0.3196   -4.4391    0.7637 C.ar    1  UNL1        0.0465
     13 N           1.0455   -3.3053    0.6076 N.ar    1  UNL1       -0.2330
     14 C           0.1271   -2.3310    0.4385 C.ar    1  UNL1        0.1780
     15 C           0.3154   -0.9782    0.2369 C.ar    1  UNL1        0.1629
     16 N           1.6498   -0.4331    0.1842 N.pl3   1  UNL1       -0.3220
     17 C           1.8887    0.9892   -0.0268 C.3     1  UNL1        0.0372
     18 C           3.3472    1.2565   -0.0347 C.ar    1  UNL1       -0.0123
     19 C           3.9861    1.1810   -1.2704 C.ar    1  UNL1       -0.0542
     20 C           5.3485    1.4152   -1.3768 C.ar    1  UNL1       -0.0433
     21 C           5.9908    1.7196   -0.1853 C.ar    1  UNL1        0.0276
     22 N           5.3770    1.7933    1.0095 N.ar    1  UNL1       -0.2629
     23 C           4.0399    1.5646    1.1211 C.ar    1  UNL1        0.0322
     24 N          -0.7074   -0.1263    0.0841 N.ar    1  UNL1       -0.2269
     25 H          -3.6280    3.6845   -0.5619 H       1  UNL1        0.0646
     26 H          -6.0177    2.9080   -0.4979 H       1  UNL1        0.0618
     27 H          -6.4715    0.5759   -0.1533 H       1  UNL1        0.0618
     28 H          -4.6662   -1.0404    0.1336 H       1  UNL1        0.0625
     29 H          -3.1253   -2.3554    0.3686 H       1  UNL1        0.0835
     30 H          -1.8894   -4.7754    0.7649 H       1  UNL1        0.0829
     31 H           0.6796   -5.4659    0.9281 H       1  UNL1        0.0845
     32 H           2.4604   -1.0812    0.3011 H       1  UNL1        0.1479
     33 H           1.3823    1.5637    0.7748 H       1  UNL1        0.0512
     34 H           1.4083    1.2706   -0.9839 H       1  UNL1        0.0512
     35 H           3.4130    0.9354   -2.1674 H       1  UNL1        0.0622
     36 H           5.8302    1.3554   -2.3269 H       1  UNL1        0.0633
     37 H           7.0673    1.9076   -0.2504 H       1  UNL1        0.0829
     38 H           3.4973    1.6113    2.0598 H       1  UNL1        0.0833
@<TRIPOS>BOND
     1     1     2    1
     2     2     3   ar
     3     3     4   ar
     4     4     5   ar
     5     5     6   ar
     6     6     7   ar
     7     7     8    1
     8     8     9   ar
     9     9    10   ar
    10    10    11   ar
    11    11    12   ar
    12    12    13   ar
    13    13    14   ar
    14    14    15   ar
    15    15    16    1
    16    16    17    1
    17    17    18    1
    18    18    19   ar
    19    19    20   ar
    20    20    21   ar
    21    21    22   ar
    22    22    23   ar
    23    15    24   ar
    24     7     2   ar
    25    24     8   ar
    26    14    10   ar
    27    23    18   ar
    28     3    25    1
    29     4    26    1
    30     5    27    1
    31     6    28    1
    32     9    29    1
    33    11    30    1
    34    12    31    1
    35    16    32    1
    36    17    33    1
    37    17    34    1
    38    19    35    1
    39    20    36    1
    40    21    37    1
    41    23    38    1
