@<TRIPOS>MOLECULE
*****
 30 31 0 0 0
SMALL
GASTEIGER

@<TRIPOS>ATOM
      1 O          -4.7355   -1.7727   -0.5939 O.3     1  UNL1       -0.5066
      2 C          -4.0343   -0.5902   -0.3613 C.ar    1  UNL1        0.1209
      3 C          -2.6569   -0.5791   -0.2739 C.ar    1  UNL1       -0.0128
      4 C          -1.9110    0.5540   -0.0463 C.ar    1  UNL1       -0.0181
      5 C          -0.4568    0.5670    0.0462 C.2     1  UNL1       -0.0538
      6 C           0.3189   -0.4765   -0.0724 C.2     1  UNL1       -0.0539
      7 C           1.7735   -0.4737    0.0185 C.ar    1  UNL1       -0.0213
      8 C           2.5337    0.6533    0.2460 C.ar    1  UNL1       -0.0509
      9 C           3.8911    0.6901    0.3363 C.ar    1  UNL1       -0.0160
     10 C           4.5965   -0.4916    0.1912 C.ar    1  UNL1        0.1582
     11 O           5.9741   -0.5021    0.2752 O.3     1  UNL1       -0.5033
     12 C           3.8863   -1.6519   -0.0386 C.ar    1  UNL1        0.1588
     13 O           4.5883   -2.8415   -0.1852 O.3     1  UNL1       -0.5033
     14 C           2.5093   -1.6213   -0.1193 C.ar    1  UNL1       -0.0094
     15 C          -2.6448    1.7092    0.0927 C.ar    1  UNL1       -0.0128
     16 C          -4.0217    1.7473    0.0131 C.ar    1  UNL1        0.1209
     17 O          -4.6829    2.9803    0.1691 O.3     1  UNL1       -0.5066
     18 C          -4.7343    0.5894   -0.2163 C.ar    1  UNL1        0.0213
     19 H          -5.7033   -1.7534   -0.8166 H       1  UNL1        0.2921
     20 H          -2.1821   -1.5218   -0.3950 H       1  UNL1        0.0660
     21 H           0.0272    1.5107    0.2272 H       1  UNL1        0.0624
     22 H          -0.1618   -1.4275   -0.2544 H       1  UNL1        0.0624
     23 H           2.0467    1.6105    0.3688 H       1  UNL1        0.0625
     24 H           4.4642    1.5748    0.5134 H       1  UNL1        0.0655
     25 H           6.5905    0.1185   -0.2434 H       1  UNL1        0.2923
     26 H           4.7902   -3.1351   -1.1390 H       1  UNL1        0.2923
     27 H           2.0375   -2.5727   -0.3008 H       1  UNL1        0.0661
     28 H          -2.1118    2.6383    0.2743 H       1  UNL1        0.0660
     29 H          -4.1782    3.8001   -0.1588 H       1  UNL1        0.2921
     30 H          -5.8128    0.6675   -0.2709 H       1  UNL1        0.0691
@<TRIPOS>BOND
     1     1     2    1
     2     2     3   ar
     3     3     4   ar
     4     4     5    1
     5     5     6    2
     6     6     7    1
     7     7     8   ar
     8     8     9   ar
     9     9    10   ar
    10    10    11    1
    11    10    12   ar
    12    12    13    1
    13    12    14   ar
    14     4    15   ar
    15    15    16   ar
    16    16    17    1
    17    16    18   ar
    18    18     2   ar
    19    14     7   ar
    20     1    19    1
    21     3    20    1
    22     5    21    1
    23     6    22    1
    24     8    23    1
    25     9    24    1
    26    11    25    1
    27    13    26    1
    28    14    27    1
    29    15    28    1
    30    17    29    1
    31    18    30    1
