@<TRIPOS>MOLECULE
*****
 37 39 0 0 0
SMALL
GASTEIGER

@<TRIPOS>ATOM
      1 O           5.4175    1.3732    1.3244 O.2     1  UNL1       -0.2451
      2 C           5.3950    0.3399    0.6217 C.2     1  UNL1        0.3369
      3 O           6.5947   -0.3325    0.4536 O.3     1  UNL1       -0.4771
      4 C           4.1612   -0.1517   -0.0040 C.ar    1  UNL1        0.0607
      5 C           4.1626   -1.2935   -0.7743 C.ar    1  UNL1       -0.0477
      6 C           3.0226   -1.7959   -1.3849 C.ar    1  UNL1       -0.0591
      7 C           1.8193   -1.1021   -1.2032 C.ar    1  UNL1       -0.0353
      8 C           1.7927    0.0437   -0.4362 C.ar    1  UNL1        0.1063
      9 S           0.2927    0.9094   -0.2093 S.O2    1  UNL1        0.0612
     10 O          -0.5367    0.6816   -1.4544 O.2     1  UNL1       -0.1528
     11 O           0.5693    2.3658   -0.0117 O.2     1  UNL1       -0.1528
     12 N          -0.4752    0.2700    1.1916 N.3     1  UNL1       -0.1720
     13 C          -0.7962   -1.1186    1.0648 C.3     1  UNL1        0.0248
     14 C          -1.8835   -1.3578    0.0753 C.3     1  UNL1       -0.0129
     15 C          -2.9088   -0.2920    0.0345 C.ar    1  UNL1       -0.0416
     16 C          -4.0094   -0.4847   -0.7734 C.ar    1  UNL1       -0.0582
     17 C          -4.9704    0.5002   -0.8199 C.ar    1  UNL1       -0.0615
     18 C          -4.8266    1.6444   -0.0750 C.ar    1  UNL1       -0.0614
     19 C          -3.7456    1.8556    0.7310 C.ar    1  UNL1       -0.0570
     20 C          -2.7699    0.8532    0.7768 C.ar    1  UNL1       -0.0285
     21 C          -1.5888    1.0479    1.6372 C.3     1  UNL1        0.0458
     22 C           2.9583    0.5060    0.1534 C.ar    1  UNL1       -0.0214
     23 H           7.4721    0.1078    0.6989 H       1  UNL1        0.2954
     24 H           5.0742   -1.8597   -0.9393 H       1  UNL1        0.0626
     25 H           3.0100   -2.6776   -1.9830 H       1  UNL1        0.0618
     26 H           0.9158   -1.4476   -1.6516 H       1  UNL1        0.0637
     27 H          -1.1541   -1.4715    2.0576 H       1  UNL1        0.0447
     28 H           0.1059   -1.6910    0.7965 H       1  UNL1        0.0447
     29 H          -2.4147   -2.3221    0.3001 H       1  UNL1        0.0326
     30 H          -1.4430   -1.4141   -0.9549 H       1  UNL1        0.0326
     31 H          -4.1244   -1.4013   -1.3700 H       1  UNL1        0.0620
     32 H          -5.8302    0.3138   -1.4715 H       1  UNL1        0.0618
     33 H          -5.6040    2.4021   -0.1350 H       1  UNL1        0.0618
     34 H          -3.5828    2.7315    1.3346 H       1  UNL1        0.0621
     35 H          -1.2734    2.1174    1.6766 H       1  UNL1        0.0493
     36 H          -1.7842    0.7565    2.7074 H       1  UNL1        0.0493
     37 H           2.9578    1.3937    0.7524 H       1  UNL1        0.0645
@<TRIPOS>BOND
     1     1     2    2
     2     2     3    1
     3     2     4    1
     4     4     5   ar
     5     5     6   ar
     6     6     7   ar
     7     7     8   ar
     8     8     9    1
     9     9    10    2
    10     9    11    2
    11     9    12    1
    12    12    13    1
    13    13    14    1
    14    14    15    1
    15    15    16   ar
    16    16    17   ar
    17    17    18   ar
    18    18    19   ar
    19    19    20   ar
    20    20    21    1
    21     8    22   ar
    22    22     4   ar
    23    21    12    1
    24    20    15   ar
    25     3    23    1
    26     5    24    1
    27     6    25    1
    28     7    26    1
    29    13    27    1
    30    13    28    1
    31    14    29    1
    32    14    30    1
    33    16    31    1
    34    17    32    1
    35    18    33    1
    36    19    34    1
    37    21    35    1
    38    21    36    1
    39    22    37    1
