
     RDKit          3D

 37 39  0  0  0  0  0  0  0  0999 V2000
    5.4175    1.3732    1.3244 O   0  0  0  0  0  0  0  0  0  0  0  0
    5.3950    0.3399    0.6217 C   0  0  0  0  0  0  0  0  0  0  0  0
    6.5947   -0.3325    0.4536 O   0  0  0  0  0  0  0  0  0  0  0  0
    4.1612   -0.1517   -0.0040 C   0  0  0  0  0  0  0  0  0  0  0  0
    4.1626   -1.2935   -0.7743 C   0  0  0  0  0  0  0  0  0  0  0  0
    3.0226   -1.7959   -1.3849 C   0  0  0  0  0  0  0  0  0  0  0  0
    1.8193   -1.1021   -1.2032 C   0  0  0  0  0  0  0  0  0  0  0  0
    1.7927    0.0437   -0.4362 C   0  0  0  0  0  0  0  0  0  0  0  0
    0.2927    0.9094   -0.2093 S   0  0  0  0  0  6  0  0  0  0  0  0
   -0.5367    0.6816   -1.4544 O   0  0  0  0  0  0  0  0  0  0  0  0
    0.5693    2.3658   -0.0117 O   0  0  0  0  0  0  0  0  0  0  0  0
   -0.4752    0.2700    1.1916 N   0  0  0  0  0  0  0  0  0  0  0  0
   -0.7962   -1.1186    1.0648 C   0  0  0  0  0  0  0  0  0  0  0  0
   -1.8835   -1.3578    0.0753 C   0  0  0  0  0  0  0  0  0  0  0  0
   -2.9088   -0.2920    0.0345 C   0  0  0  0  0  0  0  0  0  0  0  0
   -4.0094   -0.4847   -0.7734 C   0  0  0  0  0  0  0  0  0  0  0  0
   -4.9704    0.5002   -0.8199 C   0  0  0  0  0  0  0  0  0  0  0  0
   -4.8266    1.6444   -0.0750 C   0  0  0  0  0  0  0  0  0  0  0  0
   -3.7456    1.8556    0.7310 C   0  0  0  0  0  0  0  0  0  0  0  0
   -2.7699    0.8532    0.7768 C   0  0  0  0  0  0  0  0  0  0  0  0
   -1.5888    1.0479    1.6372 C   0  0  0  0  0  0  0  0  0  0  0  0
    2.9583    0.5060    0.1534 C   0  0  0  0  0  0  0  0  0  0  0  0
    7.4721    0.1078    0.6989 H   0  0  0  0  0  0  0  0  0  0  0  0
    5.0742   -1.8597   -0.9393 H   0  0  0  0  0  0  0  0  0  0  0  0
    3.0100   -2.6776   -1.9830 H   0  0  0  0  0  0  0  0  0  0  0  0
    0.9158   -1.4476   -1.6516 H   0  0  0  0  0  0  0  0  0  0  0  0
   -1.1541   -1.4715    2.0576 H   0  0  0  0  0  0  0  0  0  0  0  0
    0.1059   -1.6910    0.7965 H   0  0  0  0  0  0  0  0  0  0  0  0
   -2.4147   -2.3221    0.3001 H   0  0  0  0  0  0  0  0  0  0  0  0
   -1.4430   -1.4141   -0.9549 H   0  0  0  0  0  0  0  0  0  0  0  0
   -4.1244   -1.4013   -1.3700 H   0  0  0  0  0  0  0  0  0  0  0  0
   -5.8302    0.3138   -1.4715 H   0  0  0  0  0  0  0  0  0  0  0  0
   -5.6040    2.4021   -0.1350 H   0  0  0  0  0  0  0  0  0  0  0  0
   -3.5828    2.7315    1.3346 H   0  0  0  0  0  0  0  0  0  0  0  0
   -1.2734    2.1174    1.6766 H   0  0  0  0  0  0  0  0  0  0  0  0
   -1.7842    0.7565    2.7074 H   0  0  0  0  0  0  0  0  0  0  0  0
    2.9578    1.3937    0.7524 H   0  0  0  0  0  0  0  0  0  0  0  0
  1  2  2  0
  2  3  1  0
  2  4  1  0
  4  5  2  0
  5  6  1  0
  6  7  2  0
  7  8  1  0
  8  9  1  0
  9 10  2  0
  9 11  2  0
  9 12  1  0
 12 13  1  0
 13 14  1  0
 14 15  1  0
 15 16  2  0
 16 17  1  0
 17 18  2  0
 18 19  1  0
 19 20  2  0
 20 21  1  0
  8 22  2  0
 22  4  1  0
 21 12  1  0
 20 15  1  0
  3 23  1  0
  5 24  1  0
  6 25  1  0
  7 26  1  0
 13 27  1  0
 13 28  1  0
 14 29  1  0
 14 30  1  0
 16 31  1  0
 17 32  1  0
 18 33  1  0
 19 34  1  0
 21 35  1  0
 21 36  1  0
 22 37  1  0
M  END
$$$$
