@<TRIPOS>MOLECULE
*****
 65 68 0 0 0
SMALL
GASTEIGER

@<TRIPOS>ATOM
      1 C          -7.9802   -0.8294    3.9186 C.3     1  UNL1        0.0788
      2 O          -6.8782    0.0315    3.9844 O.3     1  UNL1       -0.4951
      3 C          -6.0234    0.2518    2.9000 C.ar    1  UNL1        0.1201
      4 C          -6.2198   -0.3763    1.6855 C.ar    1  UNL1       -0.0194
      5 C          -5.3686   -0.1494    0.6243 C.ar    1  UNL1       -0.0506
      6 C          -4.2885    0.7017    0.7059 C.ar    1  UNL1       -0.0177
      7 C          -3.3790    0.9532   -0.4052 C.ar    1  UNL1       -0.0178
      8 C          -3.1133   -0.0467   -1.3342 C.ar    1  UNL1       -0.0522
      9 C          -2.2540    0.1768   -2.3940 C.ar    1  UNL1       -0.0348
     10 C          -1.6297    1.3958   -2.5698 C.ar    1  UNL1        0.1053
     11 S          -0.5478    1.6998   -3.8926 S.O2    1  UNL1        0.0591
     12 O          -1.0095    1.0381   -5.1617 O.2     1  UNL1       -0.1530
     13 O          -0.6007    3.1958   -4.1783 O.2     1  UNL1       -0.1530
     14 N           1.0695    1.3357   -3.5120 N.3     1  UNL1       -0.1759
     15 C           1.3170   -0.0485   -3.1756 C.3     1  UNL1        0.1281
     16 C           2.1680   -0.6947   -4.2258 C.2     1  UNL1        0.3238
     17 O           2.5676   -0.0412   -5.2245 O.2     1  UNL1       -0.2492
     18 O           2.5497   -2.0207   -4.1501 O.3     1  UNL1       -0.4795
     19 C           1.9245   -0.1592   -1.8213 C.3     1  UNL1       -0.0136
     20 C           1.0421    0.4268   -0.7683 C.3     1  UNL1       -0.0466
     21 C           1.9196    0.5218    0.4914 C.3     1  UNL1       -0.0343
     22 C           2.1820   -0.8633    0.9687 C.3     1  UNL1        0.0207
     23 N           3.1026   -0.9118    2.0727 N.pl3   1  UNL1       -0.3410
     24 C           4.4882   -0.6059    1.9633 C.ar    1  UNL1        0.0273
     25 C           5.2412   -0.6382    3.1532 C.ar    1  UNL1       -0.0408
     26 C           6.5777   -0.3719    3.1092 C.ar    1  UNL1       -0.0600
     27 C           7.2020   -0.0725    1.9230 C.ar    1  UNL1       -0.0616
     28 C           6.4651   -0.0439    0.7759 C.ar    1  UNL1       -0.0600
     29 C           5.1032   -0.3097    0.7821 C.ar    1  UNL1       -0.0408
     30 C           2.4293   -1.9108   -0.0577 C.3     1  UNL1       -0.0343
     31 C           2.3901   -1.5459   -1.4818 C.3     1  UNL1       -0.0466
     32 C          -1.8848    2.3984   -1.6539 C.ar    1  UNL1       -0.0348
     33 C          -2.7418    2.1589   -0.6061 C.ar    1  UNL1       -0.0522
     34 C          -4.0972    1.3308    1.9328 C.ar    1  UNL1       -0.0506
     35 C          -4.9481    1.1044    2.9948 C.ar    1  UNL1       -0.0194
     36 H          -8.7085   -0.4647    3.1448 H       1  UNL1        0.0660
     37 H          -7.5965   -1.8048    3.5108 H       1  UNL1        0.0660
     38 H          -8.4421   -0.9367    4.8985 H       1  UNL1        0.0660
     39 H          -7.0669   -1.0456    1.6180 H       1  UNL1        0.0654
     40 H          -5.5238   -0.6434   -0.3310 H       1  UNL1        0.0625
     41 H          -3.6002   -1.0073   -1.2025 H       1  UNL1        0.0624
     42 H          -2.0429   -0.5936   -3.1199 H       1  UNL1        0.0637
     43 H           1.7518    1.6351   -4.2182 H       1  UNL1        0.1489
     44 H           0.3523   -0.5812   -3.1984 H       1  UNL1        0.0595
     45 H           2.6055   -2.6231   -4.9823 H       1  UNL1        0.2951
     46 H           2.8595    0.4767   -1.8385 H       1  UNL1        0.0322
     47 H           0.1569   -0.2005   -0.5622 H       1  UNL1        0.0269
     48 H           0.7863    1.4774   -1.0279 H       1  UNL1        0.0269
     49 H           1.3351    1.0385    1.3024 H       1  UNL1        0.0283
     50 H           2.8170    1.0661    0.2250 H       1  UNL1        0.0283
     51 H           1.1655   -1.1793    1.4368 H       1  UNL1        0.0497
     52 H           2.7087   -1.1983    3.0312 H       1  UNL1        0.1463
     53 H           4.7583   -0.8760    4.1118 H       1  UNL1        0.0636
     54 H           7.1559   -0.3989    4.0363 H       1  UNL1        0.0618
     55 H           8.2779    0.1390    1.9107 H       1  UNL1        0.0618
     56 H           6.9714    0.1966   -0.1700 H       1  UNL1        0.0618
     57 H           4.5643   -0.2878   -0.1511 H       1  UNL1        0.0636
     58 H           3.4609   -2.3337    0.1766 H       1  UNL1        0.0283
     59 H           1.7788   -2.8186    0.0970 H       1  UNL1        0.0283
     60 H           3.3829   -1.7669   -1.9809 H       1  UNL1        0.0269
     61 H           1.6936   -2.2610   -2.0209 H       1  UNL1        0.0269
     62 H          -1.3856    3.3622   -1.8006 H       1  UNL1        0.0637
     63 H          -2.9450    2.9419    0.1143 H       1  UNL1        0.0624
     64 H          -3.2533    2.0047    2.0189 H       1  UNL1        0.0625
     65 H          -4.7928    1.6023    3.9593 H       1  UNL1        0.0654
@<TRIPOS>BOND
     1     1     2    1
     2     2     3    1
     3     3     4   ar
     4     4     5   ar
     5     5     6   ar
     6     6     7    1
     7     7     8   ar
     8     8     9   ar
     9     9    10   ar
    10    10    11    1
    11    11    12    2
    12    11    13    2
    13    11    14    1
    14    14    15    1
    15    15    16    1
    16    16    17    2
    17    16    18    1
    18    15    19    1
    19    19    20    1
    20    20    21    1
    21    21    22    1
    22    22    23    1
    23    23    24    1
    24    24    25   ar
    25    25    26   ar
    26    26    27   ar
    27    27    28   ar
    28    28    29   ar
    29    22    30    1
    30    30    31    1
    31    10    32   ar
    32    32    33   ar
    33     6    34   ar
    34    34    35   ar
    35    35     3   ar
    36    33     7   ar
    37    31    19    1
    38    29    24   ar
    39     1    36    1
    40     1    37    1
    41     1    38    1
    42     4    39    1
    43     5    40    1
    44     8    41    1
    45     9    42    1
    46    14    43    1
    47    15    44    1
    48    18    45    1
    49    19    46    1
    50    20    47    1
    51    20    48    1
    52    21    49    1
    53    21    50    1
    54    22    51    1
    55    23    52    1
    56    25    53    1
    57    26    54    1
    58    27    55    1
    59    28    56    1
    60    29    57    1
    61    30    58    1
    62    30    59    1
    63    31    60    1
    64    31    61    1
    65    32    62    1
    66    33    63    1
    67    34    64    1
    68    35    65    1
