
     RDKit          3D

 65 68  0  0  0  0  0  0  0  0999 V2000
   -7.9802   -0.8294    3.9186 C   0  0  0  0  0  0  0  0  0  0  0  0
   -6.8782    0.0315    3.9844 O   0  0  0  0  0  0  0  0  0  0  0  0
   -6.0234    0.2518    2.9000 C   0  0  0  0  0  0  0  0  0  0  0  0
   -6.2198   -0.3763    1.6855 C   0  0  0  0  0  0  0  0  0  0  0  0
   -5.3686   -0.1494    0.6243 C   0  0  0  0  0  0  0  0  0  0  0  0
   -4.2885    0.7017    0.7059 C   0  0  0  0  0  0  0  0  0  0  0  0
   -3.3790    0.9532   -0.4052 C   0  0  0  0  0  0  0  0  0  0  0  0
   -3.1133   -0.0467   -1.3342 C   0  0  0  0  0  0  0  0  0  0  0  0
   -2.2540    0.1768   -2.3940 C   0  0  0  0  0  0  0  0  0  0  0  0
   -1.6297    1.3958   -2.5698 C   0  0  0  0  0  0  0  0  0  0  0  0
   -0.5478    1.6998   -3.8926 S   0  0  0  0  0  6  0  0  0  0  0  0
   -1.0095    1.0381   -5.1617 O   0  0  0  0  0  0  0  0  0  0  0  0
   -0.6007    3.1958   -4.1783 O   0  0  0  0  0  0  0  0  0  0  0  0
    1.0695    1.3357   -3.5120 N   0  0  0  0  0  0  0  0  0  0  0  0
    1.3170   -0.0485   -3.1756 C   0  0  1  0  0  0  0  0  0  0  0  0
    2.1680   -0.6947   -4.2258 C   0  0  0  0  0  0  0  0  0  0  0  0
    2.5676   -0.0412   -5.2245 O   0  0  0  0  0  0  0  0  0  0  0  0
    2.5497   -2.0207   -4.1501 O   0  0  0  0  0  0  0  0  0  0  0  0
    1.9245   -0.1592   -1.8213 C   0  0  0  0  0  0  0  0  0  0  0  0
    1.0421    0.4268   -0.7683 C   0  0  0  0  0  0  0  0  0  0  0  0
    1.9196    0.5218    0.4914 C   0  0  0  0  0  0  0  0  0  0  0  0
    2.1820   -0.8633    0.9687 C   0  0  0  0  0  0  0  0  0  0  0  0
    3.1026   -0.9118    2.0727 N   0  0  0  0  0  0  0  0  0  0  0  0
    4.4882   -0.6059    1.9633 C   0  0  0  0  0  0  0  0  0  0  0  0
    5.2412   -0.6382    3.1532 C   0  0  0  0  0  0  0  0  0  0  0  0
    6.5777   -0.3719    3.1092 C   0  0  0  0  0  0  0  0  0  0  0  0
    7.2020   -0.0725    1.9230 C   0  0  0  0  0  0  0  0  0  0  0  0
    6.4651   -0.0439    0.7759 C   0  0  0  0  0  0  0  0  0  0  0  0
    5.1032   -0.3097    0.7821 C   0  0  0  0  0  0  0  0  0  0  0  0
    2.4293   -1.9108   -0.0577 C   0  0  0  0  0  0  0  0  0  0  0  0
    2.3901   -1.5459   -1.4818 C   0  0  0  0  0  0  0  0  0  0  0  0
   -1.8848    2.3984   -1.6539 C   0  0  0  0  0  0  0  0  0  0  0  0
   -2.7418    2.1589   -0.6061 C   0  0  0  0  0  0  0  0  0  0  0  0
   -4.0972    1.3308    1.9328 C   0  0  0  0  0  0  0  0  0  0  0  0
   -4.9481    1.1044    2.9948 C   0  0  0  0  0  0  0  0  0  0  0  0
   -8.7085   -0.4647    3.1448 H   0  0  0  0  0  0  0  0  0  0  0  0
   -7.5965   -1.8048    3.5108 H   0  0  0  0  0  0  0  0  0  0  0  0
   -8.4421   -0.9367    4.8985 H   0  0  0  0  0  0  0  0  0  0  0  0
   -7.0669   -1.0456    1.6180 H   0  0  0  0  0  0  0  0  0  0  0  0
   -5.5238   -0.6434   -0.3310 H   0  0  0  0  0  0  0  0  0  0  0  0
   -3.6002   -1.0073   -1.2025 H   0  0  0  0  0  0  0  0  0  0  0  0
   -2.0429   -0.5936   -3.1199 H   0  0  0  0  0  0  0  0  0  0  0  0
    1.7518    1.6351   -4.2182 H   0  0  0  0  0  0  0  0  0  0  0  0
    0.3523   -0.5812   -3.1984 H   0  0  0  0  0  0  0  0  0  0  0  0
    2.6055   -2.6231   -4.9823 H   0  0  0  0  0  0  0  0  0  0  0  0
    2.8595    0.4767   -1.8385 H   0  0  0  0  0  0  0  0  0  0  0  0
    0.1569   -0.2005   -0.5622 H   0  0  0  0  0  0  0  0  0  0  0  0
    0.7863    1.4774   -1.0279 H   0  0  0  0  0  0  0  0  0  0  0  0
    1.3351    1.0385    1.3024 H   0  0  0  0  0  0  0  0  0  0  0  0
    2.8170    1.0661    0.2250 H   0  0  0  0  0  0  0  0  0  0  0  0
    1.1655   -1.1793    1.4368 H   0  0  0  0  0  0  0  0  0  0  0  0
    2.7087   -1.1983    3.0312 H   0  0  0  0  0  0  0  0  0  0  0  0
    4.7583   -0.8760    4.1118 H   0  0  0  0  0  0  0  0  0  0  0  0
    7.1559   -0.3989    4.0363 H   0  0  0  0  0  0  0  0  0  0  0  0
    8.2779    0.1390    1.9107 H   0  0  0  0  0  0  0  0  0  0  0  0
    6.9714    0.1966   -0.1700 H   0  0  0  0  0  0  0  0  0  0  0  0
    4.5643   -0.2878   -0.1511 H   0  0  0  0  0  0  0  0  0  0  0  0
    3.4609   -2.3337    0.1766 H   0  0  0  0  0  0  0  0  0  0  0  0
    1.7788   -2.8186    0.0970 H   0  0  0  0  0  0  0  0  0  0  0  0
    3.3829   -1.7669   -1.9809 H   0  0  0  0  0  0  0  0  0  0  0  0
    1.6936   -2.2610   -2.0209 H   0  0  0  0  0  0  0  0  0  0  0  0
   -1.3856    3.3622   -1.8006 H   0  0  0  0  0  0  0  0  0  0  0  0
   -2.9450    2.9419    0.1143 H   0  0  0  0  0  0  0  0  0  0  0  0
   -3.2533    2.0047    2.0189 H   0  0  0  0  0  0  0  0  0  0  0  0
   -4.7928    1.6023    3.9593 H   0  0  0  0  0  0  0  0  0  0  0  0
  1  2  1  0
  2  3  1  0
  3  4  2  0
  4  5  1  0
  5  6  2  0
  6  7  1  0
  7  8  2  0
  8  9  1  0
  9 10  2  0
 10 11  1  0
 11 12  2  0
 11 13  2  0
 11 14  1  0
 14 15  1  0
 15 16  1  0
 16 17  2  0
 16 18  1  0
 15 19  1  0
 19 20  1  0
 20 21  1  0
 21 22  1  0
 22 23  1  0
 23 24  1  0
 24 25  2  0
 25 26  1  0
 26 27  2  0
 27 28  1  0
 28 29  2  0
 22 30  1  0
 30 31  1  0
 10 32  1  0
 32 33  2  0
  6 34  1  0
 34 35  2  0
 35  3  1  0
 33  7  1  0
 31 19  1  0
 29 24  1  0
  1 36  1  0
  1 37  1  0
  1 38  1  0
  4 39  1  0
  5 40  1  0
  8 41  1  0
  9 42  1  0
 14 43  1  0
 15 44  1  1
 18 45  1  0
 19 46  1  0
 20 47  1  0
 20 48  1  0
 21 49  1  0
 21 50  1  0
 22 51  1  0
 23 52  1  0
 25 53  1  0
 26 54  1  0
 27 55  1  0
 28 56  1  0
 29 57  1  0
 30 58  1  0
 30 59  1  0
 31 60  1  0
 31 61  1  0
 32 62  1  0
 33 63  1  0
 34 64  1  0
 35 65  1  0
M  END
$$$$
