
     RDKit          3D

 42 45  0  0  0  0  0  0  0  0999 V2000
   -2.2038    3.1443    1.4829 N   0  0  0  0  0  0  0  0  0  0  0  0
   -2.8064    2.0117    0.8838 C   0  0  0  0  0  0  0  0  0  0  0  0
   -2.2191    0.8717    1.0150 N   0  0  0  0  0  0  0  0  0  0  0  0
   -2.7507   -0.3512    0.4413 C   0  0  1  0  0  0  0  0  0  0  0  0
   -1.5500   -1.1786    0.0457 C   0  0  0  0  0  0  0  0  0  0  0  0
   -0.2580   -0.7181    0.2686 C   0  0  0  0  0  0  0  0  0  0  0  0
    0.8778   -1.4211   -0.0618 C   0  0  0  0  0  0  0  0  0  0  0  0
    2.1666   -0.8848    0.1971 N   0  0  0  0  0  0  0  0  0  0  0  0
    2.8806   -0.0831   -0.7250 C   0  0  0  0  0  0  0  0  0  0  0  0
    2.3524    0.1691   -1.8277 O   0  0  0  0  0  0  0  0  0  0  0  0
    4.2029    0.4485   -0.4199 C   0  0  0  0  0  0  0  0  0  0  0  0
    4.8851    1.2280   -1.3295 C   0  0  0  0  0  0  0  0  0  0  0  0
    6.1498    1.7372   -1.0395 C   0  0  0  0  0  0  0  0  0  0  0  0
    6.7271    1.4563    0.1771 C   0  0  0  0  0  0  0  0  0  0  0  0
    8.3238    2.0699    0.6052 Cl  0  0  0  0  0  0  0  0  0  0  0  0
    6.0211    0.6728    1.0694 C   0  0  0  0  0  0  0  0  0  0  0  0
    4.7840    0.1853    0.7632 N   0  0  0  0  0  0  0  0  0  0  0  0
    0.6831   -2.6678   -0.6549 C   0  0  0  0  0  0  0  0  0  0  0  0
   -0.5616   -3.1590   -0.8924 C   0  0  0  0  0  0  0  0  0  0  0  0
   -1.6651   -2.4113   -0.5407 C   0  0  0  0  0  0  0  0  0  0  0  0
   -3.2472   -3.0732   -0.8681 Cl  0  0  0  0  0  0  0  0  0  0  0  0
   -3.4159   -1.0935    1.5636 C   0  0  0  0  0  0  0  0  0  0  0  0
   -2.4621   -1.3761    2.5462 F   0  0  0  0  0  0  0  0  0  0  0  0
   -4.3020   -0.2041    2.1863 F   0  0  0  0  0  0  0  0  0  0  0  0
   -3.5661   -0.1574   -0.7774 C   0  0  1  0  0  0  0  0  0  0  0  0
   -5.0475   -0.1028   -0.6710 C   0  0  0  0  0  0  0  0  0  0  0  0
   -4.2426    1.1490   -0.9017 C   0  0  1  0  0  0  0  0  0  0  0  0
   -3.9872    2.0393    0.1632 O   0  0  0  0  0  0  0  0  0  0  0  0
   -2.4877    3.5254    2.4025 H   0  0  0  0  0  0  0  0  0  0  0  0
   -1.4319    3.6231    0.9732 H   0  0  0  0  0  0  0  0  0  0  0  0
   -0.1536    0.2595    0.7336 H   0  0  0  0  0  0  0  0  0  0  0  0
    2.6618   -1.0689    1.1204 H   0  0  0  0  0  0  0  0  0  0  0  0
    4.4035    1.4312   -2.2788 H   0  0  0  0  0  0  0  0  0  0  0  0
    6.6468    2.3379   -1.7715 H   0  0  0  0  0  0  0  0  0  0  0  0
    6.4585    0.4408    2.0316 H   0  0  0  0  0  0  0  0  0  0  0  0
    1.5724   -3.2257   -0.9171 H   0  0  0  0  0  0  0  0  0  0  0  0
   -0.6834   -4.1222   -1.3505 H   0  0  0  0  0  0  0  0  0  0  0  0
   -4.0110   -1.9542    1.2660 H   0  0  0  0  0  0  0  0  0  0  0  0
   -3.2038   -0.5819   -1.7598 H   0  0  0  0  0  0  0  0  0  0  0  0
   -5.6717   -0.4297   -1.5517 H   0  0  0  0  0  0  0  0  0  0  0  0
   -5.5634   -0.1750    0.2971 H   0  0  0  0  0  0  0  0  0  0  0  0
   -4.3056    1.6388   -1.8940 H   0  0  0  0  0  0  0  0  0  0  0  0
  1  2  1  0
  2  3  2  0
  3  4  1  0
  4  5  1  0
  5  6  2  0
  6  7  1  0
  7  8  1  0
  8  9  1  0
  9 10  2  0
  9 11  1  0
 11 12  2  0
 12 13  1  0
 13 14  2  0
 14 15  1  0
 14 16  1  0
 16 17  2  0
  7 18  2  0
 18 19  1  0
 19 20  2  0
 20 21  1  0
  4 22  1  1
 22 23  1  0
 22 24  1  0
  4 25  1  0
 25 26  1  0
 26 27  1  0
 27 28  1  0
 28  2  1  0
 20  5  1  0
 27 25  1  0
 17 11  1  0
  1 29  1  0
  1 30  1  0
  6 31  1  0
  8 32  1  0
 12 33  1  0
 13 34  1  0
 16 35  1  0
 18 36  1  0
 19 37  1  0
 22 38  1  0
 25 39  1  6
 26 40  1  0
 26 41  1  0
 27 42  1  6
M  END
$$$$
