@<TRIPOS>MOLECULE
*****
 42 45 0 0 0
SMALL
GASTEIGER

@<TRIPOS>ATOM
      1 N          -2.2038    3.1443    1.4829 N.pl3   1  UNL1       -0.3134
      2 C          -2.8064    2.0117    0.8838 C.2     1  UNL1        0.2764
      3 N          -2.2191    0.8717    1.0150 N.2     1  UNL1       -0.2194
      4 C          -2.7507   -0.3512    0.4413 C.3     1  UNL1        0.1590
      5 C          -1.5500   -1.1786    0.0457 C.ar    1  UNL1        0.0059
      6 C          -0.2580   -0.7181    0.2686 C.ar    1  UNL1       -0.0334
      7 C           0.8778   -1.4211   -0.0618 C.ar    1  UNL1        0.0341
      8 N           2.1666   -0.8848    0.1971 N.am    1  UNL1       -0.2802
      9 C           2.8806   -0.0831   -0.7250 C.2     1  UNL1        0.2666
     10 O           2.3524    0.1691   -1.8277 O.2     1  UNL1       -0.2682
     11 C           4.2029    0.4485   -0.4199 C.ar    1  UNL1        0.1257
     12 C           4.8851    1.2280   -1.3295 C.ar    1  UNL1       -0.0298
     13 C           6.1498    1.7372   -1.0395 C.ar    1  UNL1       -0.0397
     14 C           6.7271    1.4563    0.1771 C.ar    1  UNL1        0.0591
     15 CL          8.3238    2.0699    0.6052 Cl      1  UNL1       -0.0820
     16 C           6.0211    0.6728    1.0694 C.ar    1  UNL1        0.0467
     17 N           4.7840    0.1853    0.7632 N.ar    1  UNL1       -0.2489
     18 C           0.6831   -2.6678   -0.6549 C.ar    1  UNL1       -0.0391
     19 C          -0.5616   -3.1590   -0.8924 C.ar    1  UNL1       -0.0413
     20 C          -1.6651   -2.4113   -0.5407 C.ar    1  UNL1        0.0467
     21 CL         -3.2472   -3.0732   -0.8681 Cl      1  UNL1       -0.0832
     22 C          -3.4159   -1.0935    1.5636 C.3     1  UNL1        0.2685
     23 F          -2.4621   -1.3761    2.5462 F       1  UNL1       -0.2062
     24 F          -4.3020   -0.2041    2.1863 F       1  UNL1       -0.2062
     25 C          -3.5661   -0.1574   -0.7774 C.3     1  UNL1        0.0344
     26 C          -5.0475   -0.1028   -0.6710 C.3     1  UNL1       -0.0064
     27 C          -4.2426    1.1490   -0.9017 C.3     1  UNL1        0.1091
     28 O          -3.9872    2.0393    0.1632 O.2     1  UNL1       -0.4622
     29 H          -2.4877    3.5254    2.4025 H       1  UNL1        0.1466
     30 H          -1.4319    3.6231    0.9732 H       1  UNL1        0.1466
     31 H          -0.1536    0.2595    0.7336 H       1  UNL1        0.0640
     32 H           2.6618   -1.0689    1.1204 H       1  UNL1        0.1552
     33 H           4.4035    1.4312   -2.2788 H       1  UNL1        0.0641
     34 H           6.6468    2.3379   -1.7715 H       1  UNL1        0.0633
     35 H           6.4585    0.4408    2.0316 H       1  UNL1        0.0844
     36 H           1.5724   -3.2257   -0.9171 H       1  UNL1        0.0636
     37 H          -0.6834   -4.1222   -1.3505 H       1  UNL1        0.0633
     38 H          -4.0110   -1.9542    1.2660 H       1  UNL1        0.1047
     39 H          -3.2038   -0.5819   -1.7598 H       1  UNL1        0.0366
     40 H          -5.6717   -0.4297   -1.5517 H       1  UNL1        0.0306
     41 H          -5.5634   -0.1750    0.2971 H       1  UNL1        0.0306
     42 H          -4.3056    1.6388   -1.8940 H       1  UNL1        0.0737
@<TRIPOS>BOND
     1     1     2    1
     2     2     3    2
     3     3     4    1
     4     4     5    1
     5     5     6   ar
     6     6     7   ar
     7     7     8    1
     8     8     9   am
     9     9    10    2
    10     9    11    1
    11    11    12   ar
    12    12    13   ar
    13    13    14   ar
    14    14    15    1
    15    14    16   ar
    16    16    17   ar
    17     7    18   ar
    18    18    19   ar
    19    19    20   ar
    20    20    21    1
    21     4    22    1
    22    22    23    1
    23    22    24    1
    24     4    25    1
    25    25    26    1
    26    26    27    1
    27    27    28    1
    28    28     2    1
    29    20     5   ar
    30    27    25    1
    31    17    11   ar
    32     1    29    1
    33     1    30    1
    34     6    31    1
    35     8    32    1
    36    12    33    1
    37    13    34    1
    38    16    35    1
    39    18    36    1
    40    19    37    1
    41    22    38    1
    42    25    39    1
    43    26    40    1
    44    26    41    1
    45    27    42    1
