@<TRIPOS>MOLECULE
*****
 63 67 0 0 0
SMALL
GASTEIGER

@<TRIPOS>ATOM
      1 C           6.8660    2.1976   -2.2049 C.3     1  UNL1        0.0124
      2 C           5.7507    3.0914   -1.8438 C.2     1  UNL1        0.2126
      3 O           5.4978    4.0764   -2.5690 O.2     1  UNL1       -0.2759
      4 N           4.9818    2.8314   -0.6913 N.am    1  UNL1       -0.2987
      5 C           3.8696    3.6844   -0.2911 C.3     1  UNL1        0.0305
      6 C           2.6244    2.8469    0.0166 C.3     1  UNL1        0.0307
      7 N           2.9886    1.6298    0.6946 N.pl3   1  UNL1       -0.2966
      8 C           2.0692    0.5773    0.8032 C.ar    1  UNL1        0.2203
      9 N           0.8253    0.6605    0.3100 N.ar    1  UNL1       -0.1992
     10 C          -0.0888   -0.3126    0.3852 C.ar    1  UNL1        0.1295
     11 N          -1.3973   -0.1650   -0.1590 N.pl3   1  UNL1       -0.3245
     12 C          -1.7244    1.0796   -0.8060 C.3     1  UNL1        0.0371
     13 C          -3.0950    1.1241   -1.3288 C.ar    1  UNL1       -0.0117
     14 C          -3.3633    0.7049   -2.6169 C.ar    1  UNL1        0.0329
     15 N          -4.5954    0.7189   -3.1589 N.ar    1  UNL1       -0.2547
     16 C          -5.6462    1.1532   -2.4507 C.ar    1  UNL1        0.0710
     17 C          -6.9242    1.1735   -2.9974 C.ar    1  UNL1       -0.0357
     18 C          -8.0202    1.6165   -2.2869 C.ar    1  UNL1       -0.0597
     19 C          -7.7907    2.0468   -0.9865 C.ar    1  UNL1       -0.0611
     20 C          -6.5256    2.0307   -0.4346 C.ar    1  UNL1       -0.0526
     21 C          -5.4397    1.5828   -1.1633 C.ar    1  UNL1        0.0007
     22 C          -4.1818    1.5742   -0.5943 C.ar    1  UNL1       -0.0464
     23 C           0.2932   -1.4977    1.0274 C.ar    1  UNL1        0.0401
     24 C           1.5525   -1.6195    1.5426 C.ar    1  UNL1        0.1371
     25 N           2.3987   -0.5724    1.4111 N.ar    1  UNL1       -0.2092
     26 C           1.6652   -2.9428    2.1440 C.2     1  UNL1        0.2660
     27 O           2.7132   -3.3789    2.7145 O.2     1  UNL1       -0.2683
     28 N           0.4326   -3.6253    1.9788 N.am    1  UNL1       -0.2892
     29 C           0.1727   -4.9754    2.4530 C.3     1  UNL1        0.0211
     30 C          -0.9289   -4.9766    3.5215 C.3     1  UNL1       -0.0467
     31 C          -0.2136   -5.9075    1.3227 C.3     1  UNL1       -0.0467
     32 C          -0.4461   -2.7310    1.2769 C.3     1  UNL1        0.0458
     33 C           4.3100    1.5168    1.2564 C.3     1  UNL1        0.0307
     34 C           5.2978    1.6840    0.1275 C.3     1  UNL1        0.0305
     35 H           7.5211    2.6658   -2.9932 H       1  UNL1        0.0323
     36 H           7.4512    2.0260   -1.2642 H       1  UNL1        0.0323
     37 H           6.5116    1.1851   -2.5316 H       1  UNL1        0.0323
     38 H           4.1830    4.2950    0.5628 H       1  UNL1        0.0480
     39 H           3.5605    4.3569   -1.1432 H       1  UNL1        0.0480
     40 H           2.1164    2.6351   -0.9352 H       1  UNL1        0.0480
     41 H           1.9713    3.4998    0.6294 H       1  UNL1        0.0480
     42 H          -2.0573   -0.9668   -0.0628 H       1  UNL1        0.1478
     43 H          -1.5747    1.9098   -0.0744 H       1  UNL1        0.0512
     44 H          -1.0255    1.1960   -1.6667 H       1  UNL1        0.0512
     45 H          -2.5286    0.3499   -3.2063 H       1  UNL1        0.0833
     46 H          -7.0684    0.8281   -4.0219 H       1  UNL1        0.0639
     47 H          -9.0173    1.6303   -2.7187 H       1  UNL1        0.0618
     48 H          -8.6574    2.3924   -0.4378 H       1  UNL1        0.0618
     49 H          -6.4010    2.3744    0.5754 H       1  UNL1        0.0624
     50 H          -3.9932    1.9056    0.4130 H       1  UNL1        0.0628
     51 H           1.0658   -5.3959    2.9563 H       1  UNL1        0.0495
     52 H          -1.7355   -4.2715    3.2662 H       1  UNL1        0.0247
     53 H          -1.2954   -6.0266    3.5676 H       1  UNL1        0.0247
     54 H          -0.4359   -4.7164    4.4914 H       1  UNL1        0.0247
     55 H          -0.6284   -5.3279    0.4485 H       1  UNL1        0.0247
     56 H          -0.9996   -6.6376    1.6516 H       1  UNL1        0.0247
     57 H           0.6426   -6.4817    0.9251 H       1  UNL1        0.0247
     58 H          -1.3237   -2.5623    1.9702 H       1  UNL1        0.0516
     59 H          -0.8507   -3.2023    0.3557 H       1  UNL1        0.0516
     60 H           4.4906    0.5252    1.7291 H       1  UNL1        0.0480
     61 H           4.5224    2.3200    1.9941 H       1  UNL1        0.0480
     62 H           6.3088    1.8505    0.5512 H       1  UNL1        0.0480
     63 H           5.3194    0.7460   -0.4969 H       1  UNL1        0.0480
@<TRIPOS>BOND
     1     1     2    1
     2     2     3    2
     3     2     4   am
     4     4     5    1
     5     5     6    1
     6     6     7    1
     7     7     8    1
     8     8     9   ar
     9     9    10   ar
    10    10    11    1
    11    11    12    1
    12    12    13    1
    13    13    14   ar
    14    14    15   ar
    15    15    16   ar
    16    16    17   ar
    17    17    18   ar
    18    18    19   ar
    19    19    20   ar
    20    20    21   ar
    21    21    22   ar
    22    10    23   ar
    23    23    24   ar
    24    24    25   ar
    25    24    26    1
    26    26    27    2
    27    26    28   am
    28    28    29    1
    29    29    30    1
    30    29    31    1
    31    28    32    1
    32     7    33    1
    33    33    34    1
    34    34     4    1
    35    25     8   ar
    36    22    13   ar
    37    32    23    1
    38    21    16   ar
    39     1    35    1
    40     1    36    1
    41     1    37    1
    42     5    38    1
    43     5    39    1
    44     6    40    1
    45     6    41    1
    46    11    42    1
    47    12    43    1
    48    12    44    1
    49    14    45    1
    50    17    46    1
    51    18    47    1
    52    19    48    1
    53    20    49    1
    54    22    50    1
    55    29    51    1
    56    30    52    1
    57    30    53    1
    58    30    54    1
    59    31    55    1
    60    31    56    1
    61    31    57    1
    62    32    58    1
    63    32    59    1
    64    33    60    1
    65    33    61    1
    66    34    62    1
    67    34    63    1
