@<TRIPOS>MOLECULE
*****
 26 26 0 0 0
SMALL
GASTEIGER

@<TRIPOS>ATOM
      1 N          -3.2980   -0.8614    0.5793 N.3     1  UNL1       -0.3161
      2 CA         -2.0044   -0.2059    0.5217 C.3     1  UNL1        0.1335
      3 C          -0.9174   -1.2007    0.2282 C.3     1  UNL1        0.1057
      4 O          -0.9326   -2.1401    1.2602 O.3     1  UNL1       -0.3851
      5 C           0.3933   -0.5917   -0.0105 C.ar    1  UNL1       -0.0135
      6 C           1.1443   -0.1639    1.0708 C.ar    1  UNL1       -0.0108
      7 C           2.3810    0.4046    0.7518 C.ar    1  UNL1        0.1586
      8 O           3.1958    0.8601    1.7917 O.3     1  UNL1       -0.5033
      9 C           2.8541    0.5480   -0.5125 C.ar    1  UNL1        0.1582
     10 O           4.0937    1.1220   -0.7666 O.3     1  UNL1       -0.5033
     11 C           2.0977    0.1195   -1.5627 C.ar    1  UNL1       -0.0162
     12 C           0.8638   -0.4512   -1.3004 C.ar    1  UNL1       -0.0524
     13 C          -2.1085    0.9124   -0.4144 C.2     1  UNL1        0.3246
     14 O          -3.2354    1.3164   -1.1472 O.3     1  UNL1       -0.4795
     15 OXT        -1.1665    1.6881   -0.6963 O.2     1  UNL1       -0.2491
     16 H1         -3.5695   -1.2169   -0.3752 H       1  UNL1        0.1190
     17 H2         -3.2470   -1.7440    1.1721 H       1  UNL1        0.1190
     18 HA         -1.8628    0.2473    1.5462 H       1  UNL1        0.0604
     19 H          -1.2686   -1.7717   -0.6720 H       1  UNL1        0.0665
     20 H          -0.9049   -1.6240    2.1193 H       1  UNL1        0.2103
     21 H           0.8147   -0.2542    2.0989 H       1  UNL1        0.0659
     22 H           3.1878    1.8646    1.9278 H       1  UNL1        0.2923
     23 H           4.3561    1.4543   -1.6836 H       1  UNL1        0.2923
     24 H           2.4233    0.2077   -2.5961 H       1  UNL1        0.0655
     25 H           0.2691   -0.7884   -2.1318 H       1  UNL1        0.0622
     26 H          -3.5591    2.2694   -1.1985 H       1  UNL1        0.2951
@<TRIPOS>BOND
     1     1     2    1
     2     2     3    1
     3     3     4    1
     4     3     5    1
     5     5     6   ar
     6     6     7   ar
     7     7     8    1
     8     7     9   ar
     9     9    10    1
    10     9    11   ar
    11    11    12   ar
    12     2    13    1
    13    13    14    1
    14    13    15    2
    15    12     5   ar
    16     1    16    1
    17     1    17    1
    18     2    18    1
    19     3    19    1
    20     4    20    1
    21     6    21    1
    22     8    22    1
    23    10    23    1
    24    11    24    1
    25    12    25    1
    26    14    26    1
