@<TRIPOS>MOLECULE
*****
 64 68 0 0 0
SMALL
GASTEIGER

@<TRIPOS>ATOM
      1 C           6.0189    5.2799    1.3792 C.3     1  UNL1        0.0788
      2 O           4.7009    5.2957    0.8045 O.3     1  UNL1       -0.4951
      3 C           3.9553    4.0783    0.7355 C.ar    1  UNL1        0.1201
      4 C           4.3149    2.9028    1.1825 C.ar    1  UNL1       -0.0196
      5 C           3.5988    1.7271    1.1121 C.ar    1  UNL1       -0.0536
      6 C           2.3225    1.8136    0.4717 C.ar    1  UNL1       -0.0301
      7 C           1.4991    0.5556    0.4432 C.3     1  UNL1        0.0361
      8 N           2.1648   -0.3444   -0.4219 N.pl3   1  UNL1       -0.3198
      9 C           1.6205   -1.6265   -0.7203 C.2     1  UNL1        0.1511
     10 N           0.4746   -1.7823   -1.2221 N.2     1  UNL1       -0.2517
     11 C          -0.2947   -2.8763   -1.6098 C.3     1  UNL1        0.0988
     12 C          -0.6278   -2.6293   -3.1209 C.3     1  UNL1       -0.0350
     13 C          -1.6528   -2.7600   -0.9812 C.ar    1  UNL1        0.0159
     14 C          -1.9486   -1.5988   -0.2463 C.ar    1  UNL1       -0.0463
     15 C          -3.2309   -1.4458    0.3192 C.ar    1  UNL1       -0.0217
     16 C          -3.5494   -0.1586    0.9660 C.2     1  UNL1       -0.0172
     17 C          -3.2846    0.9616    0.3572 C.2     1  UNL1        0.1492
     18 F          -2.6966    0.8684   -0.8996 F       1  UNL1       -0.2032
     19 C          -3.5444    2.3220    0.8764 C.ar    1  UNL1        0.0990
     20 C          -4.1497    2.4663    2.1158 C.ar    1  UNL1       -0.0322
     21 C          -4.3684    3.8123    2.5284 C.ar    1  UNL1       -0.0408
     22 C          -4.0118    4.8672    1.7726 C.ar    1  UNL1        0.0699
     23 C          -4.1842    6.2669    2.1118 C.1     1  UNL1        0.1007
     24 N          -4.3358    7.3841    2.3859 N.1     1  UNL1       -0.1908
     25 C          -3.3933    4.6614    0.5130 C.ar    1  UNL1        0.0457
     26 N          -3.2129    3.3606    0.1691 N.ar    1  UNL1       -0.2514
     27 C          -4.1033   -2.4560    0.1149 C.ar    1  UNL1       -0.0518
     28 C          -3.8179   -3.6022   -0.6074 C.ar    1  UNL1       -0.0255
     29 C          -2.5699   -3.7599   -1.1738 C.ar    1  UNL1        0.1289
     30 F          -2.2504   -4.8538   -1.9224 F       1  UNL1       -0.2051
     31 C           0.2638   -4.2176   -1.5396 C.3     1  UNL1        0.0757
     32 C           0.2868   -4.8433   -0.1352 C.3     1  UNL1        0.2730
     33 F          -0.0742   -4.0577    0.9347 F       1  UNL1       -0.2036
     34 F          -0.0114   -6.1875    0.0175 F       1  UNL1       -0.2036
     35 C           1.5046   -4.5050   -0.8650 C.3     1  UNL1        0.1207
     36 C           2.3620   -5.6922   -1.3594 C.3     1  UNL1        0.0653
     37 O           3.4916   -5.7208   -0.5094 O.3     1  UNL1       -0.3934
     38 S           2.5739   -3.1094   -0.4404 S.3     1  UNL1       -0.0753
     39 C           1.9559    3.0122    0.0140 C.ar    1  UNL1       -0.0536
     40 C           2.6760    4.2066    0.0862 C.ar    1  UNL1       -0.0196
     41 H           6.3244    6.2990    1.6562 H       1  UNL1        0.0660
     42 H           6.0010    4.5284    2.1574 H       1  UNL1        0.0660
     43 H           6.6753    4.9612    0.4795 H       1  UNL1        0.0660
     44 H           5.3265    2.8099    1.6683 H       1  UNL1        0.0654
     45 H           3.9393    0.8010    1.4805 H       1  UNL1        0.0622
     46 H           0.4665    0.8046    0.1146 H       1  UNL1        0.0511
     47 H           1.5300    0.2109    1.5029 H       1  UNL1        0.0511
     48 H           3.0770   -0.1130   -0.8806 H       1  UNL1        0.1483
     49 H          -1.4910   -3.2542   -3.3922 H       1  UNL1        0.0256
     50 H           0.2365   -2.9477   -3.7300 H       1  UNL1        0.0256
     51 H          -0.7944   -1.5594   -3.2479 H       1  UNL1        0.0256
     52 H          -1.2317   -0.8232   -0.0917 H       1  UNL1        0.0628
     53 H          -4.0023   -0.1691    1.9348 H       1  UNL1        0.0653
     54 H          -4.4507    1.6765    2.7226 H       1  UNL1        0.0640
     55 H          -4.8432    3.9983    3.4885 H       1  UNL1        0.0631
     56 H          -3.1085    5.4905   -0.0820 H       1  UNL1        0.0843
     57 H          -5.0963   -2.3350    0.5561 H       1  UNL1        0.0624
     58 H          -4.5326   -4.4042   -0.7774 H       1  UNL1        0.0646
     59 H          -0.0038   -4.9139   -2.3742 H       1  UNL1        0.0402
     60 H           1.8307   -6.6358   -1.3045 H       1  UNL1        0.0573
     61 H           2.7472   -5.4908   -2.3747 H       1  UNL1        0.0573
     62 H           3.5766   -4.7810   -0.0658 H       1  UNL1        0.2095
     63 H           0.9726    3.0937   -0.4846 H       1  UNL1        0.0622
     64 H           2.3786    5.1380   -0.2801 H       1  UNL1        0.0654
@<TRIPOS>BOND
     1     1     2    1
     2     2     3    1
     3     3     4   ar
     4     4     5   ar
     5     5     6   ar
     6     6     7    1
     7     7     8    1
     8     8     9    1
     9     9    10    2
    10    10    11    1
    11    11    12    1
    12    11    13    1
    13    13    14   ar
    14    14    15   ar
    15    15    16    1
    16    16    17    2
    17    17    18    1
    18    17    19    1
    19    19    20   ar
    20    20    21   ar
    21    21    22   ar
    22    22    23    1
    23    23    24    3
    24    22    25   ar
    25    25    26   ar
    26    15    27   ar
    27    27    28   ar
    28    28    29   ar
    29    29    30    1
    30    11    31    1
    31    31    32    1
    32    32    33    1
    33    32    34    1
    34    32    35    1
    35    35    36    1
    36    36    37    1
    37    35    38    1
    38     6    39   ar
    39    39    40   ar
    40    40     3   ar
    41    38     9    1
    42    29    13   ar
    43    35    31    1
    44    26    19   ar
    45     1    41    1
    46     1    42    1
    47     1    43    1
    48     4    44    1
    49     5    45    1
    50     7    46    1
    51     7    47    1
    52     8    48    1
    53    12    49    1
    54    12    50    1
    55    12    51    1
    56    14    52    1
    57    16    53    1
    58    20    54    1
    59    21    55    1
    60    25    56    1
    61    27    57    1
    62    28    58    1
    63    31    59    1
    64    36    60    1
    65    36    61    1
    66    37    62    1
    67    39    63    1
    68    40    64    1
