@<TRIPOS>MOLECULE
*****
 52 54 0 0 0
SMALL
GASTEIGER

@<TRIPOS>ATOM
      1 CA         -2.7867   -1.1800   -0.1523 C.3     1  VAL1        0.0487
      2 C          -2.7375   -1.4944    1.3035 C.3     1  VAL1        0.0628
      3 O          -3.3903   -0.5205    2.0562 O.3     1  VAL1       -0.3932
      4 N          -2.1589    0.0843   -0.4551 N.pl3   1  VAL1       -0.3081
      5 C          -0.7895    0.3559   -0.1909 C.ar    0  UNK0        0.2192
      6 N           0.0587   -0.5276    0.3599 N.ar    0  UNK0       -0.1971
      7 C           1.3409   -0.3240    0.6248 C.ar    0  UNK0        0.1558
      8 N           2.1975   -1.2790    1.2097 N.pl3   0  UNK0       -0.2975
      9 C           3.0119   -2.3054    0.7054 C.ar    0  UNK0        0.0338
     10 C           3.7455   -3.0084    1.6148 C.ar    0  UNK0       -0.0404
     11 C           4.5720   -4.0328    1.2424 C.ar    0  UNK0       -0.0586
     12 C           4.6157   -4.3100   -0.1209 C.ar    0  UNK0       -0.0433
     13 C           3.8721   -3.5964   -1.0376 C.ar    0  UNK0        0.0427
     14 CL          4.0148   -4.0456   -2.7405 Cl      0  UNK0       -0.0835
     15 C           3.0437   -2.5670   -0.6476 C.ar    0  UNK0       -0.0222
     16 C           1.8806    0.9116    0.3122 C.ar    0  UNK0        0.1479
     17 N           3.0999    1.4694    0.4302 N.ar    0  UNK0       -0.2306
     18 C           3.0254    2.7258   -0.0523 C.ar    0  UNK0        0.0986
     19 N           1.7576    2.9389   -0.4672 N.ar    0  UNK0       -0.3123
     20 C           1.3135    4.1658   -1.0355 C.3     0  UNK0        0.0317
     21 C           2.0695    5.3334   -0.3965 C.3     0  UNK0       -0.0444
     22 C          -0.1478    4.4097   -0.9967 C.3     0  UNK0       -0.0444
     23 C           1.0211    1.8396   -0.2578 C.ar    0  UNK0        0.1675
     24 N          -0.2502    1.5499   -0.4881 N.ar    0  UNK0       -0.1947
     25 CB         -4.1582   -1.2479   -0.7443 C.3     1  VAL1       -0.0261
     26 CG1        -5.1329   -0.2987   -0.1146 C.3     1  VAL1       -0.0609
     27 CG2        -4.7430   -2.6390   -0.7408 C.3     1  VAL1       -0.0609
     28 HA         -2.1689   -1.9599   -0.6783 H       1  VAL1        0.0523
     29 H1         -3.1222   -2.5098    1.5040 H       1  VAL1        0.0576
     30 H2         -1.6821   -1.4967    1.6400 H       1  VAL1        0.0576
     31 H          -3.1464    0.3718    1.7437 H       1  VAL1        0.2095
     32 H          -2.7362    0.8370   -0.8889 H       1  VAL1        0.1493
     33 H           2.0892   -1.0378    2.2151 H       0  UNK0        0.1536
     34 H           3.7024   -2.7786    2.6795 H       0  UNK0        0.0636
     35 H           5.1729   -4.6198    1.9201 H       0  UNK0        0.0619
     36 H           5.2618   -5.1144   -0.4403 H       0  UNK0        0.0632
     37 H           2.4609   -2.0082   -1.3660 H       0  UNK0        0.0651
     38 H           3.9081    3.3807   -0.0593 H       0  UNK0        0.1029
     39 H           1.6670    4.1744   -2.1070 H       0  UNK0        0.0523
     40 H           1.7319    6.3043   -0.7964 H       0  UNK0        0.0249
     41 H           3.1377    5.1852   -0.7024 H       0  UNK0        0.0249
     42 H           2.0334    5.2872    0.7065 H       0  UNK0        0.0249
     43 H          -0.6806    3.9091   -0.1715 H       0  UNK0        0.0249
     44 H          -0.3021    5.5000   -0.8499 H       0  UNK0        0.0249
     45 H          -0.5978    4.1806   -2.0005 H       0  UNK0        0.0249
     46 HB         -4.0744   -0.9369   -1.8156 H       1  VAL1        0.0314
     47 HG11       -4.7248    0.7269   -0.0277 H       1  VAL1        0.0233
     48 HG12       -6.0364   -0.2299   -0.7575 H       1  VAL1        0.0233
     49 HG13       -5.4930   -0.6362    0.8770 H       1  VAL1        0.0233
     50 HG21       -4.9572   -2.9923    0.3010 H       1  VAL1        0.0233
     51 HG22       -5.7141   -2.5992   -1.2680 H       1  VAL1        0.0233
     52 HG23       -4.0745   -3.3450   -1.2827 H       1  VAL1        0.0233
@<TRIPOS>BOND
     1     1     2    1
     2     2     3    1
     3     1     4    1
     4     4     5    1
     5     5     6   ar
     6     6     7   ar
     7     7     8    1
     8     8     9    1
     9     9    10   ar
    10    10    11   ar
    11    11    12   ar
    12    12    13   ar
    13    13    14    1
    14    13    15   ar
    15     7    16   ar
    16    16    17   ar
    17    17    18   ar
    18    18    19   ar
    19    19    20    1
    20    20    21    1
    21    20    22    1
    22    19    23   ar
    23    23    24   ar
    24     1    25    1
    25    25    26    1
    26    25    27    1
    27    24     5   ar
    28    15     9   ar
    29    23    16   ar
    30     1    28    1
    31     2    29    1
    32     2    30    1
    33     3    31    1
    34     4    32    1
    35     8    33    1
    36    10    34    1
    37    11    35    1
    38    12    36    1
    39    15    37    1
    40    18    38    1
    41    20    39    1
    42    21    40    1
    43    21    41    1
    44    21    42    1
    45    22    43    1
    46    22    44    1
    47    22    45    1
    48    25    46    1
    49    26    47    1
    50    26    48    1
    51    26    49    1
    52    27    50    1
    53    27    51    1
    54    27    52    1
