@<TRIPOS>MOLECULE
*****
 64 66 0 0 0
SMALL
GASTEIGER

@<TRIPOS>ATOM
      1 C           8.1688    3.0726   -1.1853 C.3     1  UNL1        0.0790
      2 O           7.1579    2.1407   -0.8668 O.3     1  UNL1       -0.4915
      3 C           7.4037    0.7822   -0.9221 C.ar    1  UNL1        0.1615
      4 C           8.6440    0.3203   -1.2909 C.ar    1  UNL1       -0.0163
      5 C           8.8259   -1.0501   -1.3264 C.ar    1  UNL1       -0.0581
      6 C           7.8363   -1.9498   -1.0141 C.ar    1  UNL1       -0.0581
      7 C           6.6103   -1.4285   -0.6505 C.ar    1  UNL1       -0.0163
      8 C           6.3649   -0.0782   -0.5955 C.ar    1  UNL1        0.1620
      9 O           5.1147    0.4538   -0.2246 O.3     1  UNL1       -0.4857
     10 C           4.1245   -0.4949    0.0908 C.3     1  UNL1        0.1168
     11 C           2.8069    0.1558    0.4795 C.3     1  UNL1        0.1018
     12 O           3.0129    0.9697    1.5932 O.3     1  UNL1       -0.3872
     13 C           1.8008   -0.9229    0.7994 C.3     1  UNL1        0.0282
     14 N           0.5410   -0.3762    1.1890 N.3     1  UNL1       -0.2974
     15 C          -0.1480    0.2672    0.1275 C.3     1  UNL1        0.0118
     16 C          -1.3564    1.0010    0.6945 C.3     1  UNL1        0.0122
     17 N          -2.0165    0.2573    1.7103 N.3     1  UNL1       -0.2916
     18 C          -3.3224    0.6675    2.0707 C.3     1  UNL1        0.0761
     19 C          -4.3840    0.4729    1.0845 C.2     1  UNL1        0.2313
     20 O          -5.4548    0.9204    1.6280 O.2     1  UNL1       -0.2741
     21 N          -4.4542   -0.0642   -0.2333 N.am    1  UNL1       -0.2840
     22 C          -5.7841    0.0052   -0.7242 C.ar    1  UNL1        0.0393
     23 C          -6.5223   -1.1385   -0.4040 C.ar    1  UNL1       -0.0290
     24 C          -6.0137   -2.3103    0.3604 C.3     1  UNL1       -0.0379
     25 C          -7.8374   -1.2479   -0.8020 C.ar    1  UNL1       -0.0571
     26 C          -8.4067   -0.2186   -1.5150 C.ar    1  UNL1       -0.0611
     27 C          -7.6928    0.9192   -1.8410 C.ar    1  UNL1       -0.0571
     28 C          -6.3823    1.0211   -1.4408 C.ar    1  UNL1       -0.0290
     29 C          -5.4837    2.1706   -1.7092 C.3     1  UNL1       -0.0379
     30 C          -1.7464   -1.1387    1.7323 C.3     1  UNL1        0.0122
     31 C          -0.2505   -1.2861    1.9824 C.3     1  UNL1        0.0118
     32 H           7.7201    4.0700   -1.3919 H       1  UNL1        0.0660
     33 H           8.6776    2.7540   -2.0980 H       1  UNL1        0.0660
     34 H           8.8881    3.1488   -0.3396 H       1  UNL1        0.0660
     35 H           9.4745    0.9579   -1.5526 H       1  UNL1        0.0655
     36 H           9.7996   -1.4703   -1.6158 H       1  UNL1        0.0619
     37 H           8.0202   -3.0110   -1.0548 H       1  UNL1        0.0619
     38 H           5.8270   -2.1251   -0.4037 H       1  UNL1        0.0655
     39 H           4.5044   -1.1524    0.8833 H       1  UNL1        0.0723
     40 H           3.9383   -1.1255   -0.8049 H       1  UNL1        0.0723
     41 H           2.4658    0.7815   -0.3490 H       1  UNL1        0.0640
     42 H           2.7900    0.5214    2.4529 H       1  UNL1        0.2100
     43 H           2.2515   -1.5542    1.6106 H       1  UNL1        0.0453
     44 H           1.6850   -1.6195   -0.0819 H       1  UNL1        0.0453
     45 H          -0.4389   -0.4069   -0.7027 H       1  UNL1        0.0439
     46 H           0.4892    1.0501   -0.3099 H       1  UNL1        0.0439
     47 H          -0.9225    1.9129    1.2082 H       1  UNL1        0.0439
     48 H          -1.9962    1.4248   -0.0962 H       1  UNL1        0.0439
     49 H          -3.2399    1.7415    2.4192 H       1  UNL1        0.0522
     50 H          -3.5718    0.1245    3.0302 H       1  UNL1        0.0522
     51 H          -3.5054   -0.3793   -0.5181 H       1  UNL1        0.1549
     52 H          -4.9760   -2.1470    0.7158 H       1  UNL1        0.0278
     53 H          -6.1413   -3.2137   -0.2620 H       1  UNL1        0.0278
     54 H          -6.7176   -2.4520    1.2229 H       1  UNL1        0.0278
     55 H          -8.4583   -2.1081   -0.5837 H       1  UNL1        0.0621
     56 H          -9.4453   -0.2722   -1.8453 H       1  UNL1        0.0618
     57 H          -8.0955    1.7476   -2.3954 H       1  UNL1        0.0621
     58 H          -4.5480    1.8730   -2.2201 H       1  UNL1        0.0278
     59 H          -5.2591    2.6760   -0.7430 H       1  UNL1        0.0278
     60 H          -6.0825    2.9113   -2.2942 H       1  UNL1        0.0278
     61 H          -2.0547   -1.7135    0.8570 H       1  UNL1        0.0439
     62 H          -2.2564   -1.5618    2.6224 H       1  UNL1        0.0439
     63 H           0.1124   -2.3132    1.9081 H       1  UNL1        0.0439
     64 H          -0.0906   -0.9622    3.0498 H       1  UNL1        0.0439
@<TRIPOS>BOND
     1     1     2    1
     2     2     3    1
     3     3     4   ar
     4     4     5   ar
     5     5     6   ar
     6     6     7   ar
     7     7     8   ar
     8     8     9    1
     9     9    10    1
    10    10    11    1
    11    11    12    1
    12    11    13    1
    13    13    14    1
    14    14    15    1
    15    15    16    1
    16    16    17    1
    17    17    18    1
    18    18    19    1
    19    19    20    2
    20    19    21   am
    21    21    22    1
    22    22    23   ar
    23    23    24    1
    24    23    25   ar
    25    25    26   ar
    26    26    27   ar
    27    27    28   ar
    28    28    29    1
    29    17    30    1
    30    30    31    1
    31     8     3   ar
    32    31    14    1
    33    28    22   ar
    34     1    32    1
    35     1    33    1
    36     1    34    1
    37     4    35    1
    38     5    36    1
    39     6    37    1
    40     7    38    1
    41    10    39    1
    42    10    40    1
    43    11    41    1
    44    12    42    1
    45    13    43    1
    46    13    44    1
    47    15    45    1
    48    15    46    1
    49    16    47    1
    50    16    48    1
    51    18    49    1
    52    18    50    1
    53    21    51    1
    54    24    52    1
    55    24    53    1
    56    24    54    1
    57    25    55    1
    58    26    56    1
    59    27    57    1
    60    29    58    1
    61    29    59    1
    62    29    60    1
    63    30    61    1
    64    30    62    1
    65    31    63    1
    66    31    64    1
