@<TRIPOS>MOLECULE
*****
 41 43 0 0 0
SMALL
GASTEIGER

@<TRIPOS>ATOM
      1 C          -5.9548    1.6537    0.2616 C.3     1  UNL1       -0.0416
      2 C          -4.5373    1.4246    0.7068 C.3     1  UNL1        0.0449
      3 O          -3.8366    0.6817   -0.2421 O.3     1  UNL1       -0.3784
      4 C          -2.5229    0.4700    0.1715 C.3     1  UNL1        0.0648
      5 C          -1.8022   -0.3325   -0.8759 C.3     1  UNL1        0.0552
      6 C          -2.5024   -1.6931   -0.9353 C.3     1  UNL1       -0.0323
      7 C          -1.7469   -2.4737    0.1009 C.3     1  UNL1       -0.0370
      8 C          -0.3258   -1.9528   -0.0916 C.3     1  UNL1        0.0209
      9 N          -0.4506   -0.6212   -0.5818 N.3     1  UNL1       -0.1713
     10 S           0.3336    0.5512    0.3881 S.O2    1  UNL1        0.0612
     11 O          -0.1758    0.5152    1.8202 O.2     1  UNL1       -0.1528
     12 O           0.1341    1.9064   -0.2167 O.2     1  UNL1       -0.1528
     13 C           2.0510    0.2645    0.4734 C.ar    1  UNL1        0.1063
     14 C           2.6440   -0.5085    1.4441 C.ar    1  UNL1       -0.0336
     15 C           4.0129   -0.6786    1.4266 C.ar    1  UNL1       -0.0379
     16 C           4.8150   -0.0914    0.4555 C.ar    1  UNL1        0.0449
     17 C           4.2126    0.6820   -0.5139 C.ar    1  UNL1        0.0499
     18 C           2.8437    0.8482   -0.4910 C.ar    1  UNL1       -0.0226
     19 C           5.2348    1.2005   -1.4299 C.2     1  UNL1        0.2494
     20 O           5.0599    1.9438   -2.4370 O.2     1  UNL1       -0.2817
     21 C           6.5133    0.6883   -0.9520 C.2     1  UNL1        0.2887
     22 O           7.6056    0.9378   -1.5047 O.2     1  UNL1       -0.2663
     23 N           6.2155   -0.0948    0.1991 N.am    1  UNL1       -0.2782
     24 H          -6.2829    2.6596    0.6038 H       1  UNL1        0.0252
     25 H          -6.6515    0.9319    0.7385 H       1  UNL1        0.0252
     26 H          -6.0640    1.6107   -0.8427 H       1  UNL1        0.0252
     27 H          -4.0451    2.4278    0.7501 H       1  UNL1        0.0557
     28 H          -4.5560    0.9398    1.7009 H       1  UNL1        0.0557
     29 H          -2.0835    1.4548    0.3674 H       1  UNL1        0.0576
     30 H          -2.5631   -0.0624    1.1530 H       1  UNL1        0.0576
     31 H          -1.9123    0.1855   -1.8413 H       1  UNL1        0.0502
     32 H          -2.4773   -2.1263   -1.9344 H       1  UNL1        0.0282
     33 H          -3.5616   -1.5971   -0.5586 H       1  UNL1        0.0282
     34 H          -1.7898   -3.5679   -0.0669 H       1  UNL1        0.0279
     35 H          -2.1048   -2.1824    1.0926 H       1  UNL1        0.0279
     36 H           0.2731   -2.0416    0.8240 H       1  UNL1        0.0444
     37 H           0.1093   -2.5849   -0.9152 H       1  UNL1        0.0444
     38 H           2.0246   -0.9631    2.1957 H       1  UNL1        0.0638
     39 H           4.5068   -1.2881    2.1871 H       1  UNL1        0.0637
     40 H           2.4115    1.4735   -1.2852 H       1  UNL1        0.0645
     41 H           6.9461   -0.5911    0.7571 H       1  UNL1        0.1552
@<TRIPOS>BOND
     1     1     2    1
     2     2     3    1
     3     3     4    1
     4     4     5    1
     5     5     6    1
     6     6     7    1
     7     7     8    1
     8     8     9    1
     9     9    10    1
    10    10    11    2
    11    10    12    2
    12    10    13    1
    13    13    14   ar
    14    14    15   ar
    15    15    16   ar
    16    16    17   ar
    17    17    18   ar
    18    17    19    1
    19    19    20    2
    20    19    21    1
    21    21    22    2
    22    21    23   am
    23     9     5    1
    24    18    13   ar
    25    23    16    1
    26     1    24    1
    27     1    25    1
    28     1    26    1
    29     2    27    1
    30     2    28    1
    31     4    29    1
    32     4    30    1
    33     5    31    1
    34     6    32    1
    35     6    33    1
    36     7    34    1
    37     7    35    1
    38     8    36    1
    39     8    37    1
    40    14    38    1
    41    15    39    1
    42    18    40    1
    43    23    41    1
