
     RDKit          3D

 41 43  0  0  0  0  0  0  0  0999 V2000
   -5.9548    1.6537    0.2616 C   0  0  0  0  0  0  0  0  0  0  0  0
   -4.5373    1.4246    0.7068 C   0  0  0  0  0  0  0  0  0  0  0  0
   -3.8366    0.6817   -0.2421 O   0  0  0  0  0  0  0  0  0  0  0  0
   -2.5229    0.4700    0.1715 C   0  0  0  0  0  0  0  0  0  0  0  0
   -1.8022   -0.3325   -0.8759 C   0  0  2  0  0  0  0  0  0  0  0  0
   -2.5024   -1.6931   -0.9353 C   0  0  0  0  0  0  0  0  0  0  0  0
   -1.7469   -2.4737    0.1009 C   0  0  0  0  0  0  0  0  0  0  0  0
   -0.3258   -1.9528   -0.0916 C   0  0  0  0  0  0  0  0  0  0  0  0
   -0.4506   -0.6212   -0.5818 N   0  0  0  0  0  0  0  0  0  0  0  0
    0.3336    0.5512    0.3881 S   0  0  0  0  0  6  0  0  0  0  0  0
   -0.1758    0.5152    1.8202 O   0  0  0  0  0  0  0  0  0  0  0  0
    0.1341    1.9064   -0.2167 O   0  0  0  0  0  0  0  0  0  0  0  0
    2.0510    0.2645    0.4734 C   0  0  0  0  0  0  0  0  0  0  0  0
    2.6440   -0.5085    1.4441 C   0  0  0  0  0  0  0  0  0  0  0  0
    4.0129   -0.6786    1.4266 C   0  0  0  0  0  0  0  0  0  0  0  0
    4.8150   -0.0914    0.4555 C   0  0  0  0  0  0  0  0  0  0  0  0
    4.2126    0.6820   -0.5139 C   0  0  0  0  0  0  0  0  0  0  0  0
    2.8437    0.8482   -0.4910 C   0  0  0  0  0  0  0  0  0  0  0  0
    5.2348    1.2005   -1.4299 C   0  0  0  0  0  0  0  0  0  0  0  0
    5.0599    1.9438   -2.4370 O   0  0  0  0  0  0  0  0  0  0  0  0
    6.5133    0.6883   -0.9520 C   0  0  0  0  0  0  0  0  0  0  0  0
    7.6056    0.9378   -1.5047 O   0  0  0  0  0  0  0  0  0  0  0  0
    6.2155   -0.0948    0.1991 N   0  0  0  0  0  0  0  0  0  0  0  0
   -6.2829    2.6596    0.6038 H   0  0  0  0  0  0  0  0  0  0  0  0
   -6.6515    0.9319    0.7385 H   0  0  0  0  0  0  0  0  0  0  0  0
   -6.0640    1.6107   -0.8427 H   0  0  0  0  0  0  0  0  0  0  0  0
   -4.0451    2.4278    0.7501 H   0  0  0  0  0  0  0  0  0  0  0  0
   -4.5560    0.9398    1.7009 H   0  0  0  0  0  0  0  0  0  0  0  0
   -2.0835    1.4548    0.3674 H   0  0  0  0  0  0  0  0  0  0  0  0
   -2.5631   -0.0624    1.1530 H   0  0  0  0  0  0  0  0  0  0  0  0
   -1.9123    0.1855   -1.8413 H   0  0  0  0  0  0  0  0  0  0  0  0
   -2.4773   -2.1263   -1.9344 H   0  0  0  0  0  0  0  0  0  0  0  0
   -3.5616   -1.5971   -0.5586 H   0  0  0  0  0  0  0  0  0  0  0  0
   -1.7898   -3.5679   -0.0669 H   0  0  0  0  0  0  0  0  0  0  0  0
   -2.1048   -2.1824    1.0926 H   0  0  0  0  0  0  0  0  0  0  0  0
    0.2731   -2.0416    0.8240 H   0  0  0  0  0  0  0  0  0  0  0  0
    0.1093   -2.5849   -0.9152 H   0  0  0  0  0  0  0  0  0  0  0  0
    2.0246   -0.9631    2.1957 H   0  0  0  0  0  0  0  0  0  0  0  0
    4.5068   -1.2881    2.1871 H   0  0  0  0  0  0  0  0  0  0  0  0
    2.4115    1.4735   -1.2852 H   0  0  0  0  0  0  0  0  0  0  0  0
    6.9461   -0.5911    0.7571 H   0  0  0  0  0  0  0  0  0  0  0  0
  1  2  1  0
  2  3  1  0
  3  4  1  0
  4  5  1  0
  5  6  1  0
  6  7  1  0
  7  8  1  0
  8  9  1  0
  9 10  1  0
 10 11  2  0
 10 12  2  0
 10 13  1  0
 13 14  2  0
 14 15  1  0
 15 16  2  0
 16 17  1  0
 17 18  2  0
 17 19  1  0
 19 20  2  0
 19 21  1  0
 21 22  2  0
 21 23  1  0
  9  5  1  0
 18 13  1  0
 23 16  1  0
  1 24  1  0
  1 25  1  0
  1 26  1  0
  2 27  1  0
  2 28  1  0
  4 29  1  0
  4 30  1  0
  5 31  1  6
  6 32  1  0
  6 33  1  0
  7 34  1  0
  7 35  1  0
  8 36  1  0
  8 37  1  0
 14 38  1  0
 15 39  1  0
 18 40  1  0
 23 41  1  0
M  END
$$$$
