
     RDKit          3D

 54 53  0  0  0  0  0  0  0  0999 V2000
    7.1865   -0.8662   -1.0013 C   0  0  0  0  0  0  0  0  0  0  0  0
    7.6256   -0.3172    0.3299 C   0  0  0  0  0  0  0  0  0  0  0  0
    7.5006    1.1533    0.4594 C   0  0  0  0  0  0  0  0  0  0  0  0
    6.1850    1.7859    0.2773 C   0  0  0  0  0  0  0  0  0  0  0  0
    5.0712    1.3934    1.1752 C   0  0  0  0  0  0  0  0  0  0  0  0
    4.7187   -0.0294    1.0163 C   0  0  0  0  0  0  0  0  0  0  0  0
    3.4385   -0.1651    0.5912 C   0  0  0  0  0  0  0  0  0  0  0  0
    2.2846    0.7072    0.2341 C   0  0  0  0  0  0  0  0  0  0  0  0
    1.7884    0.5152   -1.1468 C   0  0  0  0  0  0  0  0  0  0  0  0
    0.5350    0.1052   -1.1438 C   0  0  0  0  0  0  0  0  0  0  0  0
   -0.4182   -0.1869   -0.0708 C   0  0  0  0  0  0  0  0  0  0  0  0
   -0.9222   -1.5825   -0.1133 C   0  0  0  0  0  0  0  0  0  0  0  0
   -2.1378   -2.0588   -0.2441 C   0  0  0  0  0  0  0  0  0  0  0  0
   -3.1372   -0.9807   -0.3695 C   0  0  0  0  0  0  0  0  0  0  0  0
   -4.1184   -0.9659    0.7234 C   0  0  0  0  0  0  0  0  0  0  0  0
   -5.4018   -1.0468    0.9420 C   0  0  0  0  0  0  0  0  0  0  0  0
   -6.1780   -1.2054   -0.2776 C   0  0  0  0  0  0  0  0  0  0  0  0
   -7.1464   -0.0211   -0.4054 C   0  0  0  0  0  0  0  0  0  0  0  0
   -8.0510   -0.0429    0.8020 C   0  0  0  0  0  0  0  0  0  0  0  0
   -8.9852    1.1142    0.6407 C   0  0  0  0  0  0  0  0  0  0  0  0
   -8.9027    2.3264    1.3214 O   0  0  0  0  0  0  0  0  0  0  0  0
   -9.9353    0.9776   -0.1892 O   0  0  0  0  0  0  0  0  0  0  0  0
    6.2803   -0.3847   -1.4002 H   0  0  0  0  0  0  0  0  0  0  0  0
    6.9565   -1.9449   -0.8497 H   0  0  0  0  0  0  0  0  0  0  0  0
    7.9718   -0.7592   -1.7722 H   0  0  0  0  0  0  0  0  0  0  0  0
    8.7678   -0.5029    0.3195 H   0  0  0  0  0  0  0  0  0  0  0  0
    7.2910   -0.9345    1.1573 H   0  0  0  0  0  0  0  0  0  0  0  0
    8.0278    1.4815    1.3946 H   0  0  0  0  0  0  0  0  0  0  0  0
    8.1765    1.5879   -0.3500 H   0  0  0  0  0  0  0  0  0  0  0  0
    6.3562    2.9078    0.3547 H   0  0  0  0  0  0  0  0  0  0  0  0
    5.8870    1.6725   -0.8002 H   0  0  0  0  0  0  0  0  0  0  0  0
    5.4882    1.5099    2.2464 H   0  0  0  0  0  0  0  0  0  0  0  0
    4.2581    2.1064    1.1721 H   0  0  0  0  0  0  0  0  0  0  0  0
    5.0228   -1.0384    1.0913 H   0  0  0  0  0  0  0  0  0  0  0  0
    2.8814   -1.0882    0.3943 H   0  0  0  0  0  0  0  0  0  0  0  0
    1.5669    0.8125    1.0253 H   0  0  0  0  0  0  0  0  0  0  0  0
    2.7397    1.7693    0.1736 H   0  0  0  0  0  0  0  0  0  0  0  0
    2.3692    0.6865   -2.0293 H   0  0  0  0  0  0  0  0  0  0  0  0
    0.0109   -0.0834   -2.0998 H   0  0  0  0  0  0  0  0  0  0  0  0
   -0.0155   -0.0930    0.9727 H   0  0  0  0  0  0  0  0  0  0  0  0
   -1.1885    0.5989   -0.1134 H   0  0  0  0  0  0  0  0  0  0  0  0
   -0.0707   -2.2817   -0.0124 H   0  0  0  0  0  0  0  0  0  0  0  0
   -2.3933   -3.1049   -0.2608 H   0  0  0  0  0  0  0  0  0  0  0  0
   -3.7522   -1.3173   -1.2903 H   0  0  0  0  0  0  0  0  0  0  0  0
   -2.8024   -0.0027   -0.6652 H   0  0  0  0  0  0  0  0  0  0  0  0
   -3.4387   -0.8384    1.5777 H   0  0  0  0  0  0  0  0  0  0  0  0
   -5.7476   -0.9951    1.9580 H   0  0  0  0  0  0  0  0  0  0  0  0
   -6.8058   -2.1501   -0.1883 H   0  0  0  0  0  0  0  0  0  0  0  0
   -5.6656   -1.2842   -1.2223 H   0  0  0  0  0  0  0  0  0  0  0  0
   -7.7003   -0.0741   -1.3591 H   0  0  0  0  0  0  0  0  0  0  0  0
   -6.4849    0.8827   -0.3777 H   0  0  0  0  0  0  0  0  0  0  0  0
   -7.4168    0.0805    1.7003 H   0  0  0  0  0  0  0  0  0  0  0  0
   -8.5801   -1.0028    0.8216 H   0  0  0  0  0  0  0  0  0  0  0  0
   -8.9898    3.1748    0.8024 H   0  0  0  0  0  0  0  0  0  0  0  0
  1  2  1  0
  2  3  1  0
  3  4  1  0
  4  5  1  0
  5  6  1  0
  6  7  2  0
  7  8  1  0
  8  9  1  0
  9 10  2  0
 10 11  1  0
 11 12  1  0
 12 13  2  0
 13 14  1  0
 14 15  1  0
 15 16  2  0
 16 17  1  0
 17 18  1  0
 18 19  1  0
 19 20  1  0
 20 21  1  0
 20 22  2  0
  1 23  1  0
  1 24  1  0
  1 25  1  0
  2 26  1  0
  2 27  1  0
  3 28  1  0
  3 29  1  0
  4 30  1  0
  4 31  1  0
  5 32  1  0
  5 33  1  0
  6 34  1  0
  7 35  1  0
  8 36  1  0
  8 37  1  0
  9 38  1  0
 10 39  1  0
 11 40  1  0
 11 41  1  0
 12 42  1  0
 13 43  1  0
 14 44  1  0
 14 45  1  0
 15 46  1  0
 16 47  1  0
 17 48  1  0
 17 49  1  0
 18 50  1  0
 18 51  1  0
 19 52  1  0
 19 53  1  0
 21 54  1  0
M  END
$$$$
