@<TRIPOS>MOLECULE
*****
 54 53 0 0 0
SMALL
GASTEIGER

@<TRIPOS>ATOM
      1 C           7.1865   -0.8662   -1.0013 C.3     1  UNL1       -0.0653
      2 C           7.6256   -0.3172    0.3299 C.3     1  UNL1       -0.0559
      3 C           7.5006    1.1533    0.4594 C.3     1  UNL1       -0.0530
      4 C           6.1850    1.7859    0.2773 C.3     1  UNL1       -0.0496
      5 C           5.0712    1.3934    1.1752 C.3     1  UNL1       -0.0348
      6 C           4.7187   -0.0294    1.0163 C.2     1  UNL1       -0.0876
      7 C           3.4385   -0.1651    0.5912 C.2     1  UNL1       -0.0842
      8 C           2.2846    0.7072    0.2341 C.3     1  UNL1       -0.0165
      9 C           1.7884    0.5152   -1.1468 C.2     1  UNL1       -0.0839
     10 C           0.5350    0.1052   -1.1438 C.2     1  UNL1       -0.0839
     11 C          -0.4182   -0.1869   -0.0708 C.3     1  UNL1       -0.0165
     12 C          -0.9222   -1.5825   -0.1133 C.2     1  UNL1       -0.0839
     13 C          -2.1378   -2.0588   -0.2441 C.2     1  UNL1       -0.0839
     14 C          -3.1372   -0.9807   -0.3695 C.3     1  UNL1       -0.0165
     15 C          -4.1184   -0.9659    0.7234 C.2     1  UNL1       -0.0842
     16 C          -5.4018   -1.0468    0.9420 C.2     1  UNL1       -0.0876
     17 C          -6.1780   -1.2054   -0.2776 C.3     1  UNL1       -0.0343
     18 C          -7.1464   -0.0211   -0.4054 C.3     1  UNL1       -0.0395
     19 C          -8.0510   -0.0429    0.8020 C.3     1  UNL1        0.0451
     20 C          -8.9852    1.1142    0.6407 C.2     1  UNL1        0.3047
     21 O          -8.9027    2.3264    1.3214 O.3     1  UNL1       -0.4806
     22 O          -9.9353    0.9776   -0.1892 O.2     1  UNL1       -0.2510
     23 H           6.2803   -0.3847   -1.4002 H       1  UNL1        0.0230
     24 H           6.9565   -1.9449   -0.8497 H       1  UNL1        0.0230
     25 H           7.9718   -0.7592   -1.7722 H       1  UNL1        0.0230
     26 H           8.7678   -0.5029    0.3195 H       1  UNL1        0.0263
     27 H           7.2910   -0.9345    1.1573 H       1  UNL1        0.0263
     28 H           8.0278    1.4815    1.3946 H       1  UNL1        0.0265
     29 H           8.1765    1.5879   -0.3500 H       1  UNL1        0.0265
     30 H           6.3562    2.9078    0.3547 H       1  UNL1        0.0268
     31 H           5.8870    1.6725   -0.8002 H       1  UNL1        0.0268
     32 H           5.4882    1.5099    2.2464 H       1  UNL1        0.0307
     33 H           4.2581    2.1064    1.1721 H       1  UNL1        0.0307
     34 H           5.0228   -1.0384    1.0913 H       1  UNL1        0.0569
     35 H           2.8814   -1.0882    0.3943 H       1  UNL1        0.0572
     36 H           1.5669    0.8125    1.0253 H       1  UNL1        0.0350
     37 H           2.7397    1.7693    0.1736 H       1  UNL1        0.0350
     38 H           2.3692    0.6865   -2.0293 H       1  UNL1        0.0572
     39 H           0.0109   -0.0834   -2.0998 H       1  UNL1        0.0572
     40 H          -0.0155   -0.0930    0.9727 H       1  UNL1        0.0350
     41 H          -1.1885    0.5989   -0.1134 H       1  UNL1        0.0350
     42 H          -0.0707   -2.2817   -0.0124 H       1  UNL1        0.0572
     43 H          -2.3933   -3.1049   -0.2608 H       1  UNL1        0.0572
     44 H          -3.7522   -1.3173   -1.2903 H       1  UNL1        0.0350
     45 H          -2.8024   -0.0027   -0.6652 H       1  UNL1        0.0350
     46 H          -3.4387   -0.8384    1.5777 H       1  UNL1        0.0572
     47 H          -5.7476   -0.9951    1.9580 H       1  UNL1        0.0569
     48 H          -6.8058   -2.1501   -0.1883 H       1  UNL1        0.0307
     49 H          -5.6656   -1.2842   -1.2223 H       1  UNL1        0.0307
     50 H          -7.7003   -0.0741   -1.3591 H       1  UNL1        0.0273
     51 H          -6.4849    0.8827   -0.3777 H       1  UNL1        0.0273
     52 H          -7.4168    0.0805    1.7003 H       1  UNL1        0.0378
     53 H          -8.5801   -1.0028    0.8216 H       1  UNL1        0.0378
     54 H          -8.9898    3.1748    0.8024 H       1  UNL1        0.2951
@<TRIPOS>BOND
     1     1     2    1
     2     2     3    1
     3     3     4    1
     4     4     5    1
     5     5     6    1
     6     6     7    2
     7     7     8    1
     8     8     9    1
     9     9    10    2
    10    10    11    1
    11    11    12    1
    12    12    13    2
    13    13    14    1
    14    14    15    1
    15    15    16    2
    16    16    17    1
    17    17    18    1
    18    18    19    1
    19    19    20    1
    20    20    21    1
    21    20    22    2
    22     1    23    1
    23     1    24    1
    24     1    25    1
    25     2    26    1
    26     2    27    1
    27     3    28    1
    28     3    29    1
    29     4    30    1
    30     4    31    1
    31     5    32    1
    32     5    33    1
    33     6    34    1
    34     7    35    1
    35     8    36    1
    36     8    37    1
    37     9    38    1
    38    10    39    1
    39    11    40    1
    40    11    41    1
    41    12    42    1
    42    13    43    1
    43    14    44    1
    44    14    45    1
    45    15    46    1
    46    16    47    1
    47    17    48    1
    48    17    49    1
    49    18    50    1
    50    18    51    1
    51    19    52    1
    52    19    53    1
    53    21    54    1
