@<TRIPOS>MOLECULE
*****
 56 59 0 0 0
SMALL
GASTEIGER

@<TRIPOS>ATOM
      1 C          -3.7962   -0.7848   -0.3036 C.3     1  UNL1        0.0941
      2 N          -2.9371    0.2298   -0.8209 N.pl3   1  UNL1       -0.3257
      3 C          -1.5503   -0.0095   -1.0006 C.ar    1  UNL1        0.0553
      4 C          -0.7490    0.9688   -1.5513 C.ar    1  UNL1       -0.0341
      5 C           0.6034    0.8172   -1.7594 C.ar    1  UNL1       -0.0223
      6 C           1.3997    1.9200   -2.3590 C.3     1  UNL1       -0.0378
      7 C           1.2259   -0.3646   -1.4101 C.ar    1  UNL1        0.1103
      8 C           0.4258   -1.3650   -0.8508 C.ar    1  UNL1       -0.0069
      9 C          -0.9063   -1.1831   -0.6589 C.ar    1  UNL1        0.1279
     10 S          -1.8937   -2.4505    0.0445 S.O2    1  UNL1        0.0618
     11 O          -1.1650   -3.2707    1.0489 O.2     1  UNL1       -0.1529
     12 O          -2.4446   -3.2908   -1.0869 O.2     1  UNL1       -0.1529
     13 N          -3.2639   -1.6213    0.7120 N.3     1  UNL1       -0.1697
     14 S           2.9454   -0.5127   -1.6925 S.O2    1  UNL1        0.0612
     15 O           3.3921   -1.8921   -1.3779 O.2     1  UNL1       -0.1528
     16 O           3.2251   -0.2625   -3.1564 O.2     1  UNL1       -0.1528
     17 N           3.8270    0.6904   -0.8217 N.3     1  UNL1       -0.1741
     18 C           3.6764    0.6077    0.5970 C.3     1  UNL1        0.0333
     19 C           4.5608   -0.3777    1.2836 C.3     1  UNL1        0.0131
     20 N           5.9135   -0.4245    0.8058 N.3     1  UNL1       -0.3028
     21 C           6.7910    0.5432    1.4370 C.3     1  UNL1       -0.0127
     22 C           5.9998   -0.3737   -0.6393 C.3     1  UNL1        0.0131
     23 C           5.2055    0.7475   -1.2253 C.3     1  UNL1        0.0333
     24 C          -5.1086   -0.1274    0.0959 C.3     1  UNL1       -0.0078
     25 C          -4.9087    0.9373    1.1525 C.3     1  UNL1       -0.0473
     26 C          -6.3523    1.2058    1.5580 C.3     1  UNL1       -0.0527
     27 C          -7.0754   -0.1170    1.3620 C.3     1  UNL1       -0.0527
     28 C          -6.0377   -1.0860    0.8064 C.3     1  UNL1       -0.0473
     29 H          -4.0733   -1.4537   -1.1674 H       1  UNL1        0.0685
     30 H          -3.2959    1.1924   -1.0887 H       1  UNL1        0.1477
     31 H          -1.1782    1.9348   -1.8527 H       1  UNL1        0.0640
     32 H           0.7462    2.8095   -2.5011 H       1  UNL1        0.0278
     33 H           1.7533    1.6120   -3.3450 H       1  UNL1        0.0278
     34 H           2.1902    2.2167   -1.6420 H       1  UNL1        0.0278
     35 H           0.9312   -2.2637   -0.5916 H       1  UNL1        0.0657
     36 H          -2.9608   -1.1482    1.5691 H       1  UNL1        0.1501
     37 H           3.7526    1.6218    1.0403 H       1  UNL1        0.0456
     38 H           2.6142    0.2690    0.7727 H       1  UNL1        0.0456
     39 H           4.6104   -0.0661    2.3671 H       1  UNL1        0.0439
     40 H           4.1498   -1.4135    1.3189 H       1  UNL1        0.0439
     41 H           6.4905    0.5972    2.5079 H       1  UNL1        0.0391
     42 H           7.8247    0.2135    1.3337 H       1  UNL1        0.0391
     43 H           6.7081    1.5446    0.9736 H       1  UNL1        0.0391
     44 H           5.7439   -1.3206   -1.1265 H       1  UNL1        0.0439
     45 H           7.0879   -0.1866   -0.8722 H       1  UNL1        0.0439
     46 H           5.6103    1.7259   -0.8843 H       1  UNL1        0.0456
     47 H           5.2969    0.6936   -2.3202 H       1  UNL1        0.0456
     48 H          -5.6493    0.2776   -0.7616 H       1  UNL1        0.0332
     49 H          -4.4344    0.4364    2.0127 H       1  UNL1        0.0269
     50 H          -4.3784    1.8281    0.8034 H       1  UNL1        0.0269
     51 H          -6.4333    1.5633    2.6007 H       1  UNL1        0.0265
     52 H          -6.7320    2.0027    0.8721 H       1  UNL1        0.0265
     53 H          -7.8920    0.0344    0.6403 H       1  UNL1        0.0265
     54 H          -7.4476   -0.5112    2.3456 H       1  UNL1        0.0265
     55 H          -6.4823   -1.8107    0.1066 H       1  UNL1        0.0269
     56 H          -5.5555   -1.5530    1.6912 H       1  UNL1        0.0269
@<TRIPOS>BOND
     1     1     2    1
     2     2     3    1
     3     3     4   ar
     4     4     5   ar
     5     5     6    1
     6     5     7   ar
     7     7     8   ar
     8     8     9   ar
     9     9    10    1
    10    10    11    2
    11    10    12    2
    12    10    13    1
    13     7    14    1
    14    14    15    2
    15    14    16    2
    16    14    17    1
    17    17    18    1
    18    18    19    1
    19    19    20    1
    20    20    21    1
    21    20    22    1
    22    22    23    1
    23     1    24    1
    24    24    25    1
    25    25    26    1
    26    26    27    1
    27    27    28    1
    28    13     1    1
    29    23    17    1
    30    28    24    1
    31     9     3   ar
    32     1    29    1
    33     2    30    1
    34     4    31    1
    35     6    32    1
    36     6    33    1
    37     6    34    1
    38     8    35    1
    39    13    36    1
    40    18    37    1
    41    18    38    1
    42    19    39    1
    43    19    40    1
    44    21    41    1
    45    21    42    1
    46    21    43    1
    47    22    44    1
    48    22    45    1
    49    23    46    1
    50    23    47    1
    51    24    48    1
    52    25    49    1
    53    25    50    1
    54    26    51    1
    55    26    52    1
    56    27    53    1
    57    27    54    1
    58    28    55    1
    59    28    56    1
