
     RDKit          3D

 79 83  0  0  0  0  0  0  0  0999 V2000
    5.8393    3.5148   -0.0613 C   0  0  0  0  0  0  0  0  0  0  0  0
    5.9857    2.0284   -0.2598 C   0  0  1  0  0  0  0  0  0  0  0  0
    4.7105    1.4036    0.0046 N   0  0  0  0  0  0  0  0  0  0  0  0
    4.6697    0.2680    0.8517 C   0  0  0  0  0  0  0  0  0  0  0  0
    5.7658   -0.1419    1.3257 O   0  0  0  0  0  0  0  0  0  0  0  0
    3.4491   -0.4303    1.1918 C   0  0  0  0  0  0  0  0  0  0  0  0
    3.4995   -1.5731    1.9615 C   0  0  0  0  0  0  0  0  0  0  0  0
    2.3833   -2.2782    2.3407 C   0  0  0  0  0  0  0  0  0  0  0  0
    1.1300   -1.8084    1.9214 C   0  0  0  0  0  0  0  0  0  0  0  0
    1.0593   -0.6784    1.1589 C   0  0  0  0  0  0  0  0  0  0  0  0
   -0.2425   -0.1713    0.7582 C   0  0  0  0  0  0  0  0  0  0  0  0
   -0.5864    0.9852    1.1595 O   0  0  0  0  0  0  0  0  0  0  0  0
   -1.1460   -0.8693   -0.0422 N   0  0  0  0  0  0  0  0  0  0  0  0
   -2.4665   -0.2716   -0.4139 C   0  0  1  0  0  0  0  0  0  0  0  0
   -2.5823   -0.3350   -1.8919 C   0  0  0  0  0  0  0  0  0  0  0  0
   -3.7602    0.2040   -2.5454 C   0  0  0  0  0  0  0  0  0  0  0  0
   -3.8344    1.5574   -2.8517 C   0  0  0  0  0  0  0  0  0  0  0  0
   -4.9255    2.0541   -3.5114 C   0  0  0  0  0  0  0  0  0  0  0  0
   -5.9901    1.2654   -3.9037 C   0  0  0  0  0  0  0  0  0  0  0  0
   -5.8982   -0.0672   -3.5922 C   0  0  0  0  0  0  0  0  0  0  0  0
   -4.8114   -0.5962   -2.9280 C   0  0  0  0  0  0  0  0  0  0  0  0
   -3.5261   -0.9188    0.3995 C   0  0  2  0  0  0  0  0  0  0  0  0
   -3.6891   -2.2890    0.1651 O   0  0  0  0  0  0  0  0  0  0  0  0
   -4.8550   -0.2678    0.5263 C   0  0  0  0  0  0  0  0  0  0  0  0
   -4.7220    1.1519    0.7733 N   0  0  0  0  0  0  0  0  0  0  0  0
   -5.9527    1.8416    0.9926 C   0  0  0  0  0  0  0  0  0  0  0  0
   -6.8286    1.5715    2.1563 C   0  0  0  0  0  0  0  0  0  0  0  0
   -5.9554    2.8304    2.1302 C   0  0  0  0  0  0  0  0  0  0  0  0
    2.2267    0.0202    0.7874 C   0  0  0  0  0  0  0  0  0  0  0  0
   -0.2023   -2.3965    2.2036 C   0  0  0  0  0  0  0  0  0  0  0  0
   -0.1243   -3.1316    3.5479 C   0  0  0  0  0  0  0  0  0  0  0  0
    0.4245   -4.4923    3.2350 C   0  0  0  0  0  0  0  0  0  0  0  0
    1.8988   -4.5280    3.5068 C   0  0  0  0  0  0  0  0  0  0  0  0
    2.6002   -3.3943    3.1067 O   0  0  0  0  0  0  0  0  0  0  0  0
    6.5274    1.7553   -1.6001 C   0  0  0  0  0  0  0  0  0  0  0  0
    7.8467    1.3906   -1.8054 C   0  0  0  0  0  0  0  0  0  0  0  0
    8.3061    1.1339   -3.0864 C   0  0  0  0  0  0  0  0  0  0  0  0
    7.5064    1.2232   -4.2019 C   0  0  0  0  0  0  0  0  0  0  0  0
    6.1863    1.5899   -3.9837 C   0  0  0  0  0  0  0  0  0  0  0  0
    5.7196    1.8476   -2.7050 C   0  0  0  0  0  0  0  0  0  0  0  0
    5.4766    4.0165   -0.9933 H   0  0  0  0  0  0  0  0  0  0  0  0
    6.8585    3.9292    0.1436 H   0  0  0  0  0  0  0  0  0  0  0  0
    5.1044    3.7596    0.7309 H   0  0  0  0  0  0  0  0  0  0  0  0
    6.7739    1.6160    0.4525 H   0  0  0  0  0  0  0  0  0  0  0  0
    3.8587    1.7823   -0.4115 H   0  0  0  0  0  0  0  0  0  0  0  0
    4.4611   -1.9305    2.2808 H   0  0  0  0  0  0  0  0  0  0  0  0
   -0.9572   -1.8033   -0.4144 H   0  0  0  0  0  0  0  0  0  0  0  0
   -2.3916    0.7803   -0.0875 H   0  0  0  0  0  0  0  0  0  0  0  0
   -2.5146   -1.4384   -2.1636 H   0  0  0  0  0  0  0  0  0  0  0  0
   -1.6233    0.0697   -2.3430 H   0  0  0  0  0  0  0  0  0  0  0  0
   -3.0051    2.2237   -2.5633 H   0  0  0  0  0  0  0  0  0  0  0  0
   -5.0112    3.1162   -3.7640 H   0  0  0  0  0  0  0  0  0  0  0  0
   -6.8481    1.7040   -4.4336 H   0  0  0  0  0  0  0  0  0  0  0  0
   -6.7257   -0.7095   -3.8898 H   0  0  0  0  0  0  0  0  0  0  0  0
   -4.8074   -1.6788   -2.7118 H   0  0  0  0  0  0  0  0  0  0  0  0
   -3.0961   -0.8256    1.4835 H   0  0  0  0  0  0  0  0  0  0  0  0
   -4.0707   -2.7072    0.9814 H   0  0  0  0  0  0  0  0  0  0  0  0
   -5.5804   -0.4743   -0.2647 H   0  0  0  0  0  0  0  0  0  0  0  0
   -5.3387   -0.7649    1.4423 H   0  0  0  0  0  0  0  0  0  0  0  0
   -4.2082    1.5678   -0.0262 H   0  0  0  0  0  0  0  0  0  0  0  0
   -6.4777    2.2116    0.0657 H   0  0  0  0  0  0  0  0  0  0  0  0
   -7.9009    1.7450    2.0636 H   0  0  0  0  0  0  0  0  0  0  0  0
   -6.5511    0.8921    2.9795 H   0  0  0  0  0  0  0  0  0  0  0  0
   -5.0859    2.8893    2.8108 H   0  0  0  0  0  0  0  0  0  0  0  0
   -6.4702    3.8076    1.9728 H   0  0  0  0  0  0  0  0  0  0  0  0
    2.1128    0.8884    0.1900 H   0  0  0  0  0  0  0  0  0  0  0  0
   -1.0054   -1.6449    2.2871 H   0  0  0  0  0  0  0  0  0  0  0  0
   -0.4867   -3.1671    1.4678 H   0  0  0  0  0  0  0  0  0  0  0  0
   -1.1686   -3.2052    3.9041 H   0  0  0  0  0  0  0  0  0  0  0  0
    0.5210   -2.5246    4.1915 H   0  0  0  0  0  0  0  0  0  0  0  0
    0.2402   -4.7846    2.1676 H   0  0  0  0  0  0  0  0  0  0  0  0
   -0.0703   -5.2572    3.8953 H   0  0  0  0  0  0  0  0  0  0  0  0
    2.3713   -5.4246    3.0248 H   0  0  0  0  0  0  0  0  0  0  0  0
    2.0301   -4.6140    4.6274 H   0  0  0  0  0  0  0  0  0  0  0  0
    8.5314    1.3038   -0.9654 H   0  0  0  0  0  0  0  0  0  0  0  0
    9.3479    0.8419   -3.2307 H   0  0  0  0  0  0  0  0  0  0  0  0
    7.8672    1.0199   -5.2162 H   0  0  0  0  0  0  0  0  0  0  0  0
    5.5487    1.6617   -4.8632 H   0  0  0  0  0  0  0  0  0  0  0  0
    4.6552    2.1302   -2.6700 H   0  0  0  0  0  0  0  0  0  0  0  0
  1  2  1  0
  2  3  1  0
  3  4  1  0
  4  5  2  0
  4  6  1  0
  6  7  2  0
  7  8  1  0
  8  9  2  0
  9 10  1  0
 10 11  1  0
 11 12  2  0
 11 13  1  0
 13 14  1  0
 14 15  1  0
 15 16  1  0
 16 17  2  0
 17 18  1  0
 18 19  2  0
 19 20  1  0
 20 21  2  0
 14 22  1  0
 22 23  1  0
 22 24  1  0
 24 25  1  0
 25 26  1  0
 26 27  1  0
 27 28  1  0
 10 29  2  0
  9 30  1  0
 30 31  1  0
 31 32  1  0
 32 33  1  0
 33 34  1  0
  2 35  1  0
 35 36  2  0
 36 37  1  0
 37 38  2  0
 38 39  1  0
 39 40  2  0
 29  6  1  0
 40 35  1  0
 34  8  1  0
 21 16  1  0
 28 26  1  0
  1 41  1  0
  1 42  1  0
  1 43  1  0
  2 44  1  1
  3 45  1  0
  7 46  1  0
 13 47  1  0
 14 48  1  1
 15 49  1  0
 15 50  1  0
 17 51  1  0
 18 52  1  0
 19 53  1  0
 20 54  1  0
 21 55  1  0
 22 56  1  1
 23 57  1  0
 24 58  1  0
 24 59  1  0
 25 60  1  0
 26 61  1  0
 27 62  1  0
 27 63  1  0
 28 64  1  0
 28 65  1  0
 29 66  1  0
 30 67  1  0
 30 68  1  0
 31 69  1  0
 31 70  1  0
 32 71  1  0
 32 72  1  0
 33 73  1  0
 33 74  1  0
 36 75  1  0
 37 76  1  0
 38 77  1  0
 39 78  1  0
 40 79  1  0
M  END
$$$$
