@<TRIPOS>MOLECULE
*****
 79 83 0 0 0
SMALL
GASTEIGER

@<TRIPOS>ATOM
      1 C           5.8393    3.5148   -0.0613 C.3     1  UNL1       -0.0424
      2 C           5.9857    2.0284   -0.2598 C.3     1  UNL1        0.0458
      3 N           4.7105    1.4036    0.0046 N.am    1  UNL1       -0.3048
      4 C           4.6697    0.2680    0.8517 C.2     1  UNL1        0.2447
      5 O           5.7658   -0.1419    1.3257 O.2     1  UNL1       -0.2702
      6 C           3.4491   -0.4303    1.1918 C.ar    1  UNL1        0.0409
      7 C           3.4995   -1.5731    1.9615 C.ar    1  UNL1       -0.0075
      8 C           2.3833   -2.2782    2.3407 C.ar    1  UNL1        0.1251
      9 C           1.1300   -1.8084    1.9214 C.ar    1  UNL1        0.0064
     10 C           1.0593   -0.6784    1.1589 C.ar    1  UNL1        0.0440
     11 C          -0.2425   -0.1713    0.7582 C.2     1  UNL1        0.2448
     12 O          -0.5864    0.9852    1.1595 O.2     1  UNL1       -0.2702
     13 N          -1.1460   -0.8693   -0.0422 N.am    1  UNL1       -0.3057
     14 C          -2.4665   -0.2716   -0.4139 C.3     1  UNL1        0.0545
     15 C          -2.5823   -0.3350   -1.8919 C.3     1  UNL1       -0.0067
     16 C          -3.7602    0.2040   -2.5454 C.ar    1  UNL1       -0.0455
     17 C          -3.8344    1.5574   -2.8517 C.ar    1  UNL1       -0.0585
     18 C          -4.9255    2.0541   -3.5114 C.ar    1  UNL1       -0.0615
     19 C          -5.9901    1.2654   -3.9037 C.ar    1  UNL1       -0.0617
     20 C          -5.8982   -0.0672   -3.5922 C.ar    1  UNL1       -0.0615
     21 C          -4.8114   -0.5962   -2.9280 C.ar    1  UNL1       -0.0585
     22 C          -3.5261   -0.9188    0.3995 C.3     1  UNL1        0.0862
     23 O          -3.6891   -2.2890    0.1651 O.3     1  UNL1       -0.3887
     24 C          -4.8550   -0.2678    0.5263 C.3     1  UNL1        0.0240
     25 N          -4.7220    1.1519    0.7733 N.3     1  UNL1       -0.3107
     26 C          -5.9527    1.8416    0.9926 C.3     1  UNL1        0.0078
     27 C          -6.8286    1.5715    2.1563 C.3     1  UNL1       -0.0361
     28 C          -5.9554    2.8304    2.1302 C.3     1  UNL1       -0.0361
     29 C           2.2267    0.0202    0.7874 C.ar    1  UNL1       -0.0370
     30 C          -0.2023   -2.3965    2.2036 C.3     1  UNL1       -0.0234
     31 C          -0.1243   -3.1316    3.5479 C.3     1  UNL1       -0.0459
     32 C           0.4245   -4.4923    3.2350 C.3     1  UNL1       -0.0183
     33 C           1.8988   -4.5280    3.5068 C.3     1  UNL1        0.0896
     34 O           2.6002   -3.3943    3.1067 O.3     1  UNL1       -0.4916
     35 C           6.5274    1.7553   -1.6001 C.ar    1  UNL1       -0.0275
     36 C           7.8467    1.3906   -1.8054 C.ar    1  UNL1       -0.0568
     37 C           8.3061    1.1339   -3.0864 C.ar    1  UNL1       -0.0614
     38 C           7.5064    1.2232   -4.2019 C.ar    1  UNL1       -0.0617
     39 C           6.1863    1.5899   -3.9837 C.ar    1  UNL1       -0.0614
     40 C           5.7196    1.8476   -2.7050 C.ar    1  UNL1       -0.0568
     41 H           5.4766    4.0165   -0.9933 H       1  UNL1        0.0251
     42 H           6.8585    3.9292    0.1436 H       1  UNL1        0.0251
     43 H           5.1044    3.7596    0.7309 H       1  UNL1        0.0251
     44 H           6.7739    1.6160    0.4525 H       1  UNL1        0.0545
     45 H           3.8587    1.7823   -0.4115 H       1  UNL1        0.1496
     46 H           4.4611   -1.9305    2.2808 H       1  UNL1        0.0662
     47 H          -0.9572   -1.8033   -0.4144 H       1  UNL1        0.1494
     48 H          -2.3916    0.7803   -0.0875 H       1  UNL1        0.0527
     49 H          -2.5146   -1.4384   -2.1636 H       1  UNL1        0.0332
     50 H          -1.6233    0.0697   -2.3430 H       1  UNL1        0.0332
     51 H          -3.0051    2.2237   -2.5633 H       1  UNL1        0.0620
     52 H          -5.0112    3.1162   -3.7640 H       1  UNL1        0.0618
     53 H          -6.8481    1.7040   -4.4336 H       1  UNL1        0.0618
     54 H          -6.7257   -0.7095   -3.8898 H       1  UNL1        0.0618
     55 H          -4.8074   -1.6788   -2.7118 H       1  UNL1        0.0620
     56 H          -3.0961   -0.8256    1.4835 H       1  UNL1        0.0624
     57 H          -4.0707   -2.7072    0.9814 H       1  UNL1        0.2099
     58 H          -5.5804   -0.4743   -0.2647 H       1  UNL1        0.0450
     59 H          -5.3387   -0.7649    1.4423 H       1  UNL1        0.0450
     60 H          -4.2082    1.5678   -0.0262 H       1  UNL1        0.1223
     61 H          -6.4777    2.2116    0.0657 H       1  UNL1        0.0460
     62 H          -7.9009    1.7450    2.0636 H       1  UNL1        0.0281
     63 H          -6.5511    0.8921    2.9795 H       1  UNL1        0.0281
     64 H          -5.0859    2.8893    2.8108 H       1  UNL1        0.0281
     65 H          -6.4702    3.8076    1.9728 H       1  UNL1        0.0281
     66 H           2.1128    0.8884    0.1900 H       1  UNL1        0.0633
     67 H          -1.0054   -1.6449    2.2871 H       1  UNL1        0.0315
     68 H          -0.4867   -3.1671    1.4678 H       1  UNL1        0.0315
     69 H          -1.1686   -3.2052    3.9041 H       1  UNL1        0.0269
     70 H           0.5210   -2.5246    4.1915 H       1  UNL1        0.0269
     71 H           0.2402   -4.7846    2.1676 H       1  UNL1        0.0298
     72 H          -0.0703   -5.2572    3.8953 H       1  UNL1        0.0298
     73 H           2.3713   -5.4246    3.0248 H       1  UNL1        0.0696
     74 H           2.0301   -4.6140    4.6274 H       1  UNL1        0.0696
     75 H           8.5314    1.3038   -0.9654 H       1  UNL1        0.0621
     76 H           9.3479    0.8419   -3.2307 H       1  UNL1        0.0618
     77 H           7.8672    1.0199   -5.2162 H       1  UNL1        0.0618
     78 H           5.5487    1.6617   -4.8632 H       1  UNL1        0.0618
     79 H           4.6552    2.1302   -2.6700 H       1  UNL1        0.0621
@<TRIPOS>BOND
     1     1     2    1
     2     2     3    1
     3     3     4   am
     4     4     5    2
     5     4     6    1
     6     6     7   ar
     7     7     8   ar
     8     8     9   ar
     9     9    10   ar
    10    10    11    1
    11    11    12    2
    12    11    13   am
    13    13    14    1
    14    14    15    1
    15    15    16    1
    16    16    17   ar
    17    17    18   ar
    18    18    19   ar
    19    19    20   ar
    20    20    21   ar
    21    14    22    1
    22    22    23    1
    23    22    24    1
    24    24    25    1
    25    25    26    1
    26    26    27    1
    27    27    28    1
    28    10    29   ar
    29     9    30    1
    30    30    31    1
    31    31    32    1
    32    32    33    1
    33    33    34    1
    34     2    35    1
    35    35    36   ar
    36    36    37   ar
    37    37    38   ar
    38    38    39   ar
    39    39    40   ar
    40    29     6   ar
    41    40    35   ar
    42    34     8    1
    43    21    16   ar
    44    28    26    1
    45     1    41    1
    46     1    42    1
    47     1    43    1
    48     2    44    1
    49     3    45    1
    50     7    46    1
    51    13    47    1
    52    14    48    1
    53    15    49    1
    54    15    50    1
    55    17    51    1
    56    18    52    1
    57    19    53    1
    58    20    54    1
    59    21    55    1
    60    22    56    1
    61    23    57    1
    62    24    58    1
    63    24    59    1
    64    25    60    1
    65    26    61    1
    66    27    62    1
    67    27    63    1
    68    28    64    1
    69    28    65    1
    70    29    66    1
    71    30    67    1
    72    30    68    1
    73    31    69    1
    74    31    70    1
    75    32    71    1
    76    32    72    1
    77    33    73    1
    78    33    74    1
    79    36    75    1
    80    37    76    1
    81    38    77    1
    82    39    78    1
    83    40    79    1
