
     RDKit          3D

 43 45  0  0  0  0  0  0  0  0999 V2000
    3.4166   -0.2465   -2.3435 O   0  0  0  0  0  0  0  0  0  0  0  0
    3.4107   -0.1588   -1.1005 C   0  0  0  0  0  0  0  0  0  0  0  0
    2.1305   -0.0390   -0.3628 C   0  0  0  0  0  0  0  0  0  0  0  0
    0.9714   -0.0474   -1.3235 C   0  0  0  0  0  0  0  0  0  0  0  0
   -0.2986    0.0615   -0.7274 N   0  0  0  0  0  0  0  0  0  0  0  0
   -0.6181    1.3077   -0.1098 C   0  0  0  0  0  0  0  0  0  0  0  0
   -2.1236    1.2918    0.0535 C   0  0  0  0  0  0  0  0  0  0  0  0
   -2.8516    0.2067   -0.0228 C   0  0  0  0  0  0  0  0  0  0  0  0
   -4.3085    0.2040    0.1358 C   0  0  0  0  0  0  0  0  0  0  0  0
   -5.0833   -0.9469    0.0000 C   0  0  0  0  0  0  0  0  0  0  0  0
   -6.4492   -0.9258    0.1657 C   0  0  0  0  0  0  0  0  0  0  0  0
   -7.0980    0.2474    0.4738 C   0  0  0  0  0  0  0  0  0  0  0  0
   -8.4396    0.2609    0.6352 F   0  0  0  0  0  0  0  0  0  0  0  0
   -6.3562    1.4182    0.6170 C   0  0  0  0  0  0  0  0  0  0  0  0
   -4.9699    1.3637    0.4427 C   0  0  0  0  0  0  0  0  0  0  0  0
   -2.2661   -1.1647   -0.2702 C   0  0  0  0  0  0  0  0  0  0  0  0
   -0.7806   -1.0716   -0.0226 C   0  0  0  0  0  0  0  0  0  0  0  0
    4.6658   -0.1738   -0.3658 C   0  0  0  0  0  0  0  0  0  0  0  0
    5.8923   -0.2828   -1.0072 C   0  0  0  0  0  0  0  0  0  0  0  0
    7.0766   -0.2976   -0.3104 C   0  0  0  0  0  0  0  0  0  0  0  0
    7.0772   -0.2025    1.0733 C   0  0  0  0  0  0  0  0  0  0  0  0
    8.6884   -0.2188    2.0821 Br  0  0  0  0  0  0  0  0  0  0  0  0
    5.8774   -0.0934    1.7350 C   0  0  0  0  0  0  0  0  0  0  0  0
    4.6891   -0.0801    1.0151 C   0  0  0  0  0  0  0  0  0  0  0  0
    2.1567    0.9247    0.1848 H   0  0  0  0  0  0  0  0  0  0  0  0
    2.0817   -0.8942    0.3374 H   0  0  0  0  0  0  0  0  0  0  0  0
    1.1224    0.7749   -2.0539 H   0  0  0  0  0  0  0  0  0  0  0  0
    1.0165   -1.0049   -1.8918 H   0  0  0  0  0  0  0  0  0  0  0  0
   -0.3393    2.1348   -0.7602 H   0  0  0  0  0  0  0  0  0  0  0  0
   -0.2146    1.4513    0.8964 H   0  0  0  0  0  0  0  0  0  0  0  0
   -2.5928    2.2353    0.2392 H   0  0  0  0  0  0  0  0  0  0  0  0
   -4.5769   -1.8592   -0.2481 H   0  0  0  0  0  0  0  0  0  0  0  0
   -7.0371   -1.8172    0.0597 H   0  0  0  0  0  0  0  0  0  0  0  0
   -6.8692    2.3322    0.8577 H   0  0  0  0  0  0  0  0  0  0  0  0
   -4.4595    2.2948    0.5676 H   0  0  0  0  0  0  0  0  0  0  0  0
   -2.4909   -1.3943   -1.3282 H   0  0  0  0  0  0  0  0  0  0  0  0
   -2.7419   -1.8999    0.4187 H   0  0  0  0  0  0  0  0  0  0  0  0
   -0.2411   -1.9764   -0.3784 H   0  0  0  0  0  0  0  0  0  0  0  0
   -0.6669   -0.9642    1.0959 H   0  0  0  0  0  0  0  0  0  0  0  0
    5.9051   -0.3571   -2.0790 H   0  0  0  0  0  0  0  0  0  0  0  0
    8.0492   -0.3818   -0.7884 H   0  0  0  0  0  0  0  0  0  0  0  0
    5.8810   -0.0193    2.8148 H   0  0  0  0  0  0  0  0  0  0  0  0
    3.7646    0.0082    1.5929 H   0  0  0  0  0  0  0  0  0  0  0  0
  1  2  2  0
  2  3  1  0
  3  4  1  0
  4  5  1  0
  5  6  1  0
  6  7  1  0
  7  8  2  0
  8  9  1  0
  9 10  2  0
 10 11  1  0
 11 12  2  0
 12 13  1  0
 12 14  1  0
 14 15  2  0
  8 16  1  0
 16 17  1  0
  2 18  1  0
 18 19  2  0
 19 20  1  0
 20 21  2  0
 21 22  1  0
 21 23  1  0
 23 24  2  0
 17  5  1  0
 24 18  1  0
 15  9  1  0
  3 25  1  0
  3 26  1  0
  4 27  1  0
  4 28  1  0
  6 29  1  0
  6 30  1  0
  7 31  1  0
 10 32  1  0
 11 33  1  0
 14 34  1  0
 15 35  1  0
 16 36  1  0
 16 37  1  0
 17 38  1  0
 17 39  1  0
 19 40  1  0
 20 41  1  0
 23 42  1  0
 24 43  1  0
M  END
$$$$
