@<TRIPOS>MOLECULE
*****
 43 45 0 0 0
SMALL
GASTEIGER

@<TRIPOS>ATOM
      1 O           3.4166   -0.2465   -2.3435 O.2     1  UNL1       -0.2920
      2 C           3.4107   -0.1588   -1.1005 C.2     1  UNL1        0.1644
      3 C           2.1305   -0.0390   -0.3628 C.3     1  UNL1        0.0232
      4 C           0.9714   -0.0474   -1.3235 C.3     1  UNL1        0.0062
      5 N          -0.2986    0.0615   -0.7274 N.3     1  UNL1       -0.2980
      6 C          -0.6181    1.3077   -0.1098 C.3     1  UNL1        0.0177
      7 C          -2.1236    1.2918    0.0535 C.2     1  UNL1       -0.0663
      8 C          -2.8516    0.2067   -0.0228 C.2     1  UNL1       -0.0417
      9 C          -4.3085    0.2040    0.1358 C.ar    1  UNL1       -0.0219
     10 C          -5.0833   -0.9469    0.0000 C.ar    1  UNL1       -0.0516
     11 C          -6.4492   -0.9258    0.1657 C.ar    1  UNL1       -0.0259
     12 C          -7.0980    0.2474    0.4738 C.ar    1  UNL1        0.1234
     13 F          -8.4396    0.2609    0.6352 F       1  UNL1       -0.2055
     14 C          -6.3562    1.4182    0.6170 C.ar    1  UNL1       -0.0259
     15 C          -4.9699    1.3637    0.4427 C.ar    1  UNL1       -0.0516
     16 C          -2.2661   -1.1647   -0.2702 C.3     1  UNL1       -0.0146
     17 C          -0.7806   -1.0716   -0.0226 C.3     1  UNL1        0.0032
     18 C           4.6658   -0.1738   -0.3658 C.ar    1  UNL1        0.0175
     19 C           5.8923   -0.2828   -1.0072 C.ar    1  UNL1       -0.0502
     20 C           7.0766   -0.2976   -0.3104 C.ar    1  UNL1       -0.0471
     21 C           7.0772   -0.2025    1.0733 C.ar    1  UNL1        0.0179
     22 BR          8.6884   -0.2188    2.0821 Br      1  UNL1       -0.0503
     23 C           5.8774   -0.0934    1.7350 C.ar    1  UNL1       -0.0471
     24 C           4.6891   -0.0801    1.0151 C.ar    1  UNL1       -0.0502
     25 H           2.1567    0.9247    0.1848 H       1  UNL1        0.0358
     26 H           2.0817   -0.8942    0.3374 H       1  UNL1        0.0358
     27 H           1.1224    0.7749   -2.0539 H       1  UNL1        0.0431
     28 H           1.0165   -1.0049   -1.8918 H       1  UNL1        0.0431
     29 H          -0.3393    2.1348   -0.7602 H       1  UNL1        0.0470
     30 H          -0.2146    1.4513    0.8964 H       1  UNL1        0.0470
     31 H          -2.5928    2.2353    0.2392 H       1  UNL1        0.0588
     32 H          -4.5769   -1.8592   -0.2481 H       1  UNL1        0.0624
     33 H          -7.0371   -1.8172    0.0597 H       1  UNL1        0.0646
     34 H          -6.8692    2.3322    0.8577 H       1  UNL1        0.0646
     35 H          -4.4595    2.2948    0.5676 H       1  UNL1        0.0624
     36 H          -2.4909   -1.3943   -1.3282 H       1  UNL1        0.0326
     37 H          -2.7419   -1.8999    0.4187 H       1  UNL1        0.0326
     38 H          -0.2411   -1.9764   -0.3784 H       1  UNL1        0.0430
     39 H          -0.6669   -0.9642    1.0959 H       1  UNL1        0.0430
     40 H           5.9051   -0.3571   -2.0790 H       1  UNL1        0.0625
     41 H           8.0492   -0.3818   -0.7884 H       1  UNL1        0.0629
     42 H           5.8810   -0.0193    2.8148 H       1  UNL1        0.0629
     43 H           3.7646    0.0082    1.5929 H       1  UNL1        0.0625
@<TRIPOS>BOND
     1     1     2    2
     2     2     3    1
     3     3     4    1
     4     4     5    1
     5     5     6    1
     6     6     7    1
     7     7     8    2
     8     8     9    1
     9     9    10   ar
    10    10    11   ar
    11    11    12   ar
    12    12    13    1
    13    12    14   ar
    14    14    15   ar
    15     8    16    1
    16    16    17    1
    17     2    18    1
    18    18    19   ar
    19    19    20   ar
    20    20    21   ar
    21    21    22    1
    22    21    23   ar
    23    23    24   ar
    24    17     5    1
    25    24    18   ar
    26    15     9   ar
    27     3    25    1
    28     3    26    1
    29     4    27    1
    30     4    28    1
    31     6    29    1
    32     6    30    1
    33     7    31    1
    34    10    32    1
    35    11    33    1
    36    14    34    1
    37    15    35    1
    38    16    36    1
    39    16    37    1
    40    17    38    1
    41    17    39    1
    42    19    40    1
    43    20    41    1
    44    23    42    1
    45    24    43    1
