
     RDKit          3D

 43 45  0  0  0  0  0  0  0  0999 V2000
    3.1332    2.4867   -0.7051 C   0  0  0  0  0  0  0  0  0  0  0  0
    3.8359    1.2614   -0.2694 C   0  0  0  0  0  0  0  0  0  0  0  0
    5.0535    1.3570    0.3322 C   0  0  0  0  0  0  0  0  0  0  0  0
    5.7658    0.2574    0.7663 C   0  0  0  0  0  0  0  0  0  0  0  0
    7.0516    0.3970    1.3999 C   0  0  0  0  0  0  0  0  0  0  0  0
    8.0878    0.5147    1.9298 N   0  0  0  0  0  0  0  0  0  0  0  0
    5.1619   -0.9656    0.5514 C   0  0  0  0  0  0  0  0  0  0  0  0
    3.9341   -1.0903   -0.0534 C   0  0  0  0  0  0  0  0  0  0  0  0
    3.3520   -2.4426   -0.2493 C   0  0  0  0  0  0  0  0  0  0  0  0
    3.2400    0.0255   -0.4797 C   0  0  0  0  0  0  0  0  0  0  0  0
    2.0267   -0.1132   -1.0796 O   0  0  0  0  0  0  0  0  0  0  0  0
    0.7686   -0.1151   -0.4723 C   0  0  0  0  0  0  0  0  0  0  0  0
   -0.3372   -0.2528   -1.2139 N   0  0  0  0  0  0  0  0  0  0  0  0
   -1.5638   -0.2571   -0.6635 C   0  0  0  0  0  0  0  0  0  0  0  0
   -2.7064   -0.4205   -1.4783 N   0  0  0  0  0  0  0  0  0  0  0  0
   -4.0628   -0.2997   -1.1003 C   0  0  0  0  0  0  0  0  0  0  0  0
   -5.0469   -0.7388   -2.0047 C   0  0  0  0  0  0  0  0  0  0  0  0
   -6.3788   -0.6440   -1.7650 C   0  0  0  0  0  0  0  0  0  0  0  0
   -6.8057   -0.0897   -0.5740 C   0  0  0  0  0  0  0  0  0  0  0  0
   -8.1989    0.0358   -0.3134 C   0  0  0  0  0  0  0  0  0  0  0  0
   -9.3422    0.1386   -0.0787 N   0  0  0  0  0  0  0  0  0  0  0  0
   -5.8794    0.3453    0.3255 C   0  0  0  0  0  0  0  0  0  0  0  0
   -4.5000    0.2453    0.0720 C   0  0  0  0  0  0  0  0  0  0  0  0
   -1.6953   -0.1210    0.6665 N   0  0  0  0  0  0  0  0  0  0  0  0
   -0.6263    0.0199    1.4616 C   0  0  0  0  0  0  0  0  0  0  0  0
   -0.7785    0.1628    2.8904 N   0  0  0  0  0  0  0  0  0  0  0  0
    0.6263    0.0235    0.8866 C   0  0  0  0  0  0  0  0  0  0  0  0
    2.1345    0.2238    2.0428 Br  0  0  0  0  0  0  0  0  0  0  0  0
    3.2806    3.3088    0.0476 H   0  0  0  0  0  0  0  0  0  0  0  0
    3.5137    2.8884   -1.6700 H   0  0  0  0  0  0  0  0  0  0  0  0
    2.0462    2.2843   -0.7182 H   0  0  0  0  0  0  0  0  0  0  0  0
    5.5133    2.3459    0.4901 H   0  0  0  0  0  0  0  0  0  0  0  0
    5.7349   -1.8392    0.9012 H   0  0  0  0  0  0  0  0  0  0  0  0
    3.4765   -3.0420    0.6777 H   0  0  0  0  0  0  0  0  0  0  0  0
    3.8947   -3.0094   -1.0585 H   0  0  0  0  0  0  0  0  0  0  0  0
    2.2597   -2.3946   -0.4614 H   0  0  0  0  0  0  0  0  0  0  0  0
   -2.4801   -0.6645   -2.4990 H   0  0  0  0  0  0  0  0  0  0  0  0
   -4.7010   -1.1735   -2.9384 H   0  0  0  0  0  0  0  0  0  0  0  0
   -7.1395   -0.9898   -2.4776 H   0  0  0  0  0  0  0  0  0  0  0  0
   -6.1412    0.7876    1.2756 H   0  0  0  0  0  0  0  0  0  0  0  0
   -3.7979    0.6136    0.8142 H   0  0  0  0  0  0  0  0  0  0  0  0
   -1.6374    0.6508    3.2374 H   0  0  0  0  0  0  0  0  0  0  0  0
   -0.0722   -0.1984    3.5550 H   0  0  0  0  0  0  0  0  0  0  0  0
  1  2  1  0
  2  3  2  0
  3  4  1  0
  4  5  1  0
  5  6  3  0
  4  7  2  0
  7  8  1  0
  8  9  1  0
  8 10  2  0
 10 11  1  0
 11 12  1  0
 12 13  2  0
 13 14  1  0
 14 15  1  0
 15 16  1  0
 16 17  2  0
 17 18  1  0
 18 19  2  0
 19 20  1  0
 20 21  3  0
 19 22  1  0
 22 23  2  0
 14 24  2  0
 24 25  1  0
 25 26  1  0
 25 27  2  0
 27 28  1  0
 10  2  1  0
 27 12  1  0
 23 16  1  0
  1 29  1  0
  1 30  1  0
  1 31  1  0
  3 32  1  0
  7 33  1  0
  9 34  1  0
  9 35  1  0
  9 36  1  0
 15 37  1  0
 17 38  1  0
 18 39  1  0
 22 40  1  0
 23 41  1  0
 26 42  1  0
 26 43  1  0
M  END
$$$$
