@<TRIPOS>MOLECULE
*****
 43 45 0 0 0
SMALL
GASTEIGER

@<TRIPOS>ATOM
      1 C           3.1332    2.4867   -0.7051 C.3     1  UNL1       -0.0362
      2 C           3.8359    1.2614   -0.2694 C.ar    1  UNL1       -0.0066
      3 C           5.0535    1.3570    0.3322 C.ar    1  UNL1       -0.0379
      4 C           5.7658    0.2574    0.7663 C.ar    1  UNL1        0.0525
      5 C           7.0516    0.3970    1.3999 C.1     1  UNL1        0.0992
      6 N           8.0878    0.5147    1.9298 N.1     1  UNL1       -0.1909
      7 C           5.1619   -0.9656    0.5514 C.ar    1  UNL1       -0.0379
      8 C           3.9341   -1.0903   -0.0534 C.ar    1  UNL1       -0.0066
      9 C           3.3520   -2.4426   -0.2493 C.3     1  UNL1       -0.0362
     10 C           3.2400    0.0255   -0.4797 C.ar    1  UNL1        0.1363
     11 O           2.0267   -0.1132   -1.0796 O.3     1  UNL1       -0.4362
     12 C           0.7686   -0.1151   -0.4723 C.ar    1  UNL1        0.2409
     13 N          -0.3372   -0.2528   -1.2139 N.ar    1  UNL1       -0.1778
     14 C          -1.5638   -0.2571   -0.6635 C.ar    1  UNL1        0.2243
     15 N          -2.7064   -0.4205   -1.4783 N.pl3   1  UNL1       -0.2835
     16 C          -4.0628   -0.2997   -1.1003 C.ar    1  UNL1        0.0337
     17 C          -5.0469   -0.7388   -2.0047 C.ar    1  UNL1       -0.0393
     18 C          -6.3788   -0.6440   -1.7650 C.ar    1  UNL1       -0.0426
     19 C          -6.8057   -0.0897   -0.5740 C.ar    1  UNL1        0.0519
     20 C          -8.1989    0.0358   -0.3134 C.1     1  UNL1        0.0992
     21 N          -9.3422    0.1386   -0.0787 N.1     1  UNL1       -0.1909
     22 C          -5.8794    0.3453    0.3255 C.ar    1  UNL1       -0.0426
     23 C          -4.5000    0.2453    0.0720 C.ar    1  UNL1       -0.0393
     24 N          -1.6953   -0.1210    0.6665 N.ar    1  UNL1       -0.1983
     25 C          -0.6263    0.0199    1.4616 C.ar    1  UNL1        0.1391
     26 N          -0.7785    0.1628    2.8904 N.pl3   1  UNL1       -0.3420
     27 C           0.6263    0.0235    0.8866 C.ar    1  UNL1        0.1192
     28 BR          2.1345    0.2238    2.0428 Br      1  UNL1       -0.0412
     29 H           3.2806    3.3088    0.0476 H       1  UNL1        0.0279
     30 H           3.5137    2.8884   -1.6700 H       1  UNL1        0.0279
     31 H           2.0462    2.2843   -0.7182 H       1  UNL1        0.0279
     32 H           5.5133    2.3459    0.4901 H       1  UNL1        0.0634
     33 H           5.7349   -1.8392    0.9012 H       1  UNL1        0.0634
     34 H           3.4765   -3.0420    0.6777 H       1  UNL1        0.0279
     35 H           3.8947   -3.0094   -1.0585 H       1  UNL1        0.0279
     36 H           2.2597   -2.3946   -0.4614 H       1  UNL1        0.0279
     37 H          -2.4801   -0.6645   -2.4990 H       1  UNL1        0.1550
     38 H          -4.7010   -1.1735   -2.9384 H       1  UNL1        0.0636
     39 H          -7.1395   -0.9898   -2.4776 H       1  UNL1        0.0631
     40 H          -6.1412    0.7876    1.2756 H       1  UNL1        0.0631
     41 H          -3.7979    0.6136    0.8142 H       1  UNL1        0.0636
     42 H          -1.6374    0.6508    3.2374 H       1  UNL1        0.1437
     43 H          -0.0722   -0.1984    3.5550 H       1  UNL1        0.1437
@<TRIPOS>BOND
     1     1     2    1
     2     2     3   ar
     3     3     4   ar
     4     4     5    1
     5     5     6    3
     6     4     7   ar
     7     7     8   ar
     8     8     9    1
     9     8    10   ar
    10    10    11    1
    11    11    12    1
    12    12    13   ar
    13    13    14   ar
    14    14    15    1
    15    15    16    1
    16    16    17   ar
    17    17    18   ar
    18    18    19   ar
    19    19    20    1
    20    20    21    3
    21    19    22   ar
    22    22    23   ar
    23    14    24   ar
    24    24    25   ar
    25    25    26    1
    26    25    27   ar
    27    27    28    1
    28    10     2   ar
    29    27    12   ar
    30    23    16   ar
    31     1    29    1
    32     1    30    1
    33     1    31    1
    34     3    32    1
    35     7    33    1
    36     9    34    1
    37     9    35    1
    38     9    36    1
    39    15    37    1
    40    17    38    1
    41    18    39    1
    42    22    40    1
    43    23    41    1
    44    26    42    1
    45    26    43    1
