@<TRIPOS>MOLECULE
*****
 63 66 0 0 0
SMALL
GASTEIGER

@<TRIPOS>ATOM
      1 C          -0.7055    4.7479    0.0377 C.3     1  UNL1       -0.0306
      2 C           0.6743    4.1842    0.2373 C.3     1  UNL1        0.0897
      3 O           0.7062    2.7948    0.3826 O.3     1  UNL1       -0.4645
      4 C           0.2581    1.8979   -0.5699 C.2     1  UNL1        0.3149
      5 O          -0.1986    2.4455   -1.6186 O.2     1  UNL1       -0.2502
      6 C           0.2838    0.4229   -0.4337 C.3     1  UNL1        0.0853
      7 C          -0.4830    0.0246    0.8177 C.3     1  UNL1       -0.0107
      8 C          -1.8911    0.4602    0.7700 C.ar    1  UNL1       -0.0457
      9 C          -2.8254   -0.4114    0.2182 C.ar    1  UNL1       -0.0508
     10 C          -4.1774   -0.1237    0.1140 C.ar    1  UNL1       -0.0173
     11 C          -4.6327    1.1010    0.5845 C.ar    1  UNL1       -0.0178
     12 C          -3.7330    1.9866    1.1367 C.ar    1  UNL1       -0.0538
     13 C          -2.4066    1.6572    1.2177 C.ar    1  UNL1       -0.0580
     14 C          -5.9788    1.3815    0.4782 C.ar    1  UNL1       -0.0537
     15 C          -6.8979    0.5163   -0.0682 C.ar    1  UNL1       -0.0552
     16 C          -6.4184   -0.6926   -0.5274 C.ar    1  UNL1       -0.0160
     17 C          -5.0693   -0.9983   -0.4319 C.ar    1  UNL1       -0.0481
     18 C          -7.3586   -1.6590   -1.1228 C.3     1  UNL1        0.0799
     19 N          -8.2891   -1.0313   -2.0622 N.3     1  UNL1       -0.3120
     20 N          -8.1323   -2.2690   -0.0430 N.3     1  UNL1       -0.3120
     21 C           1.7012    0.0131   -0.2496 C.ar    1  UNL1       -0.0332
     22 C           2.3230   -0.8366   -1.1398 C.ar    1  UNL1       -0.0543
     23 C           3.6271   -1.2333   -0.9982 C.ar    1  UNL1       -0.0196
     24 C           4.3869   -0.7912    0.0603 C.ar    1  UNL1        0.1210
     25 O           5.6887   -1.0060    0.4643 O.3     1  UNL1       -0.4875
     26 C           6.5327   -1.8271   -0.2624 C.3     1  UNL1        0.1137
     27 C           7.0852   -2.9846    0.5653 C.3     1  UNL1       -0.0020
     28 C           8.2489   -3.3832   -0.3490 C.3     1  UNL1       -0.0006
     29 N           8.9019   -2.0672   -0.4435 N.3     1  UNL1       -0.3124
     30 C           7.8234   -1.1487   -0.6734 C.3     1  UNL1        0.0330
     31 C           3.7726    0.0686    0.9694 C.ar    1  UNL1       -0.0196
     32 C           2.4418    0.4689    0.8184 C.ar    1  UNL1       -0.0543
     33 H          -1.4141    4.0635   -0.4495 H       1  UNL1        0.0262
     34 H          -0.6021    5.6662   -0.5845 H       1  UNL1        0.0262
     35 H          -1.1368    4.9582    1.0428 H       1  UNL1        0.0262
     36 H           1.3702    4.5471   -0.5606 H       1  UNL1        0.0694
     37 H           1.0858    4.6130    1.1845 H       1  UNL1        0.0694
     38 H          -0.1745   -0.0215   -1.3174 H       1  UNL1        0.0466
     39 H           0.0141    0.4293    1.7165 H       1  UNL1        0.0324
     40 H          -0.4732   -1.0773    0.9429 H       1  UNL1        0.0324
     41 H          -2.4874   -1.3678   -0.1523 H       1  UNL1        0.0626
     42 H          -4.0834    2.9307    1.4995 H       1  UNL1        0.0624
     43 H          -1.6915    2.3467    1.6503 H       1  UNL1        0.0620
     44 H          -6.2916    2.3458    0.8565 H       1  UNL1        0.0624
     45 H          -7.9484    0.7594   -0.1403 H       1  UNL1        0.0621
     46 H          -4.6768   -1.9449   -0.7886 H       1  UNL1        0.0627
     47 H          -6.7866   -2.4477   -1.6410 H       1  UNL1        0.0676
     48 H          -7.7751   -0.3852   -2.7012 H       1  UNL1        0.1199
     49 H          -8.7413   -1.7619   -2.6288 H       1  UNL1        0.1199
     50 H          -8.5229   -1.4856    0.5111 H       1  UNL1        0.1199
     51 H          -8.8364   -2.9474   -0.4079 H       1  UNL1        0.1199
     52 H           1.8073   -1.2356   -2.0017 H       1  UNL1        0.0622
     53 H           4.1908   -1.8899   -1.6405 H       1  UNL1        0.0654
     54 H           6.0976   -2.2830   -1.1625 H       1  UNL1        0.0746
     55 H           6.3636   -3.7977    0.6999 H       1  UNL1        0.0314
     56 H           7.5491   -2.6239    1.4985 H       1  UNL1        0.0314
     57 H           7.8444   -3.6309   -1.3423 H       1  UNL1        0.0425
     58 H           8.9004   -4.1462    0.0943 H       1  UNL1        0.0425
     59 H           9.2448   -1.8918    0.5416 H       1  UNL1        0.1221
     60 H           7.9949   -0.2234   -0.0817 H       1  UNL1        0.0460
     61 H           7.8094   -0.8627   -1.7604 H       1  UNL1        0.0460
     62 H           4.1959    0.5245    1.8630 H       1  UNL1        0.0654
     63 H           1.9158    1.1316    1.4905 H       1  UNL1        0.0622
@<TRIPOS>BOND
     1     1     2    1
     2     2     3    1
     3     3     4    1
     4     4     5    2
     5     4     6    1
     6     6     7    1
     7     7     8    1
     8     8     9   ar
     9     9    10   ar
    10    10    11   ar
    11    11    12   ar
    12    12    13   ar
    13    11    14   ar
    14    14    15   ar
    15    15    16   ar
    16    16    17   ar
    17    16    18    1
    18    18    19    1
    19    18    20    1
    20     6    21    1
    21    21    22   ar
    22    22    23   ar
    23    23    24   ar
    24    24    25    1
    25    25    26    1
    26    26    27    1
    27    27    28    1
    28    28    29    1
    29    29    30    1
    30    24    31   ar
    31    31    32   ar
    32    13     8   ar
    33    32    21   ar
    34    17    10   ar
    35    30    26    1
    36     1    33    1
    37     1    34    1
    38     1    35    1
    39     2    36    1
    40     2    37    1
    41     6    38    1
    42     7    39    1
    43     7    40    1
    44     9    41    1
    45    12    42    1
    46    13    43    1
    47    14    44    1
    48    15    45    1
    49    17    46    1
    50    18    47    1
    51    19    48    1
    52    19    49    1
    53    20    50    1
    54    20    51    1
    55    22    52    1
    56    23    53    1
    57    26    54    1
    58    27    55    1
    59    27    56    1
    60    28    57    1
    61    28    58    1
    62    29    59    1
    63    30    60    1
    64    30    61    1
    65    31    62    1
    66    32    63    1
