@<TRIPOS>MOLECULE
*****
 46 49 0 0 0
SMALL
GASTEIGER

@<TRIPOS>ATOM
      1 N           5.6863   -0.0773    1.6845 N.am    1  UNL1       -0.3241
      2 C           4.2936   -0.0199    1.3997 C.2     1  UNL1        0.2599
      3 O           3.5210    0.2156    2.3370 O.2     1  UNL1       -0.2687
      4 C           3.7940   -0.2313    0.0487 C.ar    1  UNL1        0.1280
      5 C           4.5646   -0.5063   -1.0830 C.ar    1  UNL1        0.0588
      6 N           3.7199   -0.6279   -2.1103 N.ar    1  UNL1       -0.2353
      7 C           2.4519   -0.4472   -1.7066 C.ar    1  UNL1        0.1381
      8 C           1.2390   -0.4729   -2.3886 C.ar    1  UNL1       -0.0182
      9 C           0.0806   -0.2448   -1.6854 C.ar    1  UNL1       -0.0477
     10 C           0.1876   -0.0016   -0.3321 C.ar    1  UNL1        0.0173
     11 C          -1.0075    0.2465    0.4890 C.ar    1  UNL1        0.0778
     12 C          -1.9639   -0.6807    0.7962 C.ar    1  UNL1        0.0967
     13 C          -2.0876   -2.0812    0.4325 C.ar    1  UNL1        0.0026
     14 C          -2.3922   -2.4981   -0.8329 C.ar    1  UNL1       -0.0498
     15 C          -2.5027   -3.8396   -1.1734 C.ar    1  UNL1       -0.0258
     16 C          -2.3015   -4.8050   -0.2125 C.ar    1  UNL1        0.1234
     17 F          -2.4057   -6.1226   -0.5292 F       1  UNL1       -0.2055
     18 C          -1.9929   -4.3748    1.0690 C.ar    1  UNL1       -0.0258
     19 C          -1.8839   -3.0485    1.4041 C.ar    1  UNL1       -0.0498
     20 N          -2.8619   -0.0095    1.5671 N.ar    1  UNL1       -0.2351
     21 C          -2.4705    1.2646    1.7212 C.ar    1  UNL1        0.0971
     22 N          -1.3329    1.4304    1.0626 N.ar    1  UNL1       -0.3295
     23 C          -0.5761    2.6807    0.9807 C.3     1  UNL1        0.0268
     24 C          -1.0271    3.4985   -0.2126 C.3     1  UNL1       -0.0116
     25 C          -2.5069    3.8421   -0.1018 C.3     1  UNL1        0.0458
     26 O          -2.7699    4.5870    1.0558 O.3     1  UNL1       -0.3949
     27 C           1.3921    0.0236    0.3431 C.ar    1  UNL1        0.0211
     28 N           2.5195   -0.2055   -0.3802 N.ar    1  UNL1       -0.2949
     29 H           6.0824    0.4443    2.4840 H       1  UNL1        0.1453
     30 H           6.3410   -0.6496    1.0896 H       1  UNL1        0.1453
     31 H           5.6545   -0.5932   -1.0629 H       1  UNL1        0.0853
     32 H           1.2677   -0.6726   -3.4458 H       1  UNL1        0.0654
     33 H          -0.8504   -0.2568   -2.1922 H       1  UNL1        0.0626
     34 H          -2.5658   -1.7892   -1.6281 H       1  UNL1        0.0625
     35 H          -2.7418   -4.1643   -2.1646 H       1  UNL1        0.0646
     36 H          -1.8293   -5.1085    1.8446 H       1  UNL1        0.0646
     37 H          -1.6429   -2.7062    2.4049 H       1  UNL1        0.0625
     38 H          -2.9894    2.0480    2.2903 H       1  UNL1        0.1029
     39 H          -0.6890    3.2741    1.9104 H       1  UNL1        0.0493
     40 H           0.4896    2.3909    0.9002 H       1  UNL1        0.0493
     41 H          -0.4223    4.4233   -0.2186 H       1  UNL1        0.0304
     42 H          -0.9254    2.9083   -1.1463 H       1  UNL1        0.0304
     43 H          -2.7604    4.5047   -0.9564 H       1  UNL1        0.0558
     44 H          -3.1420    2.9520   -0.1906 H       1  UNL1        0.0558
     45 H          -2.0547    5.2809    1.0925 H       1  UNL1        0.2094
     46 H           1.4113    0.2197    1.4052 H       1  UNL1        0.0820
@<TRIPOS>BOND
     1     1     2   am
     2     2     3    2
     3     2     4    1
     4     4     5   ar
     5     5     6   ar
     6     6     7   ar
     7     7     8   ar
     8     8     9   ar
     9     9    10   ar
    10    10    11    1
    11    11    12   ar
    12    12    13    1
    13    13    14   ar
    14    14    15   ar
    15    15    16   ar
    16    16    17    1
    17    16    18   ar
    18    18    19   ar
    19    12    20   ar
    20    20    21   ar
    21    21    22   ar
    22    22    23    1
    23    23    24    1
    24    24    25    1
    25    25    26    1
    26    10    27   ar
    27    27    28   ar
    28    28     4   ar
    29    28     7   ar
    30    22    11   ar
    31    19    13   ar
    32     1    29    1
    33     1    30    1
    34     5    31    1
    35     8    32    1
    36     9    33    1
    37    14    34    1
    38    15    35    1
    39    18    36    1
    40    19    37    1
    41    21    38    1
    42    23    39    1
    43    23    40    1
    44    24    41    1
    45    24    42    1
    46    25    43    1
    47    25    44    1
    48    26    45    1
    49    27    46    1
