
     RDKit          3D

 46 49  0  0  0  0  0  0  0  0999 V2000
    5.6863   -0.0773    1.6845 N   0  0  0  0  0  0  0  0  0  0  0  0
    4.2936   -0.0199    1.3997 C   0  0  0  0  0  0  0  0  0  0  0  0
    3.5210    0.2156    2.3370 O   0  0  0  0  0  0  0  0  0  0  0  0
    3.7940   -0.2313    0.0487 C   0  0  0  0  0  0  0  0  0  0  0  0
    4.5646   -0.5063   -1.0830 C   0  0  0  0  0  0  0  0  0  0  0  0
    3.7199   -0.6279   -2.1103 N   0  0  0  0  0  0  0  0  0  0  0  0
    2.4519   -0.4472   -1.7066 C   0  0  0  0  0  0  0  0  0  0  0  0
    1.2390   -0.4729   -2.3886 C   0  0  0  0  0  0  0  0  0  0  0  0
    0.0806   -0.2448   -1.6854 C   0  0  0  0  0  0  0  0  0  0  0  0
    0.1876   -0.0016   -0.3321 C   0  0  0  0  0  0  0  0  0  0  0  0
   -1.0075    0.2465    0.4890 C   0  0  0  0  0  0  0  0  0  0  0  0
   -1.9639   -0.6807    0.7962 C   0  0  0  0  0  0  0  0  0  0  0  0
   -2.0876   -2.0812    0.4325 C   0  0  0  0  0  0  0  0  0  0  0  0
   -2.3922   -2.4981   -0.8329 C   0  0  0  0  0  0  0  0  0  0  0  0
   -2.5027   -3.8396   -1.1734 C   0  0  0  0  0  0  0  0  0  0  0  0
   -2.3015   -4.8050   -0.2125 C   0  0  0  0  0  0  0  0  0  0  0  0
   -2.4057   -6.1226   -0.5292 F   0  0  0  0  0  0  0  0  0  0  0  0
   -1.9929   -4.3748    1.0690 C   0  0  0  0  0  0  0  0  0  0  0  0
   -1.8839   -3.0485    1.4041 C   0  0  0  0  0  0  0  0  0  0  0  0
   -2.8619   -0.0095    1.5671 N   0  0  0  0  0  0  0  0  0  0  0  0
   -2.4705    1.2646    1.7212 C   0  0  0  0  0  0  0  0  0  0  0  0
   -1.3329    1.4304    1.0626 N   0  0  0  0  0  0  0  0  0  0  0  0
   -0.5761    2.6807    0.9807 C   0  0  0  0  0  0  0  0  0  0  0  0
   -1.0271    3.4985   -0.2126 C   0  0  0  0  0  0  0  0  0  0  0  0
   -2.5069    3.8421   -0.1018 C   0  0  0  0  0  0  0  0  0  0  0  0
   -2.7699    4.5870    1.0558 O   0  0  0  0  0  0  0  0  0  0  0  0
    1.3921    0.0236    0.3431 C   0  0  0  0  0  0  0  0  0  0  0  0
    2.5195   -0.2055   -0.3802 N   0  0  0  0  0  0  0  0  0  0  0  0
    6.0824    0.4443    2.4840 H   0  0  0  0  0  0  0  0  0  0  0  0
    6.3410   -0.6496    1.0896 H   0  0  0  0  0  0  0  0  0  0  0  0
    5.6545   -0.5932   -1.0629 H   0  0  0  0  0  0  0  0  0  0  0  0
    1.2677   -0.6726   -3.4458 H   0  0  0  0  0  0  0  0  0  0  0  0
   -0.8504   -0.2568   -2.1922 H   0  0  0  0  0  0  0  0  0  0  0  0
   -2.5658   -1.7892   -1.6281 H   0  0  0  0  0  0  0  0  0  0  0  0
   -2.7418   -4.1643   -2.1646 H   0  0  0  0  0  0  0  0  0  0  0  0
   -1.8293   -5.1085    1.8446 H   0  0  0  0  0  0  0  0  0  0  0  0
   -1.6429   -2.7062    2.4049 H   0  0  0  0  0  0  0  0  0  0  0  0
   -2.9894    2.0480    2.2903 H   0  0  0  0  0  0  0  0  0  0  0  0
   -0.6890    3.2741    1.9104 H   0  0  0  0  0  0  0  0  0  0  0  0
    0.4896    2.3909    0.9002 H   0  0  0  0  0  0  0  0  0  0  0  0
   -0.4223    4.4233   -0.2186 H   0  0  0  0  0  0  0  0  0  0  0  0
   -0.9254    2.9083   -1.1463 H   0  0  0  0  0  0  0  0  0  0  0  0
   -2.7604    4.5047   -0.9564 H   0  0  0  0  0  0  0  0  0  0  0  0
   -3.1420    2.9520   -0.1906 H   0  0  0  0  0  0  0  0  0  0  0  0
   -2.0547    5.2809    1.0925 H   0  0  0  0  0  0  0  0  0  0  0  0
    1.4113    0.2197    1.4052 H   0  0  0  0  0  0  0  0  0  0  0  0
  1  2  1  0
  2  3  2  0
  2  4  1  0
  4  5  2  0
  5  6  1  0
  6  7  2  0
  7  8  1  0
  8  9  2  0
  9 10  1  0
 10 11  1  0
 11 12  2  0
 12 13  1  0
 13 14  2  0
 14 15  1  0
 15 16  2  0
 16 17  1  0
 16 18  1  0
 18 19  2  0
 12 20  1  0
 20 21  2  0
 21 22  1  0
 22 23  1  0
 23 24  1  0
 24 25  1  0
 25 26  1  0
 10 27  2  0
 27 28  1  0
 28  4  1  0
 28  7  1  0
 22 11  1  0
 19 13  1  0
  1 29  1  0
  1 30  1  0
  5 31  1  0
  8 32  1  0
  9 33  1  0
 14 34  1  0
 15 35  1  0
 18 36  1  0
 19 37  1  0
 21 38  1  0
 23 39  1  0
 23 40  1  0
 24 41  1  0
 24 42  1  0
 25 43  1  0
 25 44  1  0
 26 45  1  0
 27 46  1  0
M  END
$$$$
