@<TRIPOS>MOLECULE
*****
 55 59 0 0 0
SMALL
GASTEIGER

@<TRIPOS>ATOM
      1 C           9.3545   -2.0326    0.8391 C.ar    1  UNL1        0.0281
      2 C           8.1820   -1.2950    0.6840 C.ar    1  UNL1       -0.0357
      3 C           8.1058   -0.0675    0.0514 C.ar    1  UNL1       -0.0100
      4 C           6.8816    0.7145   -0.0277 C.ar    1  UNL1        0.0461
      5 C           6.7936    2.0964    0.2264 C.ar    1  UNL1        0.0596
      6 N           5.5027    2.4297    0.1528 N.ar    1  UNL1       -0.1727
      7 N           4.7366    1.3841   -0.1286 N.ar    1  UNL1       -0.2206
      8 C           3.4089    1.2495   -0.2478 C.ar    1  UNL1        0.0406
      9 C           2.8346   -0.0005   -0.5035 C.ar    1  UNL1        0.0184
     10 C           1.3831   -0.1672   -0.4348 C.ar    1  UNL1       -0.0148
     11 C           0.7554    0.6096    0.5952 C.ar    1  UNL1       -0.0505
     12 C          -0.5785    0.5538    0.7719 C.ar    1  UNL1       -0.0194
     13 C          -1.4300   -0.2821   -0.0513 C.ar    1  UNL1        0.1206
     14 O          -2.6787   -0.2637    0.2304 O.3     1  UNL1       -0.4907
     15 C          -3.9502   -0.2456    0.5162 C.3     1  UNL1        0.1022
     16 C          -4.8109    0.5312   -0.4429 C.3     1  UNL1        0.0331
     17 N          -6.1930    0.5360   -0.1893 N.3     1  UNL1       -0.2991
     18 C          -6.7684    1.1660    0.9157 C.3     1  UNL1       -0.0010
     19 C          -7.5719    0.1765    1.7187 C.3     1  UNL1       -0.0402
     20 C          -8.6947   -0.3077    0.8106 C.3     1  UNL1       -0.0507
     21 C          -8.1537   -0.9372   -0.4569 C.3     1  UNL1       -0.0402
     22 C          -7.0331   -0.1844   -1.0776 C.3     1  UNL1       -0.0010
     23 C          -0.7866   -0.9911   -1.0161 C.ar    1  UNL1       -0.0194
     24 C           0.6007   -0.9277   -1.1996 C.ar    1  UNL1       -0.0505
     25 C           3.7155   -1.0465   -0.6221 C.ar    1  UNL1        0.0391
     26 N           5.0596   -0.8848   -0.4968 N.ar    1  UNL1       -0.2350
     27 C           5.5840    0.3206   -0.2472 C.ar    1  UNL1        0.1632
     28 C           9.3038    0.4189   -0.4528 C.ar    1  UNL1       -0.0357
     29 C          10.4716   -0.2863   -0.3121 C.ar    1  UNL1        0.0281
     30 N          10.4690   -1.4826    0.3259 N.ar    1  UNL1       -0.2632
     31 H           9.3513   -3.0034    1.3673 H       1  UNL1        0.0830
     32 H           7.2869   -1.6869    1.0970 H       1  UNL1        0.0639
     33 H           7.6581    2.7175    0.4268 H       1  UNL1        0.0855
     34 H           2.7623    2.0939   -0.1600 H       1  UNL1        0.0837
     35 H           1.4080    1.2218    1.1965 H       1  UNL1        0.0625
     36 H          -1.0906    1.1204    1.5425 H       1  UNL1        0.0654
     37 H          -4.3800   -1.3167    0.5249 H       1  UNL1        0.0709
     38 H          -4.1554    0.0644    1.5867 H       1  UNL1        0.0709
     39 H          -4.4892    1.6238   -0.2980 H       1  UNL1        0.0460
     40 H          -4.5523    0.3197   -1.4618 H       1  UNL1        0.0460
     41 H          -6.0247    1.7258    1.4845 H       1  UNL1        0.0427
     42 H          -7.5161    1.9423    0.5369 H       1  UNL1        0.0427
     43 H          -7.0285   -0.7019    2.0488 H       1  UNL1        0.0278
     44 H          -8.0809    0.7130    2.5687 H       1  UNL1        0.0278
     45 H          -9.2678    0.5892    0.5078 H       1  UNL1        0.0266
     46 H          -9.3338   -1.0719    1.2882 H       1  UNL1        0.0266
     47 H          -7.8756   -2.0209   -0.2851 H       1  UNL1        0.0278
     48 H          -9.0054   -1.0103   -1.1786 H       1  UNL1        0.0278
     49 H          -7.4755    0.5278   -1.8342 H       1  UNL1        0.0427
     50 H          -6.4307   -0.8955   -1.6994 H       1  UNL1        0.0427
     51 H          -1.3544   -1.6151   -1.6587 H       1  UNL1        0.0654
     52 H           1.0199   -1.5610   -2.0201 H       1  UNL1        0.0625
     53 H           3.3580   -2.0270   -0.8186 H       1  UNL1        0.0837
     54 H           9.3090    1.3887   -0.9838 H       1  UNL1        0.0639
     55 H          11.4139    0.0777   -0.6977 H       1  UNL1        0.0830
@<TRIPOS>BOND
     1     1     2   ar
     2     2     3   ar
     3     3     4    1
     4     4     5   ar
     5     5     6   ar
     6     6     7   ar
     7     7     8   ar
     8     8     9   ar
     9     9    10    1
    10    10    11   ar
    11    11    12   ar
    12    12    13   ar
    13    13    14    1
    14    14    15    1
    15    15    16    1
    16    16    17    1
    17    17    18    1
    18    18    19    1
    19    19    20    1
    20    20    21    1
    21    21    22    1
    22    13    23   ar
    23    23    24   ar
    24     9    25   ar
    25    25    26   ar
    26    26    27   ar
    27     3    28   ar
    28    28    29   ar
    29    29    30   ar
    30    30     1   ar
    31    27     4   ar
    32    27     7   ar
    33    24    10   ar
    34    22    17    1
    35     1    31    1
    36     2    32    1
    37     5    33    1
    38     8    34    1
    39    11    35    1
    40    12    36    1
    41    15    37    1
    42    15    38    1
    43    16    39    1
    44    16    40    1
    45    18    41    1
    46    18    42    1
    47    19    43    1
    48    19    44    1
    49    20    45    1
    50    20    46    1
    51    21    47    1
    52    21    48    1
    53    22    49    1
    54    22    50    1
    55    23    51    1
    56    24    52    1
    57    25    53    1
    58    28    54    1
    59    29    55    1
