
     RDKit          3D

 55 59  0  0  0  0  0  0  0  0999 V2000
    9.3545   -2.0326    0.8391 C   0  0  0  0  0  0  0  0  0  0  0  0
    8.1820   -1.2950    0.6840 C   0  0  0  0  0  0  0  0  0  0  0  0
    8.1058   -0.0675    0.0514 C   0  0  0  0  0  0  0  0  0  0  0  0
    6.8816    0.7145   -0.0277 C   0  0  0  0  0  0  0  0  0  0  0  0
    6.7936    2.0964    0.2264 C   0  0  0  0  0  0  0  0  0  0  0  0
    5.5027    2.4297    0.1528 N   0  0  0  0  0  0  0  0  0  0  0  0
    4.7366    1.3841   -0.1286 N   0  0  0  0  0  0  0  0  0  0  0  0
    3.4089    1.2495   -0.2478 C   0  0  0  0  0  0  0  0  0  0  0  0
    2.8346   -0.0005   -0.5035 C   0  0  0  0  0  0  0  0  0  0  0  0
    1.3831   -0.1672   -0.4348 C   0  0  0  0  0  0  0  0  0  0  0  0
    0.7554    0.6096    0.5952 C   0  0  0  0  0  0  0  0  0  0  0  0
   -0.5785    0.5538    0.7719 C   0  0  0  0  0  0  0  0  0  0  0  0
   -1.4300   -0.2821   -0.0513 C   0  0  0  0  0  0  0  0  0  0  0  0
   -2.6787   -0.2637    0.2304 O   0  0  0  0  0  0  0  0  0  0  0  0
   -3.9502   -0.2456    0.5162 C   0  0  0  0  0  0  0  0  0  0  0  0
   -4.8109    0.5312   -0.4429 C   0  0  0  0  0  0  0  0  0  0  0  0
   -6.1930    0.5360   -0.1893 N   0  0  0  0  0  0  0  0  0  0  0  0
   -6.7684    1.1660    0.9157 C   0  0  0  0  0  0  0  0  0  0  0  0
   -7.5719    0.1765    1.7187 C   0  0  0  0  0  0  0  0  0  0  0  0
   -8.6947   -0.3077    0.8106 C   0  0  0  0  0  0  0  0  0  0  0  0
   -8.1537   -0.9372   -0.4569 C   0  0  0  0  0  0  0  0  0  0  0  0
   -7.0331   -0.1844   -1.0776 C   0  0  0  0  0  0  0  0  0  0  0  0
   -0.7866   -0.9911   -1.0161 C   0  0  0  0  0  0  0  0  0  0  0  0
    0.6007   -0.9277   -1.1996 C   0  0  0  0  0  0  0  0  0  0  0  0
    3.7155   -1.0465   -0.6221 C   0  0  0  0  0  0  0  0  0  0  0  0
    5.0596   -0.8848   -0.4968 N   0  0  0  0  0  0  0  0  0  0  0  0
    5.5840    0.3206   -0.2472 C   0  0  0  0  0  0  0  0  0  0  0  0
    9.3038    0.4189   -0.4528 C   0  0  0  0  0  0  0  0  0  0  0  0
   10.4716   -0.2863   -0.3121 C   0  0  0  0  0  0  0  0  0  0  0  0
   10.4690   -1.4826    0.3259 N   0  0  0  0  0  0  0  0  0  0  0  0
    9.3513   -3.0034    1.3673 H   0  0  0  0  0  0  0  0  0  0  0  0
    7.2869   -1.6869    1.0970 H   0  0  0  0  0  0  0  0  0  0  0  0
    7.6581    2.7175    0.4268 H   0  0  0  0  0  0  0  0  0  0  0  0
    2.7623    2.0939   -0.1600 H   0  0  0  0  0  0  0  0  0  0  0  0
    1.4080    1.2218    1.1965 H   0  0  0  0  0  0  0  0  0  0  0  0
   -1.0906    1.1204    1.5425 H   0  0  0  0  0  0  0  0  0  0  0  0
   -4.3800   -1.3167    0.5249 H   0  0  0  0  0  0  0  0  0  0  0  0
   -4.1554    0.0644    1.5867 H   0  0  0  0  0  0  0  0  0  0  0  0
   -4.4892    1.6238   -0.2980 H   0  0  0  0  0  0  0  0  0  0  0  0
   -4.5523    0.3197   -1.4618 H   0  0  0  0  0  0  0  0  0  0  0  0
   -6.0247    1.7258    1.4845 H   0  0  0  0  0  0  0  0  0  0  0  0
   -7.5161    1.9423    0.5369 H   0  0  0  0  0  0  0  0  0  0  0  0
   -7.0285   -0.7019    2.0488 H   0  0  0  0  0  0  0  0  0  0  0  0
   -8.0809    0.7130    2.5687 H   0  0  0  0  0  0  0  0  0  0  0  0
   -9.2678    0.5892    0.5078 H   0  0  0  0  0  0  0  0  0  0  0  0
   -9.3338   -1.0719    1.2882 H   0  0  0  0  0  0  0  0  0  0  0  0
   -7.8756   -2.0209   -0.2851 H   0  0  0  0  0  0  0  0  0  0  0  0
   -9.0054   -1.0103   -1.1786 H   0  0  0  0  0  0  0  0  0  0  0  0
   -7.4755    0.5278   -1.8342 H   0  0  0  0  0  0  0  0  0  0  0  0
   -6.4307   -0.8955   -1.6994 H   0  0  0  0  0  0  0  0  0  0  0  0
   -1.3544   -1.6151   -1.6587 H   0  0  0  0  0  0  0  0  0  0  0  0
    1.0199   -1.5610   -2.0201 H   0  0  0  0  0  0  0  0  0  0  0  0
    3.3580   -2.0270   -0.8186 H   0  0  0  0  0  0  0  0  0  0  0  0
    9.3090    1.3887   -0.9838 H   0  0  0  0  0  0  0  0  0  0  0  0
   11.4139    0.0777   -0.6977 H   0  0  0  0  0  0  0  0  0  0  0  0
  1  2  2  0
  2  3  1  0
  3  4  1  0
  4  5  1  0
  5  6  2  0
  6  7  1  0
  7  8  1  0
  8  9  2  0
  9 10  1  0
 10 11  2  0
 11 12  1  0
 12 13  2  0
 13 14  1  0
 14 15  1  0
 15 16  1  0
 16 17  1  0
 17 18  1  0
 18 19  1  0
 19 20  1  0
 20 21  1  0
 21 22  1  0
 13 23  1  0
 23 24  2  0
  9 25  1  0
 25 26  2  0
 26 27  1  0
  3 28  2  0
 28 29  1  0
 29 30  2  0
 30  1  1  0
 27  4  2  0
 27  7  1  0
 24 10  1  0
 22 17  1  0
  1 31  1  0
  2 32  1  0
  5 33  1  0
  8 34  1  0
 11 35  1  0
 12 36  1  0
 15 37  1  0
 15 38  1  0
 16 39  1  0
 16 40  1  0
 18 41  1  0
 18 42  1  0
 19 43  1  0
 19 44  1  0
 20 45  1  0
 20 46  1  0
 21 47  1  0
 21 48  1  0
 22 49  1  0
 22 50  1  0
 23 51  1  0
 24 52  1  0
 25 53  1  0
 28 54  1  0
 29 55  1  0
M  END
$$$$
