@<TRIPOS>MOLECULE
*****
 46 49 0 0 0
SMALL
GASTEIGER

@<TRIPOS>ATOM
      1 C           7.7977   -1.2776    0.8143 C.3     1  UNL1        0.0736
      2 S           8.1932    0.3518    0.2231 S.O2    1  UNL1        0.0403
      3 O           9.6229    0.4239   -0.2358 O.2     1  UNL1       -0.1555
      4 O           8.0280    1.3502    1.3208 O.2     1  UNL1       -0.1555
      5 N           7.1325    0.6887   -1.0954 N.pl3   1  UNL1       -0.2209
      6 C           5.7431    0.7216   -0.8772 C.ar    1  UNL1        0.0477
      7 C           5.1579    1.3636    0.1947 C.ar    1  UNL1       -0.0388
      8 C           3.7976    1.3808    0.3847 C.ar    1  UNL1       -0.0520
      9 C           2.9488    0.7465   -0.5031 C.ar    1  UNL1       -0.0112
     10 C           1.5047    0.7523   -0.3208 C.ar    1  UNL1        0.0643
     11 C           0.7607    1.8617    0.0134 C.ar    1  UNL1        0.1038
     12 O          -0.5417    1.8146    0.1664 O.2     1  UNL1       -0.4621
     13 C          -1.2171    0.6995    0.0089 C.ar    1  UNL1        0.1396
     14 C          -2.5957    0.6881    0.1793 C.ar    1  UNL1       -0.0032
     15 C          -3.3123   -0.4766    0.0162 C.ar    1  UNL1        0.0288
     16 C          -4.7428   -0.4464    0.2021 C.1     1  UNL1       -0.0594
     17 C          -5.9419   -0.4048    0.3479 C.1     1  UNL1       -0.0412
     18 C          -7.3629   -0.3631    0.5446 C.ar    1  UNL1        0.1137
     19 C          -7.9999    0.8550    0.5285 C.ar    1  UNL1       -0.0278
     20 C          -9.3658    0.8549    0.7211 C.ar    1  UNL1       -0.0577
     21 C         -10.0763   -0.3110    0.9226 C.ar    1  UNL1       -0.0435
     22 C          -9.3926   -1.5076    0.9302 C.ar    1  UNL1        0.0290
     23 N          -8.0804   -1.5061    0.7451 N.ar    1  UNL1       -0.2467
     24 C          -2.6176   -1.6088   -0.3168 C.ar    1  UNL1       -0.0454
     25 C          -1.2515   -1.6392   -0.4947 C.ar    1  UNL1       -0.0462
     26 C          -0.5478   -0.4671   -0.3283 C.ar    1  UNL1        0.0646
     27 C           0.8335   -0.4381   -0.4952 C.ar    1  UNL1        0.2001
     28 O           1.3922   -1.5090   -0.7978 O.2     1  UNL1       -0.2864
     29 C           3.5269    0.1026   -1.5773 C.ar    1  UNL1       -0.0520
     30 C           4.8910    0.0768   -1.7812 C.ar    1  UNL1       -0.0388
     31 H           6.8679   -1.1722    1.4344 H       1  UNL1        0.0482
     32 H           7.5161   -1.9124   -0.0483 H       1  UNL1        0.0482
     33 H           8.6194   -1.7412    1.3615 H       1  UNL1        0.0482
     34 H           7.4787    0.8709   -2.0569 H       1  UNL1        0.1733
     35 H           5.7862    1.8821    0.9283 H       1  UNL1        0.0637
     36 H           3.3181    1.8841    1.2277 H       1  UNL1        0.0624
     37 H           1.3177    2.7959    0.1464 H       1  UNL1        0.1037
     38 H          -3.1317    1.5744    0.4390 H       1  UNL1        0.0667
     39 H          -7.4058    1.7317    0.3686 H       1  UNL1        0.0645
     40 H          -9.8779    1.7893    0.7121 H       1  UNL1        0.0619
     41 H         -11.1480   -0.3203    1.0745 H       1  UNL1        0.0633
     42 H          -9.9234   -2.4502    1.0870 H       1  UNL1        0.0830
     43 H          -3.2135   -2.5233   -0.4407 H       1  UNL1        0.0630
     44 H          -0.7254   -2.5418   -0.7567 H       1  UNL1        0.0626
     45 H           2.8893   -0.4056   -2.2938 H       1  UNL1        0.0624
     46 H           5.3479   -0.4278   -2.6233 H       1  UNL1        0.0637
@<TRIPOS>BOND
     1     1     2    1
     2     2     3    2
     3     2     4    2
     4     2     5    1
     5     5     6    1
     6     6     7   ar
     7     7     8   ar
     8     8     9   ar
     9     9    10    1
    10    10    11   ar
    11    11    12   ar
    12    12    13   ar
    13    13    14   ar
    14    14    15   ar
    15    15    16    1
    16    16    17    3
    17    17    18    1
    18    18    19   ar
    19    19    20   ar
    20    20    21   ar
    21    21    22   ar
    22    22    23   ar
    23    15    24   ar
    24    24    25   ar
    25    25    26   ar
    26    26    27   ar
    27    27    28    2
    28     9    29   ar
    29    29    30   ar
    30    30     6   ar
    31    27    10   ar
    32    26    13   ar
    33    23    18   ar
    34     1    31    1
    35     1    32    1
    36     1    33    1
    37     5    34    1
    38     7    35    1
    39     8    36    1
    40    11    37    1
    41    14    38    1
    42    19    39    1
    43    20    40    1
    44    21    41    1
    45    22    42    1
    46    24    43    1
    47    25    44    1
    48    29    45    1
    49    30    46    1
