
     RDKit          3D

 46 49  0  0  0  0  0  0  0  0999 V2000
    7.7977   -1.2776    0.8143 C   0  0  0  0  0  0  0  0  0  0  0  0
    8.1932    0.3518    0.2231 S   0  0  0  0  0  6  0  0  0  0  0  0
    9.6229    0.4239   -0.2358 O   0  0  0  0  0  0  0  0  0  0  0  0
    8.0280    1.3502    1.3208 O   0  0  0  0  0  0  0  0  0  0  0  0
    7.1325    0.6887   -1.0954 N   0  0  0  0  0  0  0  0  0  0  0  0
    5.7431    0.7216   -0.8772 C   0  0  0  0  0  0  0  0  0  0  0  0
    5.1579    1.3636    0.1947 C   0  0  0  0  0  0  0  0  0  0  0  0
    3.7976    1.3808    0.3847 C   0  0  0  0  0  0  0  0  0  0  0  0
    2.9488    0.7465   -0.5031 C   0  0  0  0  0  0  0  0  0  0  0  0
    1.5047    0.7523   -0.3208 C   0  0  0  0  0  0  0  0  0  0  0  0
    0.7607    1.8617    0.0134 C   0  0  0  0  0  0  0  0  0  0  0  0
   -0.5417    1.8146    0.1664 O   0  0  0  0  0  0  0  0  0  0  0  0
   -1.2171    0.6995    0.0089 C   0  0  0  0  0  0  0  0  0  0  0  0
   -2.5957    0.6881    0.1793 C   0  0  0  0  0  0  0  0  0  0  0  0
   -3.3123   -0.4766    0.0162 C   0  0  0  0  0  0  0  0  0  0  0  0
   -4.7428   -0.4464    0.2021 C   0  0  0  0  0  0  0  0  0  0  0  0
   -5.9419   -0.4048    0.3479 C   0  0  0  0  0  0  0  0  0  0  0  0
   -7.3629   -0.3631    0.5446 C   0  0  0  0  0  0  0  0  0  0  0  0
   -7.9999    0.8550    0.5285 C   0  0  0  0  0  0  0  0  0  0  0  0
   -9.3658    0.8549    0.7211 C   0  0  0  0  0  0  0  0  0  0  0  0
  -10.0763   -0.3110    0.9226 C   0  0  0  0  0  0  0  0  0  0  0  0
   -9.3926   -1.5076    0.9302 C   0  0  0  0  0  0  0  0  0  0  0  0
   -8.0804   -1.5061    0.7451 N   0  0  0  0  0  0  0  0  0  0  0  0
   -2.6176   -1.6088   -0.3168 C   0  0  0  0  0  0  0  0  0  0  0  0
   -1.2515   -1.6392   -0.4947 C   0  0  0  0  0  0  0  0  0  0  0  0
   -0.5478   -0.4671   -0.3283 C   0  0  0  0  0  0  0  0  0  0  0  0
    0.8335   -0.4381   -0.4952 C   0  0  0  0  0  0  0  0  0  0  0  0
    1.3922   -1.5090   -0.7978 O   0  0  0  0  0  0  0  0  0  0  0  0
    3.5269    0.1026   -1.5773 C   0  0  0  0  0  0  0  0  0  0  0  0
    4.8910    0.0768   -1.7812 C   0  0  0  0  0  0  0  0  0  0  0  0
    6.8679   -1.1722    1.4344 H   0  0  0  0  0  0  0  0  0  0  0  0
    7.5161   -1.9124   -0.0483 H   0  0  0  0  0  0  0  0  0  0  0  0
    8.6194   -1.7412    1.3615 H   0  0  0  0  0  0  0  0  0  0  0  0
    7.4787    0.8709   -2.0569 H   0  0  0  0  0  0  0  0  0  0  0  0
    5.7862    1.8821    0.9283 H   0  0  0  0  0  0  0  0  0  0  0  0
    3.3181    1.8841    1.2277 H   0  0  0  0  0  0  0  0  0  0  0  0
    1.3177    2.7959    0.1464 H   0  0  0  0  0  0  0  0  0  0  0  0
   -3.1317    1.5744    0.4390 H   0  0  0  0  0  0  0  0  0  0  0  0
   -7.4058    1.7317    0.3686 H   0  0  0  0  0  0  0  0  0  0  0  0
   -9.8779    1.7893    0.7121 H   0  0  0  0  0  0  0  0  0  0  0  0
  -11.1480   -0.3203    1.0745 H   0  0  0  0  0  0  0  0  0  0  0  0
   -9.9234   -2.4502    1.0870 H   0  0  0  0  0  0  0  0  0  0  0  0
   -3.2135   -2.5233   -0.4407 H   0  0  0  0  0  0  0  0  0  0  0  0
   -0.7254   -2.5418   -0.7567 H   0  0  0  0  0  0  0  0  0  0  0  0
    2.8893   -0.4056   -2.2938 H   0  0  0  0  0  0  0  0  0  0  0  0
    5.3479   -0.4278   -2.6233 H   0  0  0  0  0  0  0  0  0  0  0  0
  1  2  1  0
  2  3  2  0
  2  4  2  0
  2  5  1  0
  5  6  1  0
  6  7  2  0
  7  8  1  0
  8  9  2  0
  9 10  1  0
 10 11  2  0
 11 12  1  0
 12 13  1  0
 13 14  2  0
 14 15  1  0
 15 16  1  0
 16 17  3  0
 17 18  1  0
 18 19  2  0
 19 20  1  0
 20 21  2  0
 21 22  1  0
 22 23  2  0
 15 24  2  0
 24 25  1  0
 25 26  2  0
 26 27  1  0
 27 28  2  0
  9 29  1  0
 29 30  2  0
 30  6  1  0
 27 10  1  0
 26 13  1  0
 23 18  1  0
  1 31  1  0
  1 32  1  0
  1 33  1  0
  5 34  1  0
  7 35  1  0
  8 36  1  0
 11 37  1  0
 14 38  1  0
 19 39  1  0
 20 40  1  0
 21 41  1  0
 22 42  1  0
 24 43  1  0
 25 44  1  0
 29 45  1  0
 30 46  1  0
M  END
$$$$
