@<TRIPOS>MOLECULE
*****
 48 51 0 0 0
SMALL
GASTEIGER

@<TRIPOS>ATOM
      1 C           6.2155    1.3951    3.0295 C.3     1  UNL1       -0.0206
      2 C           5.0808    1.0212    2.1408 C.ar    1  UNL1        0.0616
      3 C           4.8439    1.4326    0.8398 C.ar    1  UNL1        0.0006
      4 C           3.6611    0.8304    0.3865 C.ar    1  UNL1        0.1196
      5 N           3.0709    0.9751   -0.8826 N.pl3   1  UNL1       -0.2829
      6 C           1.8930    0.3623   -1.3495 C.ar    1  UNL1        0.1525
      7 N           0.6934    0.9738   -1.4070 N.ar    1  UNL1       -0.1520
      8 N          -0.4060    0.3820   -1.8828 N.ar    1  UNL1       -0.2228
      9 C          -1.6819    1.0723   -1.9635 C.3     1  UNL1        0.0703
     10 C          -2.5630    0.8535   -0.8064 C.ar    1  UNL1       -0.0259
     11 C          -2.5129    1.5193    0.3904 C.ar    1  UNL1       -0.0550
     12 C          -3.4139    1.2507    1.4227 C.ar    1  UNL1       -0.0366
     13 C          -4.3795    0.3071    1.2661 C.ar    1  UNL1        0.0879
     14 S          -5.5425   -0.0506    2.5394 S.O2    1  UNL1       -0.0059
     15 C          -6.9835    0.9968    2.3633 C.3     1  UNL1        0.0596
     16 O          -4.8996    0.1255    3.8647 O.2     1  UNL1       -0.1696
     17 O          -6.0056   -1.4681    2.3784 O.2     1  UNL1       -0.1696
     18 C          -4.4627   -0.3925    0.0614 C.ar    1  UNL1       -0.0366
     19 C          -3.5659   -0.1104   -0.9374 C.ar    1  UNL1       -0.0550
     20 C          -0.2693   -0.8846   -2.3152 C.ar    1  UNL1        0.2754
     21 O          -1.2596   -1.5076   -2.7778 O.2     1  UNL1       -0.2655
     22 C           0.9195   -1.5822   -2.2901 C.ar    1  UNL1        0.0514
     23 C           1.0406   -2.8812   -2.7272 C.ar    1  UNL1       -0.0487
     24 C           2.2394   -3.5466   -2.6786 C.ar    1  UNL1       -0.0610
     25 C           3.3747   -2.9106   -2.1776 C.ar    1  UNL1       -0.0611
     26 C           3.2322   -1.6088   -1.7450 C.ar    1  UNL1       -0.0505
     27 C           2.0166   -0.9388   -1.7961 C.ar    1  UNL1        0.0291
     28 N           3.2259    0.0863    1.4109 N.ar    1  UNL1       -0.2637
     29 N           4.0737    0.2081    2.4424 N.ar    1  UNL1       -0.1775
     30 H           6.6582    0.5097    3.5124 H       1  UNL1        0.0293
     31 H           7.0510    1.8619    2.4412 H       1  UNL1        0.0293
     32 H           5.9200    2.1027    3.8200 H       1  UNL1        0.0293
     33 H           5.4532    2.0974    0.2663 H       1  UNL1        0.0670
     34 H           3.5461    1.6148   -1.5937 H       1  UNL1        0.1550
     35 H          -1.4544    2.1750   -2.0924 H       1  UNL1        0.0560
     36 H          -2.2221    0.8080   -2.9151 H       1  UNL1        0.0560
     37 H          -1.7525    2.2693    0.5245 H       1  UNL1        0.0621
     38 H          -3.3701    1.7842    2.3692 H       1  UNL1        0.0637
     39 H          -6.6467    2.0009    2.0521 H       1  UNL1        0.0468
     40 H          -7.6453    0.5868    1.5841 H       1  UNL1        0.0468
     41 H          -7.5425    1.0488    3.3151 H       1  UNL1        0.0468
     42 H          -5.2374   -1.1349   -0.0390 H       1  UNL1        0.0637
     43 H          -3.6904   -0.6956   -1.8625 H       1  UNL1        0.0621
     44 H           0.1675   -3.3729   -3.1130 H       1  UNL1        0.0625
     45 H           2.3712   -4.5667   -3.0122 H       1  UNL1        0.0618
     46 H           4.3314   -3.4075   -2.1233 H       1  UNL1        0.0618
     47 H           4.0691   -1.0856   -1.3569 H       1  UNL1        0.0625
     48 H           2.3585   -0.5063    1.4236 H       1  UNL1        0.1903
@<TRIPOS>BOND
     1     1     2    1
     2     2     3   ar
     3     3     4   ar
     4     4     5    1
     5     5     6    1
     6     6     7   ar
     7     7     8   ar
     8     8     9    1
     9     9    10    1
    10    10    11   ar
    11    11    12   ar
    12    12    13   ar
    13    13    14    1
    14    14    15    1
    15    14    16    2
    16    14    17    2
    17    13    18   ar
    18    18    19   ar
    19     8    20   ar
    20    20    21    2
    21    20    22   ar
    22    22    23   ar
    23    23    24   ar
    24    24    25   ar
    25    25    26   ar
    26    26    27   ar
    27     4    28   ar
    28    28    29   ar
    29    29     2   ar
    30    27     6   ar
    31    19    10   ar
    32    27    22   ar
    33     1    30    1
    34     1    31    1
    35     1    32    1
    36     3    33    1
    37     5    34    1
    38     9    35    1
    39     9    36    1
    40    11    37    1
    41    12    38    1
    42    15    39    1
    43    15    40    1
    44    15    41    1
    45    18    42    1
    46    19    43    1
    47    23    44    1
    48    24    45    1
    49    25    46    1
    50    26    47    1
    51    28    48    1
