@<TRIPOS>MOLECULE
*****
 45 49 0 0 0
SMALL
GASTEIGER

@<TRIPOS>ATOM
      1 O1          8.1173   -0.5057    2.0572 O.2     1  <1>        -0.2434
      2 C1          7.8569   -1.4352    1.2645 C.2     1  <1>         0.3559
      3 O2          8.7944   -2.3860    0.9931 O.3     1  <1>        -0.4761
      4 C2          6.4975   -1.4882    0.6195 C.ar    1  <1>         0.1552
      5 C3          6.1934   -2.5030   -0.2625 C.ar    1  <1>         0.0101
      6 S1          4.4570   -2.0948   -0.7227 S.2     1  <1>        -0.0748
      7 C4          4.4520   -0.6039    0.3763 C.ar    1  <1>         0.1092
      8 C5          3.2015    0.2254    0.4546 C.ar    1  <1>         0.0078
      9 C6          3.2335    1.3623    1.2417 C.ar    1  <1>        -0.0518
     10 C7          2.1005    2.1488    1.3612 C.ar    1  <1>        -0.0573
     11 C8          0.9657    1.7970    0.7037 C.ar    1  <1>        -0.0384
     12 C9          0.9302    0.6601   -0.0825 C.ar    1  <1>         0.0015
     13 C10         2.0641   -0.1271   -0.2039 C.ar    1  <1>        -0.0429
     14 C11        -0.3178    0.2983   -0.7347 C.2     1  <1>         0.0667
     15 N1         -0.4146   -0.9425   -1.0894 N.2     1  <1>        -0.1849
     16 N2         -1.4979   -1.5288   -1.7214 N.pl3   1  <1>        -0.2150
     17 C12        -2.8464   -1.3014   -1.3064 C.ar    1  <1>         0.1788
     18 N3         -3.5529   -1.5195   -0.4110 N.ar    1  <1>        -0.2235
     19 C13        -4.8072   -1.2280   -0.2212 C.ar    1  <1>         0.0803
     20 C14        -5.6256   -1.5191    0.9030 C.ar    1  <1>        -0.0351
     21 C15        -6.9390   -1.1005    0.8751 C.ar    1  <1>        -0.0597
     22 C16        -7.5343   -0.4189   -0.1570 C.ar    1  <1>        -0.0606
     23 C17        -6.7277   -0.1311   -1.2658 C.ar    1  <1>        -0.0458
     24 C18        -5.4492   -0.5430   -1.2287 C.ar    1  <1>         0.0408
     25 S2         -4.0548   -0.3855   -2.4319 S.2     1  <1>        -0.0508
     26 C19        -1.3657    1.2944   -0.9510 C.3     1  <1>        -0.0080
     27 C20        -0.9629    2.6746   -0.5255 C.3     1  <1>        -0.0436
     28 C21        -0.2588    2.6653    0.8242 C.3     1  <1>        -0.0267
     29 N4          5.5354   -0.6252    0.8346 N.ar    1  <1>        -0.2325
     30 H1          9.7787   -2.2716    1.2732 H       1  <1>         0.2955
     31 H2          6.7396   -3.3626   -0.6585 H       1  <1>         0.0718
     32 H3          4.1428    1.6105    1.7504 H       1  <1>         0.0624
     33 H4          2.0855    3.0490    1.9725 H       1  <1>         0.0621
     34 H5          2.0716   -1.0077   -0.8049 H       1  <1>         0.0631
     35 H6         -1.3816   -2.1718   -2.5366 H       1  <1>         0.1765
     36 H7         -5.2799   -2.0373    1.7598 H       1  <1>         0.0639
     37 H8         -7.6005   -1.3115    1.7319 H       1  <1>         0.0618
     38 H9         -8.5539   -0.1005   -0.1679 H       1  <1>         0.0618
     39 H10        -7.0852    0.3888   -2.1185 H       1  <1>         0.0629
     40 H11        -2.2593    0.9469   -0.3483 H       1  <1>         0.0329
     41 H12        -1.6729    1.3812   -2.0208 H       1  <1>         0.0329
     42 H13        -0.3226    3.1048   -1.3035 H       1  <1>         0.0272
     43 H14        -1.8927    3.2560   -0.3612 H       1  <1>         0.0272
     44 H15        -0.9153    2.3482    1.6285 H       1  <1>         0.0313
     45 H16         0.1014    3.6893    1.0110 H       1  <1>         0.0313
@<TRIPOS>BOND
     1     1     2    2
     2     2     3    1
     3     2     4    1
     4     4     5   ar
     5     5     6   ar
     6     6     7   ar
     7     7     8    1
     8     8     9   ar
     9     9    10   ar
    10    10    11   ar
    11    11    12   ar
    12    12    13   ar
    13    12    14    1
    14    14    15    2
    15    15    16    1
    16    16    17    1
    17    17    18   ar
    18    18    19   ar
    19    19    20   ar
    20    20    21   ar
    21    21    22   ar
    22    22    23   ar
    23    23    24   ar
    24    24    25   ar
    25    14    26    1
    26    26    27    1
    27    27    28    1
    28     7    29   ar
    29    29     4   ar
    30    13     8   ar
    31    25    17   ar
    32    28    11    1
    33    24    19   ar
    34     3    30    1
    35     5    31    1
    36     9    32    1
    37    10    33    1
    38    13    34    1
    39    16    35    1
    40    20    36    1
    41    21    37    1
    42    22    38    1
    43    23    39    1
    44    26    40    1
    45    26    41    1
    46    27    42    1
    47    27    43    1
    48    28    44    1
    49    28    45    1
