
     RDKit          3D

 39 41  0  0  0  0  0  0  0  0999 V2000
   -1.5625    1.0905   -1.3692 C   0  0  0  0  0  0  0  0  0  0  0  0
   -1.6689   -0.1125   -0.4807 C   0  0  0  0  0  0  0  0  0  0  0  0
   -0.7317   -0.1707    0.6780 C   0  0  0  0  0  0  0  0  0  0  0  0
    0.6630   -0.1530    0.3681 N   0  0  0  0  0  0  0  0  0  0  0  0
    1.4242    1.0309    0.2161 C   0  0  0  0  0  0  0  0  0  0  0  0
    0.8504    2.2570    0.4704 C   0  0  0  0  0  0  0  0  0  0  0  0
    1.4843    3.4785    0.3894 C   0  0  0  0  0  0  0  0  0  0  0  0
    2.8125    3.5200    0.0252 C   0  0  0  0  0  0  0  0  0  0  0  0
    3.4387    2.3230   -0.2405 C   0  0  0  0  0  0  0  0  0  0  0  0
    2.7415    1.1554   -0.1380 C   0  0  0  0  0  0  0  0  0  0  0  0
    3.6717   -0.3216   -0.4937 S   0  0  0  0  0  0  0  0  0  0  0  0
    2.5642   -1.6859   -0.2169 C   0  0  0  0  0  0  0  0  0  0  0  0
    1.2694   -1.4206    0.1470 C   0  0  0  0  0  0  0  0  0  0  0  0
    0.5448   -2.5399    0.3087 N   0  0  0  0  0  0  0  0  0  0  0  0
    1.0202   -3.7814    0.1377 C   0  0  0  0  0  0  0  0  0  0  0  0
    2.3221   -4.0422   -0.2275 C   0  0  0  0  0  0  0  0  0  0  0  0
    3.1070   -2.9237   -0.4060 C   0  0  0  0  0  0  0  0  0  0  0  0
   -3.0505   -0.2138   -0.0728 N   0  0  0  0  0  0  0  0  0  0  0  0
   -3.3505   -1.3116    0.7872 C   0  0  0  0  0  0  0  0  0  0  0  0
   -3.6098    1.0410    0.3527 C   0  0  0  0  0  0  0  0  0  0  0  0
   -1.7865    2.0520   -0.8925 H   0  0  0  0  0  0  0  0  0  0  0  0
   -2.1758    0.9385   -2.2988 H   0  0  0  0  0  0  0  0  0  0  0  0
   -0.5166    1.1714   -1.7803 H   0  0  0  0  0  0  0  0  0  0  0  0
   -1.5236   -0.9989   -1.1777 H   0  0  0  0  0  0  0  0  0  0  0  0
   -0.9385   -1.1165    1.2371 H   0  0  0  0  0  0  0  0  0  0  0  0
   -1.0276    0.6613    1.3626 H   0  0  0  0  0  0  0  0  0  0  0  0
   -0.1788    2.3694    0.7807 H   0  0  0  0  0  0  0  0  0  0  0  0
    1.0200    4.4322    0.5917 H   0  0  0  0  0  0  0  0  0  0  0  0
    3.3477    4.4467   -0.0514 H   0  0  0  0  0  0  0  0  0  0  0  0
    4.4792    2.3669   -0.5247 H   0  0  0  0  0  0  0  0  0  0  0  0
    0.3486   -4.6193    0.2941 H   0  0  0  0  0  0  0  0  0  0  0  0
    2.6211   -5.0638   -0.3428 H   0  0  0  0  0  0  0  0  0  0  0  0
    4.1358   -3.0789   -0.6929 H   0  0  0  0  0  0  0  0  0  0  0  0
   -4.4363   -1.5375    0.6903 H   0  0  0  0  0  0  0  0  0  0  0  0
   -2.8279   -2.2015    0.3831 H   0  0  0  0  0  0  0  0  0  0  0  0
   -3.0830   -1.1687    1.8327 H   0  0  0  0  0  0  0  0  0  0  0  0
   -4.5984    0.8378    0.8078 H   0  0  0  0  0  0  0  0  0  0  0  0
   -3.0137    1.5838    1.1076 H   0  0  0  0  0  0  0  0  0  0  0  0
   -3.7855    1.7055   -0.4999 H   0  0  0  0  0  0  0  0  0  0  0  0
  1  2  1  0
  2  3  1  0
  3  4  1  0
  4  5  1  0
  5  6  2  0
  6  7  1  0
  7  8  2  0
  8  9  1  0
  9 10  2  0
 10 11  1  0
 11 12  1  0
 12 13  2  0
 13 14  1  0
 14 15  2  0
 15 16  1  0
 16 17  2  0
  2 18  1  0
 18 19  1  0
 18 20  1  0
 13  4  1  0
 10  5  1  0
 17 12  1  0
  1 21  1  0
  1 22  1  0
  1 23  1  0
  2 24  1  0
  3 25  1  0
  3 26  1  0
  6 27  1  0
  7 28  1  0
  8 29  1  0
  9 30  1  0
 15 31  1  0
 16 32  1  0
 17 33  1  0
 19 34  1  0
 19 35  1  0
 19 36  1  0
 20 37  1  0
 20 38  1  0
 20 39  1  0
M  END
$$$$
