
     RDKit          3D

 59 63  0  0  0  0  0  0  0  0999 V2000
   -4.5041   -1.0503   -2.2229 C   0  0  0  0  0  0  0  0  0  0  0  0
   -4.2458   -0.2736   -0.8966 C   0  0  1  0  0  0  0  0  0  0  0  0
   -2.9510   -0.3379   -0.6270 O   0  0  0  0  0  0  0  0  0  0  0  0
   -2.0136   -0.7196    0.2515 C   0  0  0  0  0  0  0  0  0  0  0  0
   -0.6469   -0.5064   -0.0370 C   0  0  0  0  0  0  0  0  0  0  0  0
    0.3775   -0.8597    0.7929 C   0  0  0  0  0  0  0  0  0  0  0  0
    1.7625   -0.5994    0.4083 C   0  0  0  0  0  0  0  0  0  0  0  0
    2.1782   -0.6198   -0.8986 C   0  0  0  0  0  0  0  0  0  0  0  0
    3.4973   -0.3709   -1.2617 C   0  0  0  0  0  0  0  0  0  0  0  0
    4.4560   -0.0874   -0.2935 C   0  0  0  0  0  0  0  0  0  0  0  0
    5.7768    0.1735   -0.7120 N   0  0  0  0  0  0  0  0  0  0  0  0
    6.8752    0.0170    0.1981 C   0  0  0  0  0  0  0  0  0  0  0  0
    8.0189    0.9770   -0.0389 C   0  0  0  0  0  0  0  0  0  0  0  0
    8.1748    1.2715   -1.3904 O   0  0  0  0  0  0  0  0  0  0  0  0
    7.0295    1.7755   -1.9572 C   0  0  0  0  0  0  0  0  0  0  0  0
    6.0329    0.6093   -2.0564 C   0  0  0  0  0  0  0  0  0  0  0  0
    4.0362   -0.0681    1.0119 C   0  0  0  0  0  0  0  0  0  0  0  0
    2.7206   -0.3184    1.3526 C   0  0  0  0  0  0  0  0  0  0  0  0
    0.0861   -1.4666    1.9988 C   0  0  0  0  0  0  0  0  0  0  0  0
   -1.2313   -1.6904    2.3140 C   0  0  0  0  0  0  0  0  0  0  0  0
   -1.7702   -2.2525    3.4018 N   0  0  0  0  0  0  0  0  0  0  0  0
   -3.0753   -2.2639    3.2854 N   0  0  0  0  0  0  0  0  0  0  0  0
   -3.9741   -2.8037    4.2891 C   0  0  0  0  0  0  0  0  0  0  0  0
   -3.4402   -1.7010    2.0989 C   0  0  0  0  0  0  0  0  0  0  0  0
   -2.2816   -1.3343    1.4756 C   0  0  0  0  0  0  0  0  0  0  0  0
   -4.5984    1.1735   -1.2843 C   0  0  1  0  0  0  0  0  0  0  0  0
   -6.0172    1.3048   -1.7366 C   0  0  0  0  0  0  0  0  0  0  0  0
   -6.2562    2.7275   -1.5956 N   0  0  0  0  0  0  0  0  0  0  0  0
   -5.3999    3.2329   -0.5802 C   0  0  0  0  0  0  0  0  0  0  0  0
   -5.3769    4.4162   -0.1717 O   0  0  0  0  0  0  0  0  0  0  0  0
   -4.5391    2.0947   -0.0956 C   0  0  0  0  0  0  0  0  0  0  0  0
   -3.8039   -0.5894   -2.9525 H   0  0  0  0  0  0  0  0  0  0  0  0
   -5.5553   -0.9659   -2.5196 H   0  0  0  0  0  0  0  0  0  0  0  0
   -4.2039   -2.1058   -2.0825 H   0  0  0  0  0  0  0  0  0  0  0  0
   -4.9846   -0.6605   -0.1852 H   0  0  0  0  0  0  0  0  0  0  0  0
   -0.4637   -0.0270   -0.9946 H   0  0  0  0  0  0  0  0  0  0  0  0
    1.4863   -0.8313   -1.6896 H   0  0  0  0  0  0  0  0  0  0  0  0
    3.7443   -0.4149   -2.3176 H   0  0  0  0  0  0  0  0  0  0  0  0
    7.3029   -1.0072   -0.0263 H   0  0  0  0  0  0  0  0  0  0  0  0
    6.6325    0.0057    1.2571 H   0  0  0  0  0  0  0  0  0  0  0  0
    8.9484    0.4755    0.2947 H   0  0  0  0  0  0  0  0  0  0  0  0
    7.9244    1.9180    0.5082 H   0  0  0  0  0  0  0  0  0  0  0  0
    7.2615    2.1925   -2.9529 H   0  0  0  0  0  0  0  0  0  0  0  0
    6.5145    2.5271   -1.3057 H   0  0  0  0  0  0  0  0  0  0  0  0
    5.1348    0.9383   -2.6183 H   0  0  0  0  0  0  0  0  0  0  0  0
    6.5957   -0.1991   -2.5840 H   0  0  0  0  0  0  0  0  0  0  0  0
    4.7390    0.1488    1.7893 H   0  0  0  0  0  0  0  0  0  0  0  0
    2.4294   -0.2922    2.4128 H   0  0  0  0  0  0  0  0  0  0  0  0
    0.8773   -1.7555    2.6723 H   0  0  0  0  0  0  0  0  0  0  0  0
   -3.6000   -2.5282    5.2882 H   0  0  0  0  0  0  0  0  0  0  0  0
   -5.0130   -2.4295    4.1735 H   0  0  0  0  0  0  0  0  0  0  0  0
   -3.9093   -3.9151    4.2107 H   0  0  0  0  0  0  0  0  0  0  0  0
   -4.4342   -1.5890    1.7635 H   0  0  0  0  0  0  0  0  0  0  0  0
   -3.9286    1.5341   -2.0638 H   0  0  0  0  0  0  0  0  0  0  0  0
   -6.7391    0.7652   -1.0774 H   0  0  0  0  0  0  0  0  0  0  0  0
   -6.1560    0.9637   -2.8030 H   0  0  0  0  0  0  0  0  0  0  0  0
   -6.9372    3.2969   -2.1397 H   0  0  0  0  0  0  0  0  0  0  0  0
   -5.0539    1.6591    0.7918 H   0  0  0  0  0  0  0  0  0  0  0  0
   -3.5087    2.4356    0.1274 H   0  0  0  0  0  0  0  0  0  0  0  0
  1  2  1  0
  2  3  1  0
  3  4  1  0
  4  5  2  0
  5  6  1  0
  6  7  1  0
  7  8  2  0
  8  9  1  0
  9 10  2  0
 10 11  1  0
 11 12  1  0
 12 13  1  0
 13 14  1  0
 14 15  1  0
 15 16  1  0
 10 17  1  0
 17 18  2  0
  6 19  2  0
 19 20  1  0
 20 21  2  0
 21 22  1  0
 22 23  1  0
 22 24  1  0
 24 25  2  0
  2 26  1  0
 26 27  1  0
 27 28  1  0
 28 29  1  0
 29 30  2  0
 29 31  1  0
 25  4  1  0
 31 26  1  0
 18  7  1  0
 25 20  1  0
 16 11  1  0
  1 32  1  0
  1 33  1  0
  1 34  1  0
  2 35  1  1
  5 36  1  0
  8 37  1  0
  9 38  1  0
 12 39  1  0
 12 40  1  0
 13 41  1  0
 13 42  1  0
 15 43  1  0
 15 44  1  0
 16 45  1  0
 16 46  1  0
 17 47  1  0
 18 48  1  0
 19 49  1  0
 23 50  1  0
 23 51  1  0
 23 52  1  0
 24 53  1  0
 26 54  1  6
 27 55  1  0
 27 56  1  0
 28 57  1  0
 31 58  1  0
 31 59  1  0
M  END
$$$$
