@<TRIPOS>MOLECULE
*****
 59 63 0 0 0
SMALL
GASTEIGER

@<TRIPOS>ATOM
      1 C          -4.5041   -1.0503   -2.2229 C.3     1  UNL1       -0.0275
      2 C          -4.2458   -0.2736   -0.8966 C.3     1  UNL1        0.1021
      3 O          -2.9510   -0.3379   -0.6270 O.3     1  UNL1       -0.4880
      4 C          -2.0136   -0.7196    0.2515 C.ar    1  UNL1        0.1321
      5 C          -0.6469   -0.5064   -0.0370 C.ar    1  UNL1       -0.0114
      6 C           0.3775   -0.8597    0.7929 C.ar    1  UNL1       -0.0123
      7 C           1.7625   -0.5994    0.4083 C.ar    1  UNL1       -0.0176
      8 C           2.1782   -0.6198   -0.8986 C.ar    1  UNL1       -0.0523
      9 C           3.4973   -0.3709   -1.2617 C.ar    1  UNL1       -0.0401
     10 C           4.4560   -0.0874   -0.2935 C.ar    1  UNL1        0.0298
     11 N           5.7768    0.1735   -0.7120 N.pl3   1  UNL1       -0.3255
     12 C           6.8752    0.0170    0.1981 C.3     1  UNL1        0.0357
     13 C           8.0189    0.9770   -0.0389 C.3     1  UNL1        0.0634
     14 O           8.1748    1.2715   -1.3904 O.3     1  UNL1       -0.3767
     15 C           7.0295    1.7755   -1.9572 C.3     1  UNL1        0.0634
     16 C           6.0329    0.6093   -2.0564 C.3     1  UNL1        0.0357
     17 C           4.0362   -0.0681    1.0119 C.ar    1  UNL1       -0.0401
     18 C           2.7206   -0.3184    1.3526 C.ar    1  UNL1       -0.0523
     19 C           0.0861   -1.4666    1.9988 C.ar    1  UNL1       -0.0260
     20 C          -1.2313   -1.6904    2.3140 C.ar    1  UNL1        0.0968
     21 N          -1.7702   -2.2525    3.4018 N.ar    1  UNL1       -0.1713
     22 N          -3.0753   -2.2639    3.2854 N.ar    1  UNL1       -0.2732
     23 C          -3.9741   -2.8037    4.2891 C.3     1  UNL1        0.0302
     24 C          -3.4402   -1.7010    2.0989 C.ar    1  UNL1        0.0364
     25 C          -2.2816   -1.3343    1.4756 C.ar    1  UNL1        0.0614
     26 C          -4.5984    1.1735   -1.2843 C.3     1  UNL1        0.0195
     27 C          -6.0172    1.3048   -1.7366 C.3     1  UNL1        0.0182
     28 N          -6.2562    2.7275   -1.5956 N.am    1  UNL1       -0.3149
     29 C          -5.3999    3.2329   -0.5802 C.2     1  UNL1        0.2135
     30 O          -5.3769    4.4162   -0.1717 O.2     1  UNL1       -0.2758
     31 C          -4.5391    2.0947   -0.0956 C.3     1  UNL1        0.0315
     32 H          -3.8039   -0.5894   -2.9525 H       1  UNL1        0.0265
     33 H          -5.5553   -0.9659   -2.5196 H       1  UNL1        0.0265
     34 H          -4.2039   -2.1058   -2.0825 H       1  UNL1        0.0265
     35 H          -4.9846   -0.6605   -0.1852 H       1  UNL1        0.0733
     36 H          -0.4637   -0.0270   -0.9946 H       1  UNL1        0.0660
     37 H           1.4863   -0.8313   -1.6896 H       1  UNL1        0.0624
     38 H           3.7443   -0.4149   -2.3176 H       1  UNL1        0.0636
     39 H           7.3029   -1.0072   -0.0263 H       1  UNL1        0.0486
     40 H           6.6325    0.0057    1.2571 H       1  UNL1        0.0486
     41 H           8.9484    0.4755    0.2947 H       1  UNL1        0.0575
     42 H           7.9244    1.9180    0.5082 H       1  UNL1        0.0575
     43 H           7.2615    2.1925   -2.9529 H       1  UNL1        0.0575
     44 H           6.5145    2.5271   -1.3057 H       1  UNL1        0.0575
     45 H           5.1348    0.9383   -2.6183 H       1  UNL1        0.0486
     46 H           6.5957   -0.1991   -2.5840 H       1  UNL1        0.0486
     47 H           4.7390    0.1488    1.7893 H       1  UNL1        0.0636
     48 H           2.4294   -0.2922    2.4128 H       1  UNL1        0.0624
     49 H           0.8773   -1.7555    2.6723 H       1  UNL1        0.0646
     50 H          -3.6000   -2.5282    5.2882 H       1  UNL1        0.0473
     51 H          -5.0130   -2.4295    4.1735 H       1  UNL1        0.0473
     52 H          -3.9093   -3.9151    4.2107 H       1  UNL1        0.0473
     53 H          -4.4342   -1.5890    1.7635 H       1  UNL1        0.0833
     54 H          -3.9286    1.5341   -2.0638 H       1  UNL1        0.0356
     55 H          -6.7391    0.7652   -1.0774 H       1  UNL1        0.0466
     56 H          -6.1560    0.9637   -2.8030 H       1  UNL1        0.0466
     57 H          -6.9372    3.2969   -2.1397 H       1  UNL1        0.1487
     58 H          -5.0539    1.6591    0.7918 H       1  UNL1        0.0363
     59 H          -3.5087    2.4356    0.1274 H       1  UNL1        0.0363
@<TRIPOS>BOND
     1     1     2    1
     2     2     3    1
     3     3     4    1
     4     4     5   ar
     5     5     6   ar
     6     6     7    1
     7     7     8   ar
     8     8     9   ar
     9     9    10   ar
    10    10    11    1
    11    11    12    1
    12    12    13    1
    13    13    14    1
    14    14    15    1
    15    15    16    1
    16    10    17   ar
    17    17    18   ar
    18     6    19   ar
    19    19    20   ar
    20    20    21   ar
    21    21    22   ar
    22    22    23    1
    23    22    24   ar
    24    24    25   ar
    25     2    26    1
    26    26    27    1
    27    27    28    1
    28    28    29   am
    29    29    30    2
    30    29    31    1
    31    25     4   ar
    32    31    26    1
    33    18     7   ar
    34    25    20   ar
    35    16    11    1
    36     1    32    1
    37     1    33    1
    38     1    34    1
    39     2    35    1
    40     5    36    1
    41     8    37    1
    42     9    38    1
    43    12    39    1
    44    12    40    1
    45    13    41    1
    46    13    42    1
    47    15    43    1
    48    15    44    1
    49    16    45    1
    50    16    46    1
    51    17    47    1
    52    18    48    1
    53    19    49    1
    54    23    50    1
    55    23    51    1
    56    23    52    1
    57    24    53    1
    58    26    54    1
    59    27    55    1
    60    27    56    1
    61    28    57    1
    62    31    58    1
    63    31    59    1
