
     RDKit          3D

 43 44  0  0  0  0  0  0  0  0999 V2000
   -6.8723   -0.2961    1.4097 N   0  0  0  0  0  0  0  0  0  0  0  0
   -6.6092   -0.1145   -0.0006 C   0  0  0  0  0  0  0  0  0  0  0  0
   -5.2952    0.6123   -0.2004 C   0  0  0  0  0  0  0  0  0  0  0  0
   -4.2115   -0.2324    0.4250 C   0  0  0  0  0  0  0  0  0  0  0  0
   -2.8530    0.3854    0.2916 C   0  0  0  0  0  0  0  0  0  0  0  0
   -1.8432   -0.5568    0.9595 C   0  0  0  0  0  0  0  0  0  0  0  0
   -0.4739    0.1310    0.7895 C   0  0  0  0  0  0  0  0  0  0  0  0
   -0.1965    0.2971   -0.5867 N   0  0  0  0  0  0  0  0  0  0  0  0
    1.2902    1.0418   -0.9951 S   0  0  0  0  0  0  0  0  0  0  0  0
    1.2630    1.1730   -2.5156 O   0  0  0  0  0  0  0  0  0  0  0  0
    1.3545    2.4463   -0.4224 O   0  0  0  0  0  0  0  0  0  0  0  0
    2.6147    0.0855   -0.4603 C   0  0  0  0  0  0  0  0  0  0  0  0
    2.6320   -1.1770    0.0787 C   0  0  0  0  0  0  0  0  0  0  0  0
    3.7248   -1.9086    0.4696 C   0  0  0  0  0  0  0  0  0  0  0  0
    4.9744   -1.3447    0.3184 C   0  0  0  0  0  0  0  0  0  0  0  0
    5.0581   -0.0766   -0.2176 C   0  0  0  0  0  0  0  0  0  0  0  0
    3.9104    0.5937   -0.5857 C   0  0  0  0  0  0  0  0  0  0  0  0
    4.1676    1.8415   -1.1091 C   0  0  0  0  0  0  0  0  0  0  0  0
    5.4138    2.4032   -1.2673 C   0  0  0  0  0  0  0  0  0  0  0  0
    6.5167    1.6781   -0.8776 C   0  0  0  0  0  0  0  0  0  0  0  0
    6.3247    0.4217   -0.3467 C   0  0  0  0  0  0  0  0  0  0  0  0
    7.7365   -0.4843    0.1423 Cl  0  0  0  0  0  0  0  0  0  0  0  0
   -6.7307   -1.2844    1.7311 H   0  0  0  0  0  0  0  0  0  0  0  0
   -6.3197    0.4069    1.9333 H   0  0  0  0  0  0  0  0  0  0  0  0
   -6.5826   -1.0998   -0.5306 H   0  0  0  0  0  0  0  0  0  0  0  0
   -7.4377    0.4511   -0.4709 H   0  0  0  0  0  0  0  0  0  0  0  0
   -5.3715    1.6161    0.2537 H   0  0  0  0  0  0  0  0  0  0  0  0
   -5.1556    0.6938   -1.2993 H   0  0  0  0  0  0  0  0  0  0  0  0
   -4.2330   -1.2241   -0.0245 H   0  0  0  0  0  0  0  0  0  0  0  0
   -4.4385   -0.2673    1.5136 H   0  0  0  0  0  0  0  0  0  0  0  0
   -2.7620    1.3413    0.8201 H   0  0  0  0  0  0  0  0  0  0  0  0
   -2.5360    0.4671   -0.7718 H   0  0  0  0  0  0  0  0  0  0  0  0
   -2.0617   -0.7006    2.0231 H   0  0  0  0  0  0  0  0  0  0  0  0
   -1.8229   -1.5302    0.4513 H   0  0  0  0  0  0  0  0  0  0  0  0
   -0.5719    1.1105    1.3368 H   0  0  0  0  0  0  0  0  0  0  0  0
    0.2502   -0.4559    1.3478 H   0  0  0  0  0  0  0  0  0  0  0  0
   -0.4864   -0.4709   -1.1949 H   0  0  0  0  0  0  0  0  0  0  0  0
    1.6932   -1.6893    0.1957 H   0  0  0  0  0  0  0  0  0  0  0  0
    3.6391   -2.8877    0.8816 H   0  0  0  0  0  0  0  0  0  0  0  0
    5.8357   -1.8953    0.6158 H   0  0  0  0  0  0  0  0  0  0  0  0
    3.3748    2.4883   -1.4517 H   0  0  0  0  0  0  0  0  0  0  0  0
    5.5843    3.3868   -1.6818 H   0  0  0  0  0  0  0  0  0  0  0  0
    7.5065    2.0655   -0.9775 H   0  0  0  0  0  0  0  0  0  0  0  0
  1  2  1  0
  2  3  1  0
  3  4  1  0
  4  5  1  0
  5  6  1  0
  6  7  1  0
  7  8  1  0
  8  9  1  0
  9 10  2  0
  9 11  2  0
  9 12  1  0
 12 13  2  0
 13 14  1  0
 14 15  2  0
 15 16  1  0
 16 17  2  0
 17 18  1  0
 18 19  2  0
 19 20  1  0
 20 21  2  0
 21 22  1  0
 17 12  1  0
 21 16  1  0
  1 23  1  0
  1 24  1  0
  2 25  1  0
  2 26  1  0
  3 27  1  0
  3 28  1  0
  4 29  1  0
  4 30  1  0
  5 31  1  0
  5 32  1  0
  6 33  1  0
  6 34  1  0
  7 35  1  0
  7 36  1  0
  8 37  1  0
 13 38  1  0
 14 39  1  0
 15 40  1  0
 18 41  1  0
 19 42  1  0
 20 43  1  0
M  END
$$$$
