@<TRIPOS>MOLECULE
*****
 43 44 0 0 0
SMALL
GASTEIGER

@<TRIPOS>ATOM
      1 N          -6.8723   -0.2961    1.4097 N.3     1  UNL1       -0.3300
      2 C          -6.6092   -0.1145   -0.0006 C.3     1  UNL1       -0.0069
      3 C          -5.2952    0.6123   -0.2004 C.3     1  UNL1       -0.0406
      4 C          -4.2115   -0.2324    0.4250 C.3     1  UNL1       -0.0519
      5 C          -2.8530    0.3854    0.2916 C.3     1  UNL1       -0.0518
      6 C          -1.8432   -0.5568    0.9595 C.3     1  UNL1       -0.0388
      7 C          -0.4739    0.1310    0.7895 C.3     1  UNL1        0.0174
      8 N          -0.1965    0.2971   -0.5867 N.3     1  UNL1       -0.1899
      9 S           1.2902    1.0418   -0.9951 S.O2    1  UNL1        0.0590
     10 O           1.2630    1.1730   -2.5156 O.2     1  UNL1       -0.1530
     11 O           1.3545    2.4463   -0.4224 O.2     1  UNL1       -0.1530
     12 C           2.6147    0.0855   -0.4603 C.ar    1  UNL1        0.1129
     13 C           2.6320   -1.1770    0.0787 C.ar    1  UNL1       -0.0347
     14 C           3.7248   -1.9086    0.4696 C.ar    1  UNL1       -0.0593
     15 C           4.9744   -1.3447    0.3184 C.ar    1  UNL1       -0.0525
     16 C           5.0581   -0.0766   -0.2176 C.ar    1  UNL1        0.0023
     17 C           3.9104    0.5937   -0.5857 C.ar    1  UNL1        0.0098
     18 C           4.1676    1.8415   -1.1091 C.ar    1  UNL1       -0.0521
     19 C           5.4138    2.4032   -1.2673 C.ar    1  UNL1       -0.0597
     20 C           6.5167    1.6781   -0.8776 C.ar    1  UNL1       -0.0428
     21 C           6.3247    0.4217   -0.3467 C.ar    1  UNL1        0.0487
     22 CL          7.7365   -0.4843    0.1423 Cl      1  UNL1       -0.0829
     23 H          -6.7307   -1.2844    1.7311 H       1  UNL1        0.1182
     24 H          -6.3197    0.4069    1.9333 H       1  UNL1        0.1182
     25 H          -6.5826   -1.0998   -0.5306 H       1  UNL1        0.0422
     26 H          -7.4377    0.4511   -0.4709 H       1  UNL1        0.0422
     27 H          -5.3715    1.6161    0.2537 H       1  UNL1        0.0277
     28 H          -5.1556    0.6938   -1.2993 H       1  UNL1        0.0277
     29 H          -4.2330   -1.2241   -0.0245 H       1  UNL1        0.0266
     30 H          -4.4385   -0.2673    1.5136 H       1  UNL1        0.0266
     31 H          -2.7620    1.3413    0.8201 H       1  UNL1        0.0266
     32 H          -2.5360    0.4671   -0.7718 H       1  UNL1        0.0266
     33 H          -2.0617   -0.7006    2.0231 H       1  UNL1        0.0278
     34 H          -1.8229   -1.5302    0.4513 H       1  UNL1        0.0278
     35 H          -0.5719    1.1105    1.3368 H       1  UNL1        0.0441
     36 H           0.2502   -0.4559    1.3478 H       1  UNL1        0.0441
     37 H          -0.4864   -0.4709   -1.1949 H       1  UNL1        0.1480
     38 H           1.6932   -1.6893    0.1957 H       1  UNL1        0.0637
     39 H           3.6391   -2.8877    0.8816 H       1  UNL1        0.0618
     40 H           5.8357   -1.8953    0.6158 H       1  UNL1        0.0624
     41 H           3.3748    2.4883   -1.4517 H       1  UNL1        0.0624
     42 H           5.5843    3.3868   -1.6818 H       1  UNL1        0.0618
     43 H           7.5065    2.0655   -0.9775 H       1  UNL1        0.0632
@<TRIPOS>BOND
     1     1     2    1
     2     2     3    1
     3     3     4    1
     4     4     5    1
     5     5     6    1
     6     6     7    1
     7     7     8    1
     8     8     9    1
     9     9    10    2
    10     9    11    2
    11     9    12    1
    12    12    13   ar
    13    13    14   ar
    14    14    15   ar
    15    15    16   ar
    16    16    17   ar
    17    17    18   ar
    18    18    19   ar
    19    19    20   ar
    20    20    21   ar
    21    21    22    1
    22    17    12   ar
    23    21    16   ar
    24     1    23    1
    25     1    24    1
    26     2    25    1
    27     2    26    1
    28     3    27    1
    29     3    28    1
    30     4    29    1
    31     4    30    1
    32     5    31    1
    33     5    32    1
    34     6    33    1
    35     6    34    1
    36     7    35    1
    37     7    36    1
    38     8    37    1
    39    13    38    1
    40    14    39    1
    41    15    40    1
    42    18    41    1
    43    19    42    1
    44    20    43    1
