
     RDKit          3D

 36 37  0  0  0  0  0  0  0  0999 V2000
    4.3911   -0.7933   -1.8759 O   0  0  0  0  0  0  0  0  0  0  0  0
    4.6733   -1.1144   -0.7072 C   0  0  0  0  0  0  0  0  0  0  0  0
    5.9737   -1.5944   -0.4964 O   0  0  0  0  0  0  0  0  0  0  0  0
    3.8009   -1.0462    0.4654 C   0  0  0  0  0  0  0  0  0  0  0  0
    2.5289   -0.5426    0.2612 O   0  0  0  0  0  0  0  0  0  0  0  0
    2.1644    0.7078   -0.1845 C   0  0  0  0  0  0  0  0  0  0  0  0
    3.1180    1.6759   -0.4933 C   0  0  0  0  0  0  0  0  0  0  0  0
    2.6773    2.9121   -0.9355 C   0  0  0  0  0  0  0  0  0  0  0  0
    3.5884    3.8682   -1.2417 F   0  0  0  0  0  0  0  0  0  0  0  0
    1.3371    3.1965   -1.0727 C   0  0  0  0  0  0  0  0  0  0  0  0
    0.4241    2.2124   -0.7568 C   0  0  0  0  0  0  0  0  0  0  0  0
    0.8139    0.9672   -0.3131 C   0  0  0  0  0  0  0  0  0  0  0  0
   -0.1458   -0.0966    0.0297 C   0  0  0  0  0  0  0  0  0  0  0  0
   -0.3957   -1.2753   -1.0329 S   0  0  0  0  0  0  0  0  0  0  0  0
   -0.7888   -0.0114    1.2838 N   0  0  0  0  0  0  0  0  0  0  0  0
   -1.7551   -0.9352    1.8150 C   0  0  0  0  0  0  0  0  0  0  0  0
   -2.9325   -0.9575    0.9175 C   0  0  0  0  0  0  0  0  0  0  0  0
   -3.2285   -2.0195    0.0969 C   0  0  0  0  0  0  0  0  0  0  0  0
   -4.3550   -2.0204   -0.7275 C   0  0  0  0  0  0  0  0  0  0  0  0
   -5.2178   -0.9468   -0.7472 C   0  0  0  0  0  0  0  0  0  0  0  0
   -6.7584   -0.9410   -1.8711 Br  0  0  0  0  0  0  0  0  0  0  0  0
   -4.9415    0.1211    0.0630 C   0  0  0  0  0  0  0  0  0  0  0  0
   -3.8275    0.1173    0.8753 C   0  0  0  0  0  0  0  0  0  0  0  0
   -3.5349    1.1680    1.6878 F   0  0  0  0  0  0  0  0  0  0  0  0
    6.6859   -1.5086   -1.2051 H   0  0  0  0  0  0  0  0  0  0  0  0
    3.6747   -2.0873    0.8844 H   0  0  0  0  0  0  0  0  0  0  0  0
    4.2757   -0.4270    1.2818 H   0  0  0  0  0  0  0  0  0  0  0  0
    4.1723    1.4595   -0.3817 H   0  0  0  0  0  0  0  0  0  0  0  0
    0.9947    4.1617   -1.4179 H   0  0  0  0  0  0  0  0  0  0  0  0
   -0.6575    2.3815   -0.8465 H   0  0  0  0  0  0  0  0  0  0  0  0
   -0.5569    0.8111    1.9287 H   0  0  0  0  0  0  0  0  0  0  0  0
   -2.0481   -0.7092    2.8491 H   0  0  0  0  0  0  0  0  0  0  0  0
   -1.3543   -1.9726    1.8201 H   0  0  0  0  0  0  0  0  0  0  0  0
   -2.5848   -2.8910    0.0865 H   0  0  0  0  0  0  0  0  0  0  0  0
   -4.5911   -2.8534   -1.3744 H   0  0  0  0  0  0  0  0  0  0  0  0
   -5.6200    0.9834    0.0583 H   0  0  0  0  0  0  0  0  0  0  0  0
  1  2  2  0
  2  3  1  0
  2  4  1  0
  4  5  1  0
  5  6  1  0
  6  7  2  0
  7  8  1  0
  8  9  1  0
  8 10  2  0
 10 11  1  0
 11 12  2  0
 12 13  1  0
 13 14  2  0
 13 15  1  0
 15 16  1  0
 16 17  1  0
 17 18  2  0
 18 19  1  0
 19 20  2  0
 20 21  1  0
 20 22  1  0
 22 23  2  0
 23 24  1  0
 12  6  1  0
 23 17  1  0
  3 25  1  0
  4 26  1  0
  4 27  1  0
  7 28  1  0
 10 29  1  0
 11 30  1  0
 15 31  1  0
 16 32  1  0
 16 33  1  0
 18 34  1  0
 19 35  1  0
 22 36  1  0
M  END
$$$$
