@<TRIPOS>MOLECULE
*****
 36 37 0 0 0
SMALL
GASTEIGER

@<TRIPOS>ATOM
      1 O           4.3911   -0.7933   -1.8759 O.2     1  UNL1       -0.2472
      2 C           4.6733   -1.1144   -0.7072 C.2     1  UNL1        0.3427
      3 O           5.9737   -1.5944   -0.4964 O.3     1  UNL1       -0.4783
      4 C           3.8009   -1.0462    0.4654 C.3     1  UNL1        0.1857
      5 O           2.5289   -0.5426    0.2612 O.3     1  UNL1       -0.4800
      6 C           2.1644    0.7078   -0.1845 C.ar    1  UNL1        0.1334
      7 C           3.1180    1.6759   -0.4933 C.ar    1  UNL1        0.0160
      8 C           2.6773    2.9121   -0.9355 C.ar    1  UNL1        0.1269
      9 F           3.5884    3.8682   -1.2417 F       1  UNL1       -0.2054
     10 C           1.3371    3.1965   -1.0727 C.ar    1  UNL1       -0.0256
     11 C           0.4241    2.2124   -0.7568 C.ar    1  UNL1       -0.0461
     12 C           0.8139    0.9672   -0.3131 C.ar    1  UNL1        0.0450
     13 C          -0.1458   -0.0966    0.0297 C.2     1  UNL1        0.0832
     14 S          -0.3957   -1.2753   -1.0329 S.2     1  UNL1       -0.0349
     15 N          -0.7888   -0.0114    1.2838 N.am    1  UNL1       -0.3333
     16 C          -1.7551   -0.9352    1.8150 C.3     1  UNL1        0.0376
     17 C          -2.9325   -0.9575    0.9175 C.ar    1  UNL1        0.0048
     18 C          -3.2285   -2.0195    0.0969 C.ar    1  UNL1       -0.0533
     19 C          -4.3550   -2.0204   -0.7275 C.ar    1  UNL1       -0.0473
     20 C          -5.2178   -0.9468   -0.7472 C.ar    1  UNL1        0.0206
     21 BR         -6.7584   -0.9410   -1.8711 Br      1  UNL1       -0.0502
     22 C          -4.9415    0.1211    0.0630 C.ar    1  UNL1       -0.0122
     23 C          -3.8275    0.1173    0.8753 C.ar    1  UNL1        0.1291
     24 F          -3.5349    1.1680    1.6878 F       1  UNL1       -0.2051
     25 H           6.6859   -1.5086   -1.2051 H       1  UNL1        0.2952
     26 H           3.6747   -2.0873    0.8844 H       1  UNL1        0.0815
     27 H           4.2757   -0.4270    1.2818 H       1  UNL1        0.0815
     28 H           4.1723    1.4595   -0.3817 H       1  UNL1        0.0683
     29 H           0.9947    4.1617   -1.4179 H       1  UNL1        0.0646
     30 H          -0.6575    2.3815   -0.8465 H       1  UNL1        0.0626
     31 H          -0.5569    0.8111    1.9287 H       1  UNL1        0.1469
     32 H          -2.0481   -0.7092    2.8491 H       1  UNL1        0.0512
     33 H          -1.3543   -1.9726    1.8201 H       1  UNL1        0.0512
     34 H          -2.5848   -2.8910    0.0865 H       1  UNL1        0.0622
     35 H          -4.5911   -2.8534   -1.3744 H       1  UNL1        0.0629
     36 H          -5.6200    0.9834    0.0583 H       1  UNL1        0.0657
@<TRIPOS>BOND
     1     1     2    2
     2     2     3    1
     3     2     4    1
     4     4     5    1
     5     5     6    1
     6     6     7   ar
     7     7     8   ar
     8     8     9    1
     9     8    10   ar
    10    10    11   ar
    11    11    12   ar
    12    12    13    1
    13    13    14    2
    14    13    15    1
    15    15    16    1
    16    16    17    1
    17    17    18   ar
    18    18    19   ar
    19    19    20   ar
    20    20    21    1
    21    20    22   ar
    22    22    23   ar
    23    23    24    1
    24    12     6   ar
    25    23    17   ar
    26     3    25    1
    27     4    26    1
    28     4    27    1
    29     7    28    1
    30    10    29    1
    31    11    30    1
    32    15    31    1
    33    16    32    1
    34    16    33    1
    35    18    34    1
    36    19    35    1
    37    22    36    1
