
     RDKit          3D

 50 53  0  0  0  0  0  0  0  0999 V2000
    9.1137    0.5035   -0.4658 C   0  0  0  0  0  0  0  0  0  0  0  0
    8.3114   -0.7428   -0.6472 C   0  0  0  0  0  0  0  0  0  0  0  0
    6.8996   -0.5352   -0.2932 N   0  0  0  0  0  0  0  0  0  0  0  0
    6.5106   -0.1342    0.9990 C   0  0  0  0  0  0  0  0  0  0  0  0
    7.4329    0.0397    1.8433 O   0  0  0  0  0  0  0  0  0  0  0  0
    5.1232    0.0916    1.4225 C   0  0  0  0  0  0  0  0  0  0  0  0
    4.8548    0.4846    2.7173 C   0  0  0  0  0  0  0  0  0  0  0  0
    3.5797    0.7067    3.1568 C   0  0  0  0  0  0  0  0  0  0  0  0
    2.5287    0.5198    2.2349 C   0  0  0  0  0  0  0  0  0  0  0  0
    2.7434    0.1320    0.9441 C   0  0  0  0  0  0  0  0  0  0  0  0
    1.7632   -0.0750   -0.0290 N   0  0  0  0  0  0  0  0  0  0  0  0
    0.3530    0.0634    0.0842 C   0  0  0  0  0  0  0  0  0  0  0  0
   -0.0816    0.4176    1.1995 O   0  0  0  0  0  0  0  0  0  0  0  0
   -0.5226   -0.1830   -0.9982 N   0  0  0  0  0  0  0  0  0  0  0  0
   -1.9304   -0.0691   -0.9698 C   0  0  0  0  0  0  0  0  0  0  0  0
   -2.6614   -0.3483   -2.1248 C   0  0  0  0  0  0  0  0  0  0  0  0
   -4.0232   -0.2474   -2.1290 C   0  0  0  0  0  0  0  0  0  0  0  0
   -4.7571    0.1302   -1.0132 C   0  0  0  0  0  0  0  0  0  0  0  0
   -6.2084    0.2288   -1.0882 C   0  0  0  0  0  0  0  0  0  0  0  0
   -6.8471    0.9325   -2.0971 C   0  0  0  0  0  0  0  0  0  0  0  0
   -8.2157    1.0366   -2.1595 C   0  0  0  0  0  0  0  0  0  0  0  0
   -8.9532    0.4461   -1.2260 N   0  0  0  0  0  0  0  0  0  0  0  0
   -8.3513   -0.2545   -0.2198 C   0  0  0  0  0  0  0  0  0  0  0  0
   -8.8203   -0.9417    0.8322 N   0  0  0  0  0  0  0  0  0  0  0  0
   -7.8116   -1.4620    1.5358 C   0  0  0  0  0  0  0  0  0  0  0  0
   -6.6697   -1.1135    0.9410 N   0  0  0  0  0  0  0  0  0  0  0  0
   -6.9813   -0.3761   -0.1316 C   0  0  0  0  0  0  0  0  0  0  0  0
   -4.0504    0.4082    0.1306 C   0  0  0  0  0  0  0  0  0  0  0  0
   -2.6452    0.3037    0.1340 C   0  0  0  0  0  0  0  0  0  0  0  0
    4.0604   -0.0714    0.5804 C   0  0  0  0  0  0  0  0  0  0  0  0
    8.4787    1.4209   -0.4415 H   0  0  0  0  0  0  0  0  0  0  0  0
    9.6818    0.4528    0.4805 H   0  0  0  0  0  0  0  0  0  0  0  0
    9.8529    0.5480   -1.3032 H   0  0  0  0  0  0  0  0  0  0  0  0
    8.6936   -1.5280    0.0569 H   0  0  0  0  0  0  0  0  0  0  0  0
    8.3654   -1.1742   -1.6467 H   0  0  0  0  0  0  0  0  0  0  0  0
    6.1688   -0.6892   -1.0188 H   0  0  0  0  0  0  0  0  0  0  0  0
    5.6949    0.6200    3.4056 H   0  0  0  0  0  0  0  0  0  0  0  0
    3.3210    1.0113    4.1474 H   0  0  0  0  0  0  0  0  0  0  0  0
    1.5187    0.6919    2.5701 H   0  0  0  0  0  0  0  0  0  0  0  0
    2.0741   -0.3809   -1.0094 H   0  0  0  0  0  0  0  0  0  0  0  0
   -0.0479   -0.4773   -1.8953 H   0  0  0  0  0  0  0  0  0  0  0  0
   -2.1190   -0.6423   -3.0012 H   0  0  0  0  0  0  0  0  0  0  0  0
   -4.6180   -0.4629   -3.0284 H   0  0  0  0  0  0  0  0  0  0  0  0
   -6.1858    1.3992   -2.8402 H   0  0  0  0  0  0  0  0  0  0  0  0
   -8.6346    1.6096   -2.9878 H   0  0  0  0  0  0  0  0  0  0  0  0
   -7.8608   -2.0710    2.4430 H   0  0  0  0  0  0  0  0  0  0  0  0
   -5.6816   -1.3490    1.2161 H   0  0  0  0  0  0  0  0  0  0  0  0
   -4.5449    0.7147    1.0376 H   0  0  0  0  0  0  0  0  0  0  0  0
   -2.1762    0.5417    1.0784 H   0  0  0  0  0  0  0  0  0  0  0  0
    4.2749   -0.3774   -0.4266 H   0  0  0  0  0  0  0  0  0  0  0  0
  1  2  1  0
  2  3  1  0
  3  4  1  0
  4  5  2  0
  4  6  1  0
  6  7  2  0
  7  8  1  0
  8  9  2  0
  9 10  1  0
 10 11  1  0
 11 12  1  0
 12 13  2  0
 12 14  1  0
 14 15  1  0
 15 16  2  0
 16 17  1  0
 17 18  2  0
 18 19  1  0
 19 20  2  0
 20 21  1  0
 21 22  2  0
 22 23  1  0
 23 24  1  0
 24 25  2  0
 25 26  1  0
 26 27  1  0
 18 28  1  0
 28 29  2  0
 10 30  2  0
 30  6  1  0
 29 15  1  0
 27 19  1  0
 27 23  2  0
  1 31  1  0
  1 32  1  0
  1 33  1  0
  2 34  1  0
  2 35  1  0
  3 36  1  0
  7 37  1  0
  8 38  1  0
  9 39  1  0
 11 40  1  0
 14 41  1  0
 16 42  1  0
 17 43  1  0
 20 44  1  0
 21 45  1  0
 25 46  1  0
 26 47  1  0
 28 48  1  0
 29 49  1  0
 30 50  1  0
M  END
$$$$
