@<TRIPOS>MOLECULE
*****
 50 53 0 0 0
SMALL
GASTEIGER

@<TRIPOS>ATOM
      1 C           9.1137    0.5035   -0.4658 C.3     1  UNL1       -0.0495
      2 C           8.3114   -0.7428   -0.6472 C.3     1  UNL1        0.0091
      3 N           6.8996   -0.5352   -0.2932 N.am    1  UNL1       -0.3116
      4 C           6.5106   -0.1342    0.9990 C.2     1  UNL1        0.2441
      5 O           7.4329    0.0397    1.8433 O.2     1  UNL1       -0.2702
      6 C           5.1232    0.0916    1.4225 C.ar    1  UNL1        0.0384
      7 C           4.8548    0.4846    2.7173 C.ar    1  UNL1       -0.0495
      8 C           3.5797    0.7067    3.1568 C.ar    1  UNL1       -0.0593
      9 C           2.5287    0.5198    2.2349 C.ar    1  UNL1       -0.0404
     10 C           2.7434    0.1320    0.9441 C.ar    1  UNL1        0.0355
     11 N           1.7632   -0.0750   -0.0290 N.am    1  UNL1       -0.2692
     12 C           0.3530    0.0634    0.0842 C.2     1  UNL1        0.3081
     13 O          -0.0816    0.4176    1.1995 O.2     1  UNL1       -0.2522
     14 N          -0.5226   -0.1830   -0.9982 N.am    1  UNL1       -0.2692
     15 C          -1.9304   -0.0691   -0.9698 C.ar    1  UNL1        0.0348
     16 C          -2.6614   -0.3483   -2.1248 C.ar    1  UNL1       -0.0399
     17 C          -4.0232   -0.2474   -2.1290 C.ar    1  UNL1       -0.0522
     18 C          -4.7571    0.1302   -1.0132 C.ar    1  UNL1       -0.0156
     19 C          -6.2084    0.2288   -1.0882 C.ar    1  UNL1        0.0105
     20 C          -6.8471    0.9325   -2.0971 C.ar    1  UNL1       -0.0338
     21 C          -8.2157    1.0366   -2.1595 C.ar    1  UNL1        0.0307
     22 N          -8.9532    0.4461   -1.2260 N.ar    1  UNL1       -0.2344
     23 C          -8.3513   -0.2545   -0.2198 C.ar    1  UNL1        0.1783
     24 N          -8.8203   -0.9417    0.8322 N.ar    1  UNL1       -0.2166
     25 C          -7.8116   -1.4620    1.5358 C.ar    1  UNL1        0.0962
     26 N          -6.6697   -1.1135    0.9410 N.ar    1  UNL1       -0.3426
     27 C          -6.9813   -0.3761   -0.1316 C.ar    1  UNL1        0.0929
     28 C          -4.0504    0.4082    0.1306 C.ar    1  UNL1       -0.0522
     29 C          -2.6452    0.3037    0.1340 C.ar    1  UNL1       -0.0399
     30 C           4.0604   -0.0714    0.5804 C.ar    1  UNL1       -0.0283
     31 H           8.4787    1.4209   -0.4415 H       1  UNL1        0.0245
     32 H           9.6818    0.4528    0.4805 H       1  UNL1        0.0245
     33 H           9.8529    0.5480   -1.3032 H       1  UNL1        0.0245
     34 H           8.6936   -1.5280    0.0569 H       1  UNL1        0.0459
     35 H           8.3654   -1.1742   -1.6467 H       1  UNL1        0.0459
     36 H           6.1688   -0.6892   -1.0188 H       1  UNL1        0.1490
     37 H           5.6949    0.6200    3.4056 H       1  UNL1        0.0625
     38 H           3.3210    1.0113    4.1474 H       1  UNL1        0.0618
     39 H           1.5187    0.6919    2.5701 H       1  UNL1        0.0636
     40 H           2.0741   -0.3809   -1.0094 H       1  UNL1        0.1564
     41 H          -0.0479   -0.4773   -1.8953 H       1  UNL1        0.1564
     42 H          -2.1190   -0.6423   -3.0012 H       1  UNL1        0.0636
     43 H          -4.6180   -0.4629   -3.0284 H       1  UNL1        0.0624
     44 H          -6.1858    1.3992   -2.8402 H       1  UNL1        0.0639
     45 H          -8.6346    1.6096   -2.9878 H       1  UNL1        0.0830
     46 H          -7.8608   -2.0710    2.4430 H       1  UNL1        0.1027
     47 H          -5.6816   -1.3490    1.2161 H       1  UNL1        0.1669
     48 H          -4.5449    0.7147    1.0376 H       1  UNL1        0.0624
     49 H          -2.1762    0.5417    1.0784 H       1  UNL1        0.0636
     50 H           4.2749   -0.3774   -0.4266 H       1  UNL1        0.0644
@<TRIPOS>BOND
     1     1     2    1
     2     2     3    1
     3     3     4   am
     4     4     5    2
     5     4     6    1
     6     6     7   ar
     7     7     8   ar
     8     8     9   ar
     9     9    10   ar
    10    10    11    1
    11    11    12   am
    12    12    13    2
    13    12    14   am
    14    14    15    1
    15    15    16   ar
    16    16    17   ar
    17    17    18   ar
    18    18    19    1
    19    19    20   ar
    20    20    21   ar
    21    21    22   ar
    22    22    23   ar
    23    23    24   ar
    24    24    25   ar
    25    25    26   ar
    26    26    27   ar
    27    18    28   ar
    28    28    29   ar
    29    10    30   ar
    30    30     6   ar
    31    29    15   ar
    32    27    19   ar
    33    27    23   ar
    34     1    31    1
    35     1    32    1
    36     1    33    1
    37     2    34    1
    38     2    35    1
    39     3    36    1
    40     7    37    1
    41     8    38    1
    42     9    39    1
    43    11    40    1
    44    14    41    1
    45    16    42    1
    46    17    43    1
    47    20    44    1
    48    21    45    1
    49    25    46    1
    50    26    47    1
    51    28    48    1
    52    29    49    1
    53    30    50    1
