
     RDKit          3D

 80 82  0  0  0  0  0  0  0  0999 V2000
    8.3640   -2.3567   -1.5798 C   0  0  0  0  0  0  0  0  0  0  0  0
    7.1398   -1.9996   -0.7712 C   0  0  0  0  0  0  0  0  0  0  0  0
    6.1580   -1.2071   -1.6033 C   0  0  0  0  0  0  0  0  0  0  0  0
    4.9557   -0.9063   -0.6679 C   0  0  0  0  0  0  0  0  0  0  0  0
    3.9469   -0.1279   -1.4161 C   0  0  0  0  0  0  0  0  0  0  0  0
    2.7118    0.2053   -0.6960 N   0  0  0  0  0  0  0  0  0  0  0  0
    2.5341    1.4518   -0.0522 C   0  0  0  0  0  0  0  0  0  0  0  0
    2.7874    1.6407    1.3756 C   0  0  0  0  0  0  0  0  0  0  0  0
    4.1439    1.4097    1.9324 C   0  0  0  0  0  0  0  0  0  0  0  0
    5.2320    2.2345    1.3223 C   0  0  0  0  0  0  0  0  0  0  0  0
    6.5463    1.8830    1.9956 C   0  0  0  0  0  0  0  0  0  0  0  0
    1.7094   -0.7739   -0.7605 C   0  0  0  0  0  0  0  0  0  0  0  0
    2.1136   -1.8709   -1.3654 O   0  0  0  0  0  0  0  0  0  0  0  0
    0.3884   -0.8492   -0.3343 N   0  0  0  0  0  0  0  0  0  0  0  0
   -0.3522    0.1977    0.2712 C   0  0  0  0  0  0  0  0  0  0  0  0
   -1.7435   -0.3174    0.7365 C   0  0  0  0  0  0  0  0  0  0  0  0
   -2.4404   -0.8548   -0.3887 N   0  0  0  0  0  0  0  0  0  0  0  0
   -3.6852   -0.4341   -0.8246 C   0  0  0  0  0  0  0  0  0  0  0  0
   -4.1281   -1.0742   -1.8871 O   0  0  0  0  0  0  0  0  0  0  0  0
   -4.5675    0.5411   -0.3553 N   0  0  0  0  0  0  0  0  0  0  0  0
   -5.8380    0.7724   -1.0261 C   0  0  0  0  0  0  0  0  0  0  0  0
   -5.8913    1.6744   -2.0504 C   0  0  0  0  0  0  0  0  0  0  0  0
   -7.0943    1.9347   -2.7276 C   0  0  0  0  0  0  0  0  0  0  0  0
   -8.2434    1.2624   -2.3459 C   0  0  0  0  0  0  0  0  0  0  0  0
   -8.1869    0.3594   -1.3193 C   0  0  0  0  0  0  0  0  0  0  0  0
   -6.9920    0.1201   -0.6684 C   0  0  0  0  0  0  0  0  0  0  0  0
   -4.3905    1.3956    0.7647 C   0  0  0  0  0  0  0  0  0  0  0  0
   -4.8413    0.9999    2.0191 C   0  0  0  0  0  0  0  0  0  0  0  0
   -4.6702    1.8810    3.0555 C   0  0  0  0  0  0  0  0  0  0  0  0
   -4.0847    3.1028    2.8919 C   0  0  0  0  0  0  0  0  0  0  0  0
   -3.6506    3.4663    1.6478 C   0  0  0  0  0  0  0  0  0  0  0  0
   -3.7867    2.6381    0.5584 C   0  0  0  0  0  0  0  0  0  0  0  0
   -1.7069   -1.9371   -1.0996 C   0  0  2  0  0  0  0  0  0  0  0  0
   -2.5169   -3.1645   -1.1297 C   0  0  0  0  0  0  0  0  0  0  0  0
   -2.1184   -4.1993   -1.7229 O   0  0  0  0  0  0  0  0  0  0  0  0
   -3.7728   -3.2638   -0.5054 O   0  0  0  0  0  0  0  0  0  0  0  0
   -4.5096   -4.4715   -0.5643 C   0  0  0  0  0  0  0  0  0  0  0  0
   -0.3653   -2.1347   -0.4899 C   0  0  0  0  0  0  0  0  0  0  0  0
    8.1296   -3.1632   -2.3078 H   0  0  0  0  0  0  0  0  0  0  0  0
    8.6698   -1.4150   -2.1076 H   0  0  0  0  0  0  0  0  0  0  0  0
    9.1422   -2.6733   -0.8444 H   0  0  0  0  0  0  0  0  0  0  0  0
    6.6505   -2.9348   -0.4624 H   0  0  0  0  0  0  0  0  0  0  0  0
    7.4765   -1.4337    0.1159 H   0  0  0  0  0  0  0  0  0  0  0  0
    6.5739   -0.2607   -1.9895 H   0  0  0  0  0  0  0  0  0  0  0  0
    5.7707   -1.8247   -2.4187 H   0  0  0  0  0  0  0  0  0  0  0  0
    5.3908   -0.4406    0.2135 H   0  0  0  0  0  0  0  0  0  0  0  0
    4.5476   -1.8960   -0.3935 H   0  0  0  0  0  0  0  0  0  0  0  0
    3.6660   -0.6952   -2.3504 H   0  0  0  0  0  0  0  0  0  0  0  0
    4.4295    0.7949   -1.8056 H   0  0  0  0  0  0  0  0  0  0  0  0
    1.5148    1.8487   -0.2856 H   0  0  0  0  0  0  0  0  0  0  0  0
    3.1975    2.2022   -0.6309 H   0  0  0  0  0  0  0  0  0  0  0  0
    2.5219    2.7174    1.6533 H   0  0  0  0  0  0  0  0  0  0  0  0
    2.0910    1.0608    2.0496 H   0  0  0  0  0  0  0  0  0  0  0  0
    4.4625    0.3825    2.0741 H   0  0  0  0  0  0  0  0  0  0  0  0
    4.0727    1.7937    3.0262 H   0  0  0  0  0  0  0  0  0  0  0  0
    5.3341    1.9651    0.2544 H   0  0  0  0  0  0  0  0  0  0  0  0
    5.0856    3.3254    1.4830 H   0  0  0  0  0  0  0  0  0  0  0  0
    6.5764    0.8085    2.2791 H   0  0  0  0  0  0  0  0  0  0  0  0
    7.4149    2.0966    1.3673 H   0  0  0  0  0  0  0  0  0  0  0  0
    6.6423    2.4612    2.9478 H   0  0  0  0  0  0  0  0  0  0  0  0
    0.0774    0.6525    1.1531 H   0  0  0  0  0  0  0  0  0  0  0  0
   -0.5609    1.0146   -0.4865 H   0  0  0  0  0  0  0  0  0  0  0  0
   -1.5533   -1.1936    1.4260 H   0  0  0  0  0  0  0  0  0  0  0  0
   -2.2004    0.4598    1.3089 H   0  0  0  0  0  0  0  0  0  0  0  0
   -5.0383    2.2345   -2.4033 H   0  0  0  0  0  0  0  0  0  0  0  0
   -7.1681    2.6321   -3.5309 H   0  0  0  0  0  0  0  0  0  0  0  0
   -9.1695    1.4763   -2.8820 H   0  0  0  0  0  0  0  0  0  0  0  0
   -9.0589   -0.1647   -1.0131 H   0  0  0  0  0  0  0  0  0  0  0  0
   -6.9127   -0.5967    0.1550 H   0  0  0  0  0  0  0  0  0  0  0  0
   -5.3066    0.0439    2.1843 H   0  0  0  0  0  0  0  0  0  0  0  0
   -5.0188    1.5932    4.0592 H   0  0  0  0  0  0  0  0  0  0  0  0
   -3.9668    3.7671    3.7247 H   0  0  0  0  0  0  0  0  0  0  0  0
   -3.1804    4.4466    1.5096 H   0  0  0  0  0  0  0  0  0  0  0  0
   -3.4485    2.9084   -0.4315 H   0  0  0  0  0  0  0  0  0  0  0  0
   -1.5840   -1.5599   -2.1309 H   0  0  0  0  0  0  0  0  0  0  0  0
   -4.1320   -5.2407    0.1331 H   0  0  0  0  0  0  0  0  0  0  0  0
   -5.5435   -4.2175   -0.1938 H   0  0  0  0  0  0  0  0  0  0  0  0
   -4.6596   -4.8568   -1.5885 H   0  0  0  0  0  0  0  0  0  0  0  0
    0.2885   -2.7680   -1.1159 H   0  0  0  0  0  0  0  0  0  0  0  0
   -0.3788   -2.5794    0.5128 H   0  0  0  0  0  0  0  0  0  0  0  0
  1  2  1  0
  2  3  1  0
  3  4  1  0
  4  5  1  0
  5  6  1  0
  6  7  1  0
  7  8  1  0
  8  9  1  0
  9 10  1  0
 10 11  1  0
  6 12  1  0
 12 13  2  0
 12 14  1  0
 14 15  1  0
 15 16  1  0
 16 17  1  0
 17 18  1  0
 18 19  2  0
 18 20  1  0
 20 21  1  0
 21 22  2  0
 22 23  1  0
 23 24  2  0
 24 25  1  0
 25 26  2  0
 20 27  1  0
 27 28  2  0
 28 29  1  0
 29 30  2  0
 30 31  1  0
 31 32  2  0
 17 33  1  0
 33 34  1  0
 34 35  2  0
 34 36  1  0
 36 37  1  0
 33 38  1  0
 38 14  1  0
 26 21  1  0
 32 27  1  0
  1 39  1  0
  1 40  1  0
  1 41  1  0
  2 42  1  0
  2 43  1  0
  3 44  1  0
  3 45  1  0
  4 46  1  0
  4 47  1  0
  5 48  1  0
  5 49  1  0
  7 50  1  0
  7 51  1  0
  8 52  1  0
  8 53  1  0
  9 54  1  0
  9 55  1  0
 10 56  1  0
 10 57  1  0
 11 58  1  0
 11 59  1  0
 11 60  1  0
 15 61  1  0
 15 62  1  0
 16 63  1  0
 16 64  1  0
 22 65  1  0
 23 66  1  0
 24 67  1  0
 25 68  1  0
 26 69  1  0
 28 70  1  0
 29 71  1  0
 30 72  1  0
 31 73  1  0
 32 74  1  0
 33 75  1  6
 37 76  1  0
 37 77  1  0
 37 78  1  0
 38 79  1  0
 38 80  1  0
M  END
$$$$
