@<TRIPOS>MOLECULE
*****
 80 82 0 0 0
SMALL
GASTEIGER

@<TRIPOS>ATOM
      1 C           8.3640   -2.3567   -1.5798 C.3     1  UNL1       -0.0653
      2 C           7.1398   -1.9996   -0.7712 C.3     1  UNL1       -0.0559
      3 C           6.1580   -1.2071   -1.6033 C.3     1  UNL1       -0.0519
      4 C           4.9557   -0.9063   -0.6679 C.3     1  UNL1       -0.0371
      5 C           3.9469   -0.1279   -1.4161 C.3     1  UNL1        0.0161
      6 N           2.7118    0.2053   -0.6960 N.am    1  UNL1       -0.2855
      7 C           2.5341    1.4518   -0.0522 C.3     1  UNL1        0.0161
      8 C           2.7874    1.6407    1.3756 C.3     1  UNL1       -0.0371
      9 C           4.1439    1.4097    1.9324 C.3     1  UNL1       -0.0519
     10 C           5.2320    2.2345    1.3223 C.3     1  UNL1       -0.0559
     11 C           6.5463    1.8830    1.9956 C.3     1  UNL1       -0.0653
     12 C           1.7094   -0.7739   -0.7605 C.2     1  UNL1        0.3049
     13 O           2.1136   -1.8709   -1.3654 O.2     1  UNL1       -0.2524
     14 N           0.3884   -0.8492   -0.3343 N.am    1  UNL1       -0.2817
     15 C          -0.3522    0.1977    0.2712 C.3     1  UNL1        0.0321
     16 C          -1.7435   -0.3174    0.7365 C.3     1  UNL1        0.0329
     17 N          -2.4404   -0.8548   -0.3887 N.am    1  UNL1       -0.2684
     18 C          -3.6852   -0.4341   -0.8246 C.2     1  UNL1        0.3143
     19 O          -4.1281   -1.0742   -1.8871 O.2     1  UNL1       -0.2517
     20 N          -4.5675    0.5411   -0.3553 N.am    1  UNL1       -0.2243
     21 C          -5.8380    0.7724   -1.0261 C.ar    1  UNL1        0.0428
     22 C          -5.8913    1.6744   -2.0504 C.ar    1  UNL1       -0.0399
     23 C          -7.0943    1.9347   -2.7276 C.ar    1  UNL1       -0.0600
     24 C          -8.2434    1.2624   -2.3459 C.ar    1  UNL1       -0.0616
     25 C          -8.1869    0.3594   -1.3193 C.ar    1  UNL1       -0.0600
     26 C          -6.9920    0.1201   -0.6684 C.ar    1  UNL1       -0.0399
     27 C          -4.3905    1.3956    0.7647 C.ar    1  UNL1        0.0428
     28 C          -4.8413    0.9999    2.0191 C.ar    1  UNL1       -0.0399
     29 C          -4.6702    1.8810    3.0555 C.ar    1  UNL1       -0.0600
     30 C          -4.0847    3.1028    2.8919 C.ar    1  UNL1       -0.0616
     31 C          -3.6506    3.4663    1.6478 C.ar    1  UNL1       -0.0600
     32 C          -3.7867    2.6381    0.5584 C.ar    1  UNL1       -0.0399
     33 C          -1.7069   -1.9371   -1.0996 C.3     1  UNL1        0.1400
     34 C          -2.5169   -3.1645   -1.1297 C.2     1  UNL1        0.3292
     35 O          -2.1184   -4.1993   -1.7229 O.2     1  UNL1       -0.2487
     36 O          -3.7728   -3.2638   -0.5054 O.3     1  UNL1       -0.4666
     37 C          -4.5096   -4.4715   -0.5643 C.3     1  UNL1        0.0817
     38 C          -0.3653   -2.1347   -0.4899 C.3     1  UNL1        0.0452
     39 H           8.1296   -3.1632   -2.3078 H       1  UNL1        0.0230
     40 H           8.6698   -1.4150   -2.1076 H       1  UNL1        0.0230
     41 H           9.1422   -2.6733   -0.8444 H       1  UNL1        0.0230
     42 H           6.6505   -2.9348   -0.4624 H       1  UNL1        0.0263
     43 H           7.4765   -1.4337    0.1159 H       1  UNL1        0.0263
     44 H           6.5739   -0.2607   -1.9895 H       1  UNL1        0.0266
     45 H           5.7707   -1.8247   -2.4187 H       1  UNL1        0.0266
     46 H           5.3908   -0.4406    0.2135 H       1  UNL1        0.0280
     47 H           4.5476   -1.8960   -0.3935 H       1  UNL1        0.0280
     48 H           3.6660   -0.6952   -2.3504 H       1  UNL1        0.0465
     49 H           4.4295    0.7949   -1.8056 H       1  UNL1        0.0465
     50 H           1.5148    1.8487   -0.2856 H       1  UNL1        0.0465
     51 H           3.1975    2.2022   -0.6309 H       1  UNL1        0.0465
     52 H           2.5219    2.7174    1.6533 H       1  UNL1        0.0280
     53 H           2.0910    1.0608    2.0496 H       1  UNL1        0.0280
     54 H           4.4625    0.3825    2.0741 H       1  UNL1        0.0266
     55 H           4.0727    1.7937    3.0262 H       1  UNL1        0.0266
     56 H           5.3341    1.9651    0.2544 H       1  UNL1        0.0263
     57 H           5.0856    3.3254    1.4830 H       1  UNL1        0.0263
     58 H           6.5764    0.8085    2.2791 H       1  UNL1        0.0230
     59 H           7.4149    2.0966    1.3673 H       1  UNL1        0.0230
     60 H           6.6423    2.4612    2.9478 H       1  UNL1        0.0230
     61 H           0.0774    0.6525    1.1531 H       1  UNL1        0.0480
     62 H          -0.5609    1.0146   -0.4865 H       1  UNL1        0.0480
     63 H          -1.5533   -1.1936    1.4260 H       1  UNL1        0.0481
     64 H          -2.2004    0.4598    1.3089 H       1  UNL1        0.0481
     65 H          -5.0383    2.2345   -2.4033 H       1  UNL1        0.0636
     66 H          -7.1681    2.6321   -3.5309 H       1  UNL1        0.0618
     67 H          -9.1695    1.4763   -2.8820 H       1  UNL1        0.0618
     68 H          -9.0589   -0.1647   -1.0131 H       1  UNL1        0.0618
     69 H          -6.9127   -0.5967    0.1550 H       1  UNL1        0.0636
     70 H          -5.3066    0.0439    2.1843 H       1  UNL1        0.0636
     71 H          -5.0188    1.5932    4.0592 H       1  UNL1        0.0618
     72 H          -3.9668    3.7671    3.7247 H       1  UNL1        0.0618
     73 H          -3.1804    4.4466    1.5096 H       1  UNL1        0.0618
     74 H          -3.4485    2.9084   -0.4315 H       1  UNL1        0.0636
     75 H          -1.5840   -1.5599   -2.1309 H       1  UNL1        0.0633
     76 H          -4.1320   -5.2407    0.1331 H       1  UNL1        0.0661
     77 H          -5.5435   -4.2175   -0.1938 H       1  UNL1        0.0661
     78 H          -4.6596   -4.8568   -1.5885 H       1  UNL1        0.0661
     79 H           0.2885   -2.7680   -1.1159 H       1  UNL1        0.0489
     80 H          -0.3788   -2.5794    0.5128 H       1  UNL1        0.0489
@<TRIPOS>BOND
     1     1     2    1
     2     2     3    1
     3     3     4    1
     4     4     5    1
     5     5     6    1
     6     6     7    1
     7     7     8    1
     8     8     9    1
     9     9    10    1
    10    10    11    1
    11     6    12   am
    12    12    13    2
    13    12    14   am
    14    14    15    1
    15    15    16    1
    16    16    17    1
    17    17    18   am
    18    18    19    2
    19    18    20   am
    20    20    21    1
    21    21    22   ar
    22    22    23   ar
    23    23    24   ar
    24    24    25   ar
    25    25    26   ar
    26    20    27    1
    27    27    28   ar
    28    28    29   ar
    29    29    30   ar
    30    30    31   ar
    31    31    32   ar
    32    17    33    1
    33    33    34    1
    34    34    35    2
    35    34    36    1
    36    36    37    1
    37    33    38    1
    38    38    14    1
    39    26    21   ar
    40    32    27   ar
    41     1    39    1
    42     1    40    1
    43     1    41    1
    44     2    42    1
    45     2    43    1
    46     3    44    1
    47     3    45    1
    48     4    46    1
    49     4    47    1
    50     5    48    1
    51     5    49    1
    52     7    50    1
    53     7    51    1
    54     8    52    1
    55     8    53    1
    56     9    54    1
    57     9    55    1
    58    10    56    1
    59    10    57    1
    60    11    58    1
    61    11    59    1
    62    11    60    1
    63    15    61    1
    64    15    62    1
    65    16    63    1
    66    16    64    1
    67    22    65    1
    68    23    66    1
    69    24    67    1
    70    25    68    1
    71    26    69    1
    72    28    70    1
    73    29    71    1
    74    30    72    1
    75    31    73    1
    76    32    74    1
    77    33    75    1
    78    37    76    1
    79    37    77    1
    80    37    78    1
    81    38    79    1
    82    38    80    1
