
     RDKit          3D

 30 32  0  0  0  0  0  0  0  0999 V2000
    0.0567   -1.0934   -1.3902 O   0  0  0  0  0  0  0  0  0  0  0  0
    0.4607   -0.4223   -0.4228 C   0  0  0  0  0  0  0  0  0  0  0  0
   -0.4395    0.2298    0.4010 C   0  0  0  0  0  0  0  0  0  0  0  0
   -1.8839    0.1605    0.1752 C   0  0  0  0  0  0  0  0  0  0  0  0
   -2.7671   -0.0616    1.2118 C   0  0  0  0  0  0  0  0  0  0  0  0
   -4.1355   -0.1296    1.0136 C   0  0  0  0  0  0  0  0  0  0  0  0
   -4.6731    0.0249   -0.2485 C   0  0  0  0  0  0  0  0  0  0  0  0
   -6.0383   -0.0356   -0.4945 O   0  0  0  0  0  0  0  0  0  0  0  0
   -3.8001    0.2476   -1.2941 C   0  0  0  0  0  0  0  0  0  0  0  0
   -2.4276    0.3140   -1.0835 C   0  0  0  0  0  0  0  0  0  0  0  0
    0.1052    0.9508    1.4502 C   0  0  0  0  0  0  0  0  0  0  0  0
    1.3955    1.0269    1.6715 O   0  0  0  0  0  0  0  0  0  0  0  0
    2.2640    0.4144    0.8997 C   0  0  0  0  0  0  0  0  0  0  0  0
    3.6372    0.5041    1.1473 C   0  0  0  0  0  0  0  0  0  0  0  0
    4.5537   -0.1391    0.3373 C   0  0  0  0  0  0  0  0  0  0  0  0
    5.9179   -0.0597    0.5698 O   0  0  0  0  0  0  0  0  0  0  0  0
    4.1129   -0.8849   -0.7369 C   0  0  0  0  0  0  0  0  0  0  0  0
    2.7555   -0.9631   -0.9673 C   0  0  0  0  0  0  0  0  0  0  0  0
    2.3391   -1.7219   -2.0573 O   0  0  0  0  0  0  0  0  0  0  0  0
    1.8166   -0.3314   -0.1751 C   0  0  0  0  0  0  0  0  0  0  0  0
   -2.3600   -0.1857    2.2142 H   0  0  0  0  0  0  0  0  0  0  0  0
   -4.8385   -0.3036    1.8206 H   0  0  0  0  0  0  0  0  0  0  0  0
   -6.6469    0.7742   -0.4499 H   0  0  0  0  0  0  0  0  0  0  0  0
   -4.2156    0.3688   -2.2812 H   0  0  0  0  0  0  0  0  0  0  0  0
   -1.7552    0.4889   -1.9106 H   0  0  0  0  0  0  0  0  0  0  0  0
   -0.6141    1.4672    2.1021 H   0  0  0  0  0  0  0  0  0  0  0  0
    3.9623    1.0941    1.9950 H   0  0  0  0  0  0  0  0  0  0  0  0
    6.3163    0.8491    0.7735 H   0  0  0  0  0  0  0  0  0  0  0  0
    4.8376   -1.3977   -1.3834 H   0  0  0  0  0  0  0  0  0  0  0  0
    2.0643   -1.1856   -2.8874 H   0  0  0  0  0  0  0  0  0  0  0  0
  1  2  2  0
  2  3  1  0
  3  4  1  0
  4  5  2  0
  5  6  1  0
  6  7  2  0
  7  8  1  0
  7  9  1  0
  9 10  2  0
  3 11  2  0
 11 12  1  0
 12 13  1  0
 13 14  2  0
 14 15  1  0
 15 16  1  0
 15 17  2  0
 17 18  1  0
 18 19  1  0
 18 20  2  0
 20  2  1  0
 10  4  1  0
 20 13  1  0
  5 21  1  0
  6 22  1  0
  8 23  1  0
  9 24  1  0
 10 25  1  0
 11 26  1  0
 14 27  1  0
 16 28  1  0
 17 29  1  0
 19 30  1  0
M  END
$$$$
