@<TRIPOS>MOLECULE
*****
 30 32 0 0 0
SMALL
GASTEIGER

@<TRIPOS>ATOM
      1 O           0.0567   -1.0934   -1.3902 O.2     1  UNL1       -0.2863
      2 C           0.4607   -0.4223   -0.4228 C.ar    1  UNL1        0.2037
      3 C          -0.4395    0.2298    0.4010 C.ar    1  UNL1        0.0644
      4 C          -1.8839    0.1605    0.1752 C.ar    1  UNL1       -0.0110
      5 C          -2.7671   -0.0616    1.2118 C.ar    1  UNL1       -0.0504
      6 C          -4.1355   -0.1296    1.0136 C.ar    1  UNL1       -0.0196
      7 C          -4.6731    0.0249   -0.2485 C.ar    1  UNL1        0.1169
      8 O          -6.0383   -0.0356   -0.4945 O.3     1  UNL1       -0.5068
      9 C          -3.8001    0.2476   -1.2941 C.ar    1  UNL1       -0.0196
     10 C          -2.4276    0.3140   -1.0835 C.ar    1  UNL1       -0.0504
     11 C           0.1052    0.9508    1.4502 C.ar    1  UNL1        0.1038
     12 O           1.3955    1.0269    1.6715 O.2     1  UNL1       -0.4618
     13 C           2.2640    0.4144    0.8997 C.ar    1  UNL1        0.1454
     14 C           3.6372    0.5041    1.1473 C.ar    1  UNL1        0.0231
     15 C           4.5537   -0.1391    0.3373 C.ar    1  UNL1        0.1239
     16 O           5.9179   -0.0597    0.5698 O.3     1  UNL1       -0.5065
     17 C           4.1129   -0.8849   -0.7369 C.ar    1  UNL1        0.0223
     18 C           2.7555   -0.9631   -0.9673 C.ar    1  UNL1        0.1347
     19 O           2.3391   -1.7219   -2.0573 O.3     1  UNL1       -0.5058
     20 C           1.8166   -0.3314   -0.1751 C.ar    1  UNL1        0.1060
     21 H          -2.3600   -0.1857    2.2142 H       1  UNL1        0.0625
     22 H          -4.8385   -0.3036    1.8206 H       1  UNL1        0.0654
     23 H          -6.6469    0.7742   -0.4499 H       1  UNL1        0.2921
     24 H          -4.2156    0.3688   -2.2812 H       1  UNL1        0.0654
     25 H          -1.7552    0.4889   -1.9106 H       1  UNL1        0.0625
     26 H          -0.6141    1.4672    2.1021 H       1  UNL1        0.1037
     27 H           3.9623    1.0941    1.9950 H       1  UNL1        0.0691
     28 H           6.3163    0.8491    0.7735 H       1  UNL1        0.2921
     29 H           4.8376   -1.3977   -1.3834 H       1  UNL1        0.0691
     30 H           2.0643   -1.1856   -2.8874 H       1  UNL1        0.2922
@<TRIPOS>BOND
     1     1     2    2
     2     2     3   ar
     3     3     4    1
     4     4     5   ar
     5     5     6   ar
     6     6     7   ar
     7     7     8    1
     8     7     9   ar
     9     9    10   ar
    10     3    11   ar
    11    11    12   ar
    12    12    13   ar
    13    13    14   ar
    14    14    15   ar
    15    15    16    1
    16    15    17   ar
    17    17    18   ar
    18    18    19    1
    19    18    20   ar
    20    20     2   ar
    21    10     4   ar
    22    20    13   ar
    23     5    21    1
    24     6    22    1
    25     8    23    1
    26     9    24    1
    27    10    25    1
    28    11    26    1
    29    14    27    1
    30    16    28    1
    31    17    29    1
    32    19    30    1
