@<TRIPOS>MOLECULE
*****
 22 22 0 0 0
SMALL
GASTEIGER

@<TRIPOS>ATOM
      1 O           3.5548   -0.7370   -0.8015 O.3     1  UNL1        0.0000
      2 B           3.1237    0.3704    0.0525 B       1  UNL1        0.0000
      3 O           4.1661    1.0672    0.8382 O.3     1  UNL1        0.0000
      4 C           1.5952    0.4892    0.4570 C.3     1  UNL1        0.0000
      5 C           0.7776   -0.3496   -0.4824 C.3     1  UNL1        0.0000
      6 C          -0.6633   -0.3188   -0.2052 C.ar    1  UNL1        0.0000
      7 C          -1.3349   -1.1657    0.6199 C.ar    1  UNL1        0.0000
      8 C          -2.6966   -1.1104    0.8606 C.ar    1  UNL1        0.0000
      9 C          -3.4481   -0.1218    0.2193 C.ar    1  UNL1        0.0000
     10 C          -2.7797    0.7311   -0.6100 C.ar    1  UNL1        0.0000
     11 C          -1.4202    0.6692   -0.8449 C.ar    1  UNL1        0.0000
     12 H           2.8270   -0.9578   -1.4328 H       1  UNL1        0.0000
     13 H           4.3461    1.9748    0.4467 H       1  UNL1        0.0000
     14 H           1.3142    1.5659    0.3055 H       1  UNL1        0.0000
     15 H           1.4386    0.2616    1.5094 H       1  UNL1        0.0000
     16 H           0.9560   -0.0451   -1.5330 H       1  UNL1        0.0000
     17 H           1.1074   -1.4088   -0.4295 H       1  UNL1        0.0000
     18 H          -0.7591   -1.9357    1.1215 H       1  UNL1        0.0000
     19 H          -3.2207   -1.7877    1.5178 H       1  UNL1        0.0000
     20 H          -4.5110   -0.0823    0.4101 H       1  UNL1        0.0000
     21 H          -3.3851    1.4948   -1.1002 H       1  UNL1        0.0000
     22 H          -0.9879    1.3965   -1.5232 H       1  UNL1        0.0000
@<TRIPOS>BOND
     1     1     2    1
     2     2     3    1
     3     2     4    1
     4     4     5    1
     5     5     6    1
     6     6     7   ar
     7     7     8   ar
     8     8     9   ar
     9     9    10   ar
    10    10    11   ar
    11    11     6   ar
    12     1    12    1
    13     3    13    1
    14     4    14    1
    15     4    15    1
    16     5    16    1
    17     5    17    1
    18     7    18    1
    19     8    19    1
    20     9    20    1
    21    10    21    1
    22    11    22    1
