
     RDKit          3D

 27 26  0  0  0  0  0  0  0  0999 V2000
    3.3902   -1.0735   -0.0304 N   0  0  0  0  0  0  0  0  0  0  0  0
    2.9345    0.2107   -0.4636 C   0  0  0  0  0  0  0  0  0  0  0  0
    1.5574    0.4981    0.1261 C   0  0  0  0  0  0  0  0  0  0  0  0
    0.5508   -0.5266   -0.3039 C   0  0  0  0  0  0  0  0  0  0  0  0
   -0.7719   -0.1713    0.3177 C   0  0  0  0  0  0  0  0  0  0  0  0
   -0.5567   -0.1960    1.7133 O   0  0  0  0  0  0  0  0  0  0  0  0
   -2.0593   -1.3969   -0.0211 P   0  0  0  0  0  0  0  0  0  0  0  0
   -2.8746   -1.0652   -1.4570 O   0  0  0  0  0  0  0  0  0  0  0  0
   -3.2123   -1.3373    1.2418 O   0  0  0  0  0  0  0  0  0  0  0  0
   -1.5201   -2.8106   -0.0140 O   0  0  0  0  0  0  0  0  0  0  0  0
   -1.3426    1.4695   -0.0816 P   0  0  0  0  0  0  0  0  0  0  0  0
   -0.5142    2.5937    0.8879 O   0  0  0  0  0  0  0  0  0  0  0  0
   -1.1283    1.8964   -1.6841 O   0  0  0  0  0  0  0  0  0  0  0  0
   -2.8244    1.5717    0.2385 O   0  0  0  0  0  0  0  0  0  0  0  0
    4.2901   -1.3185   -0.4788 H   0  0  0  0  0  0  0  0  0  0  0  0
    3.3673   -1.2029    1.0034 H   0  0  0  0  0  0  0  0  0  0  0  0
    2.7530    0.1385   -1.5725 H   0  0  0  0  0  0  0  0  0  0  0  0
    3.6125    1.0549   -0.2449 H   0  0  0  0  0  0  0  0  0  0  0  0
    1.2482    1.4661   -0.3582 H   0  0  0  0  0  0  0  0  0  0  0  0
    1.5675    0.6268    1.2123 H   0  0  0  0  0  0  0  0  0  0  0  0
    0.8538   -1.5033    0.1654 H   0  0  0  0  0  0  0  0  0  0  0  0
    0.5449   -0.6351   -1.3866 H   0  0  0  0  0  0  0  0  0  0  0  0
   -1.4827   -0.0834    2.0992 H   0  0  0  0  0  0  0  0  0  0  0  0
   -2.3430   -1.3504   -2.2424 H   0  0  0  0  0  0  0  0  0  0  0  0
   -3.7405   -2.1867    1.2938 H   0  0  0  0  0  0  0  0  0  0  0  0
   -0.9096    2.4820    1.7982 H   0  0  0  0  0  0  0  0  0  0  0  0
   -1.3902    2.8492   -1.7584 H   0  0  0  0  0  0  0  0  0  0  0  0
  1  2  1  0
  2  3  1  0
  3  4  1  0
  4  5  1  0
  5  6  1  0
  5  7  1  0
  7  8  1  0
  7  9  1  0
  7 10  2  0
  5 11  1  0
 11 12  1  0
 11 13  1  0
 11 14  2  0
  1 15  1  0
  1 16  1  0
  2 17  1  0
  2 18  1  0
  3 19  1  0
  3 20  1  0
  4 21  1  0
  4 22  1  0
  6 23  1  0
  8 24  1  0
  9 25  1  0
 12 26  1  0
 13 27  1  0
M  END
$$$$
