@<TRIPOS>MOLECULE
*****
 27 26 0 0 0
SMALL
GASTEIGER

@<TRIPOS>ATOM
      1 N           3.3902   -1.0735   -0.0304 N.3     1  UNL1       -0.3300
      2 C           2.9345    0.2107   -0.4636 C.3     1  UNL1       -0.0068
      3 C           1.5574    0.4981    0.1261 C.3     1  UNL1       -0.0369
      4 C           0.5508   -0.5266   -0.3039 C.3     1  UNL1        0.0002
      5 C          -0.7719   -0.1713    0.3177 C.3     1  UNL1        0.2671
      6 O          -0.5567   -0.1960    1.7133 O.3     1  UNL1       -0.3671
      7 P          -2.0593   -1.3969   -0.0211 P.3     1  UNL1        0.3710
      8 O          -2.8746   -1.0652   -1.4570 O.3     1  UNL1       -0.3217
      9 O          -3.2123   -1.3373    1.2418 O.3     1  UNL1       -0.3217
     10 O          -1.5201   -2.8106   -0.0140 O.2     1  UNL1       -0.2551
     11 P          -1.3426    1.4695   -0.0816 P.3     1  UNL1        0.3710
     12 O          -0.5142    2.5937    0.8879 O.3     1  UNL1       -0.3217
     13 O          -1.1283    1.8964   -1.6841 O.3     1  UNL1       -0.3217
     14 O          -2.8244    1.5717    0.2385 O.2     1  UNL1       -0.2551
     15 H           4.2901   -1.3185   -0.4788 H       1  UNL1        0.1182
     16 H           3.3673   -1.2029    1.0034 H       1  UNL1        0.1182
     17 H           2.7530    0.1385   -1.5725 H       1  UNL1        0.0422
     18 H           3.6125    1.0549   -0.2449 H       1  UNL1        0.0422
     19 H           1.2482    1.4661   -0.3582 H       1  UNL1        0.0279
     20 H           1.5675    0.6268    1.2123 H       1  UNL1        0.0279
     21 H           0.8538   -1.5033    0.1654 H       1  UNL1        0.0306
     22 H           0.5449   -0.6351   -1.3866 H       1  UNL1        0.0306
     23 H          -1.4827   -0.0834    2.0992 H       1  UNL1        0.2117
     24 H          -2.3430   -1.3504   -2.2424 H       1  UNL1        0.2198
     25 H          -3.7405   -2.1867    1.2938 H       1  UNL1        0.2198
     26 H          -0.9096    2.4820    1.7982 H       1  UNL1        0.2198
     27 H          -1.3902    2.8492   -1.7584 H       1  UNL1        0.2198
@<TRIPOS>BOND
     1     1     2    1
     2     2     3    1
     3     3     4    1
     4     4     5    1
     5     5     6    1
     6     5     7    1
     7     7     8    1
     8     7     9    1
     9     7    10    2
    10     5    11    1
    11    11    12    1
    12    11    13    1
    13    11    14    2
    14     1    15    1
    15     1    16    1
    16     2    17    1
    17     2    18    1
    18     3    19    1
    19     3    20    1
    20     4    21    1
    21     4    22    1
    22     6    23    1
    23     8    24    1
    24     9    25    1
    25    12    26    1
    26    13    27    1
