@<TRIPOS>MOLECULE
*****
 52 54 0 0 0
SMALL
GASTEIGER

@<TRIPOS>ATOM
      1 C           2.2933    0.5636   -1.5134 C.3     1  UNL1       -0.0121
      2 N           2.3725   -0.4271   -0.5206 N.3     1  UNL1       -0.2974
      3 C           1.8671   -0.1493    0.7633 C.3     1  UNL1        0.0174
      4 C           0.3769   -0.0063    0.8409 C.2     1  UNL1       -0.0695
      5 C          -0.3828   -0.1532   -0.2179 C.2     1  UNL1       -0.0573
      6 C          -1.8233   -0.0212   -0.1807 C.ar    1  UNL1       -0.0252
      7 C          -2.5606   -0.1979   -1.3587 C.ar    1  UNL1       -0.0540
      8 C          -3.9225   -0.0819   -1.3865 C.ar    1  UNL1       -0.0535
      9 C          -4.6445    0.2149   -0.2592 C.ar    1  UNL1       -0.0178
     10 C          -6.0942    0.3486   -0.2537 C.ar    1  UNL1       -0.0179
     11 C          -6.8211    0.0162    0.8669 C.ar    1  UNL1       -0.0540
     12 C          -8.1972    0.1338    0.8997 C.ar    1  UNL1       -0.0612
     13 C          -8.9140    0.5943   -0.2000 C.ar    1  UNL1       -0.0617
     14 C          -8.1819    0.9254   -1.3186 C.ar    1  UNL1       -0.0612
     15 C          -6.8004    0.8080   -1.3532 C.ar    1  UNL1       -0.0540
     16 C          -3.9276    0.3903    0.9045 C.ar    1  UNL1       -0.0535
     17 C          -2.5511    0.2748    0.9415 C.ar    1  UNL1       -0.0540
     18 C           3.3138   -1.4707   -0.6676 C.3     1  UNL1        0.0276
     19 C           4.7113   -1.0214   -0.8661 C.ar    1  UNL1        0.0121
     20 C           5.4319   -0.9834   -2.0653 C.ar    1  UNL1        0.0975
     21 O           6.6314   -0.5170   -1.8278 O.2     1  UNL1       -0.4626
     22 C           6.7893   -0.2297   -0.5439 C.ar    1  UNL1        0.1351
     23 C           7.8445    0.2751    0.1915 C.ar    1  UNL1       -0.0188
     24 C           7.6964    0.4670    1.5493 C.ar    1  UNL1       -0.0582
     25 C           6.5228    0.1697    2.2000 C.ar    1  UNL1       -0.0610
     26 C           5.4811   -0.3317    1.4568 C.ar    1  UNL1       -0.0507
     27 C           5.5784   -0.5446    0.0809 C.ar    1  UNL1        0.0245
     28 CL          0.6926    0.0000    0.0000 Cl      2  UNL2       -0.1454
     29 H           1.9527    0.2169   -2.5166 H       1  UNL1        0.0391
     30 H           3.3096    1.0492   -1.6085 H       1  UNL1        0.0391
     31 H           1.6425    1.4042   -1.1679 H       1  UNL1        0.0391
     32 H           2.2755    0.8452    1.1035 H       1  UNL1        0.0470
     33 H           2.2219   -0.8826    1.5295 H       1  UNL1        0.0470
     34 H          -0.0870    0.2236    1.7904 H       1  UNL1        0.0585
     35 H           0.0698   -0.3913   -1.1817 H       1  UNL1        0.0621
     36 H          -2.0341   -0.4374   -2.2928 H       1  UNL1        0.0624
     37 H          -4.4968   -0.2216   -2.3128 H       1  UNL1        0.0624
     38 H          -6.2825   -0.3517    1.7539 H       1  UNL1        0.0624
     39 H          -8.7733   -0.1233    1.7714 H       1  UNL1        0.0618
     40 H          -9.9909    0.6862   -0.1741 H       1  UNL1        0.0618
     41 H          -8.7152    1.2886   -2.1945 H       1  UNL1        0.0618
     42 H          -6.2270    1.0658   -2.2249 H       1  UNL1        0.0624
     43 H          -4.4280    0.6257    1.8316 H       1  UNL1        0.0624
     44 H          -2.0566    0.4267    1.8923 H       1  UNL1        0.0624
     45 H           3.0355   -2.0336   -1.6103 H       1  UNL1        0.0477
     46 H           3.2479   -2.2235    0.1603 H       1  UNL1        0.0477
     47 H           5.0108   -1.3030   -3.0129 H       1  UNL1        0.1033
     48 H           8.7531    0.5003   -0.3419 H       1  UNL1        0.0654
     49 H           8.5631    0.8681    2.0763 H       1  UNL1        0.0619
     50 H           6.3862    0.3107    3.2536 H       1  UNL1        0.0618
     51 H           4.5334   -0.5894    1.8979 H       1  UNL1        0.0625
     52 H          -0.6926    0.0000    0.0000 H       1  UNL1        0.1454
@<TRIPOS>BOND
     1     1     2    1
     2     2     3    1
     3     3     4    1
     4     4     5    2
     5     5     6    1
     6     6     7   ar
     7     7     8   ar
     8     8     9   ar
     9     9    10    1
    10    10    11   ar
    11    11    12   ar
    12    12    13   ar
    13    13    14   ar
    14    14    15   ar
    15     9    16   ar
    16    16    17   ar
    17     2    18    1
    18    18    19    1
    19    19    20   ar
    20    20    21   ar
    21    21    22   ar
    22    22    23   ar
    23    23    24   ar
    24    24    25   ar
    25    25    26   ar
    26    26    27   ar
    27    17     6   ar
    28    27    19   ar
    29    15    10   ar
    30    27    22   ar
    31     1    29    1
    32     1    30    1
    33     1    31    1
    34     3    32    1
    35     3    33    1
    36     4    34    1
    37     5    35    1
    38     7    36    1
    39     8    37    1
    40    11    38    1
    41    12    39    1
    42    13    40    1
    43    14    41    1
    44    15    42    1
    45    16    43    1
    46    17    44    1
    47    18    45    1
    48    18    46    1
    49    20    47    1
    50    23    48    1
    51    24    49    1
    52    25    50    1
    53    26    51    1
    54    28    52    1
