@<TRIPOS>MOLECULE
*****
 56 61 0 0 0
SMALL
GASTEIGER

@<TRIPOS>ATOM
      1 C          -3.3075    0.2967   -2.7864 C.3     1  UNL1        0.0119
      2 N          -3.0025    0.3155   -1.3646 N.ar    1  UNL1       -0.3491
      3 C          -2.2863   -0.6086   -0.7067 C.ar    1  UNL1        0.0133
      4 C          -2.2151   -0.2542    0.6305 C.ar    1  UNL1        0.0131
      5 C          -1.5176   -0.9679    1.7105 C.2     1  UNL1        0.0590
      6 C          -0.2805   -1.4256    1.7398 C.2     1  UNL1        0.0592
      7 C           0.7106   -1.3175    0.6677 C.ar    1  UNL1        0.0163
      8 C           1.1657   -0.2448   -0.0495 C.ar    1  UNL1        0.0280
      9 N           2.0814   -0.6352   -0.9282 N.ar    1  UNL1       -0.3432
     10 C           2.2598   -1.9940   -0.8161 C.ar    1  UNL1        0.0499
     11 C           3.0929   -2.8404   -1.5073 C.ar    1  UNL1       -0.0376
     12 C           3.0862   -4.1820   -1.2065 C.ar    1  UNL1       -0.0598
     13 C           2.2441   -4.6179   -0.2272 C.ar    1  UNL1       -0.0611
     14 C           1.4157   -3.7634    0.4571 C.ar    1  UNL1       -0.0520
     15 C           1.4070   -2.4040    0.1713 C.ar    1  UNL1        0.0080
     16 C           2.7781    0.2464   -1.8342 C.3     1  UNL1        0.0239
     17 C           2.2472    1.6159   -1.8156 C.3     1  UNL1       -0.0306
     18 C           1.8645    2.0784   -0.4297 C.3     1  UNL1       -0.0217
     19 C           2.9719    2.0410    0.5634 C.3     1  UNL1       -0.0037
     20 N           4.1131    2.8396    0.2651 N.3     1  UNL1       -0.3297
     21 C           0.7474    1.1866    0.1009 C.3     1  UNL1       -0.0077
     22 C          -0.0199   -2.0793    3.0474 C.2     1  UNL1        0.2519
     23 O           1.0789   -2.6010    3.3567 O.2     1  UNL1       -0.2697
     24 N          -1.1944   -1.9894    3.8130 N.am    1  UNL1       -0.2483
     25 C          -2.1289   -1.3077    3.0043 C.2     1  UNL1        0.2519
     26 O          -3.2891   -1.0370    3.3323 O.2     1  UNL1       -0.2697
     27 C          -2.9203    0.9211    0.7332 C.ar    1  UNL1        0.0077
     28 C          -3.1998    1.7610    1.7781 C.ar    1  UNL1       -0.0520
     29 C          -3.9453    2.9120    1.5814 C.ar    1  UNL1       -0.0611
     30 C          -4.4264    3.2457    0.3346 C.ar    1  UNL1       -0.0598
     31 C          -4.1579    2.4211   -0.7205 C.ar    1  UNL1       -0.0376
     32 C          -3.4123    1.2768   -0.5098 C.ar    1  UNL1        0.0494
     33 H          -3.8059   -0.6716   -3.0368 H       1  UNL1        0.0456
     34 H          -2.4062    0.4778   -3.4144 H       1  UNL1        0.0456
     35 H          -4.0398    1.0839   -3.0555 H       1  UNL1        0.0456
     36 H          -1.8157   -1.5047   -1.1031 H       1  UNL1        0.0815
     37 H           3.7624   -2.5158   -2.2835 H       1  UNL1        0.0638
     38 H           3.7340   -4.8893   -1.7286 H       1  UNL1        0.0618
     39 H           2.2328   -5.6917    0.0204 H       1  UNL1        0.0618
     40 H           0.7427   -4.1378    1.2238 H       1  UNL1        0.0624
     41 H           2.7899   -0.1862   -2.8667 H       1  UNL1        0.0492
     42 H           3.8575    0.2888   -1.5132 H       1  UNL1        0.0492
     43 H           2.9436    2.3659   -2.2410 H       1  UNL1        0.0286
     44 H           1.3151    1.7028   -2.4412 H       1  UNL1        0.0286
     45 H           1.4628    3.0966   -0.5053 H       1  UNL1        0.0317
     46 H           3.2930    0.9859    0.7044 H       1  UNL1        0.0425
     47 H           2.5430    2.3985    1.5389 H       1  UNL1        0.0425
     48 H           4.9159    2.3229   -0.1353 H       1  UNL1        0.1182
     49 H           3.9420    3.7664   -0.1229 H       1  UNL1        0.1182
     50 H          -0.1674    1.3401   -0.4928 H       1  UNL1        0.0331
     51 H           0.5430    1.3741    1.1575 H       1  UNL1        0.0331
     52 H          -1.3094   -2.3688    4.7920 H       1  UNL1        0.1581
     53 H          -2.8255    1.5398    2.7966 H       1  UNL1        0.0624
     54 H          -4.1441    3.5507    2.4349 H       1  UNL1        0.0618
     55 H          -5.0135    4.1467    0.1676 H       1  UNL1        0.0618
     56 H          -4.5105    2.6369   -1.7105 H       1  UNL1        0.0638
@<TRIPOS>BOND
     1     1     2    1
     2     2     3   ar
     3     3     4   ar
     4     4     5    1
     5     5     6    2
     6     6     7    1
     7     7     8   ar
     8     8     9   ar
     9     9    10   ar
    10    10    11   ar
    11    11    12   ar
    12    12    13   ar
    13    13    14   ar
    14    14    15   ar
    15     9    16    1
    16    16    17    1
    17    17    18    1
    18    18    19    1
    19    19    20    1
    20    18    21    1
    21     6    22    1
    22    22    23    2
    23    22    24   am
    24    24    25   am
    25    25    26    2
    26     4    27   ar
    27    27    28   ar
    28    28    29   ar
    29    29    30   ar
    30    30    31   ar
    31    31    32   ar
    32    32     2   ar
    33    25     5    1
    34    32    27   ar
    35    15     7   ar
    36    21     8    1
    37    15    10   ar
    38     1    33    1
    39     1    34    1
    40     1    35    1
    41     3    36    1
    42    11    37    1
    43    12    38    1
    44    13    39    1
    45    14    40    1
    46    16    41    1
    47    16    42    1
    48    17    43    1
    49    17    44    1
    50    18    45    1
    51    19    46    1
    52    19    47    1
    53    20    48    1
    54    20    49    1
    55    21    50    1
    56    21    51    1
    57    24    52    1
    58    28    53    1
    59    29    54    1
    60    30    55    1
    61    31    56    1
