@<TRIPOS>MOLECULE
*****
 64 68 0 0 0
SMALL
GASTEIGER

@<TRIPOS>ATOM
      1 O           0.9931    3.5017    0.4923 O.2     1  UNL1       -0.2817
      2 C           1.3578    2.3414    0.8026 C.2     1  UNL1        0.2496
      3 C           2.6574    2.0277    1.3734 C.2     1  UNL1        0.2915
      4 O           3.5836    2.8220    1.6400 O.2     1  UNL1       -0.2661
      5 N           2.6491    0.5970    1.5689 N.am    1  UNL1       -0.2598
      6 C           3.7765   -0.1292    2.1324 C.3     1  UNL1        0.0452
      7 C           4.7450   -0.5224    1.0676 C.ar    1  UNL1       -0.0295
      8 C           4.6442   -1.7080    0.3819 C.ar    1  UNL1       -0.0536
      9 C           5.5299   -2.0813   -0.6001 C.ar    1  UNL1       -0.0196
     10 C           6.6061   -1.2417   -0.9542 C.ar    1  UNL1        0.1206
     11 O           7.4670   -1.6534   -1.9354 O.3     1  UNL1       -0.4894
     12 C           8.5540   -1.0229   -2.4792 C.3     1  UNL1        0.1177
     13 C           8.2263    0.2210   -3.2316 C.3     1  UNL1        0.1241
     14 F           9.3838    0.8315   -3.7443 F       1  UNL1       -0.2455
     15 C           6.7056   -0.0537   -0.2649 C.ar    1  UNL1       -0.0196
     16 C           5.7915    0.3002    0.7274 C.ar    1  UNL1       -0.0536
     17 C           1.4009    0.0776    1.1351 C.ar    1  UNL1        0.0481
     18 C           0.9420   -1.2233    1.1357 C.ar    1  UNL1       -0.0377
     19 C          -0.3462   -1.4739    0.6546 C.ar    1  UNL1       -0.0335
     20 C          -1.1623   -0.4703    0.1834 C.ar    1  UNL1        0.1063
     21 S          -2.7958   -0.7926   -0.4077 S.O2    1  UNL1        0.0612
     22 O          -3.1703    0.1337   -1.5164 O.2     1  UNL1       -0.1528
     23 O          -2.8080   -2.2097   -0.9193 O.2     1  UNL1       -0.1528
     24 N          -3.8291   -0.6092    0.9474 N.3     1  UNL1       -0.1703
     25 C          -3.4806   -1.5682    1.9621 C.3     1  UNL1        0.0210
     26 C          -4.7526   -1.9648    2.6388 C.3     1  UNL1       -0.0370
     27 C          -5.7588   -1.9011    1.5155 C.3     1  UNL1       -0.0313
     28 C          -5.2374   -0.7555    0.6427 C.3     1  UNL1        0.0659
     29 C          -5.9153    0.5033    1.1359 C.3     1  UNL1        0.1068
     30 O          -5.4914    1.6774    0.5615 O.3     1  UNL1       -0.4888
     31 C          -5.5749    2.1440   -0.7189 C.ar    1  UNL1        0.1386
     32 C          -6.1919    1.4496   -1.7290 C.ar    1  UNL1       -0.0170
     33 C          -6.2503    1.9565   -3.0179 C.ar    1  UNL1       -0.0401
     34 C          -5.6807    3.1834   -3.3004 C.ar    1  UNL1        0.0278
     35 N          -5.0863    3.8342   -2.2847 N.ar    1  UNL1       -0.2596
     36 C          -5.0103    3.3838   -1.0454 C.ar    1  UNL1        0.0692
     37 C          -0.6684    0.8314    0.1955 C.ar    1  UNL1       -0.0226
     38 C           0.6002    1.1155    0.6655 C.ar    1  UNL1        0.0502
     39 H           4.2515    0.4415    2.9516 H       1  UNL1        0.0518
     40 H           3.3399   -1.0441    2.6121 H       1  UNL1        0.0518
     41 H           3.8308   -2.3780    0.6268 H       1  UNL1        0.0622
     42 H           5.4470   -3.0222   -1.1425 H       1  UNL1        0.0654
     43 H           9.1565   -1.6981   -3.1522 H       1  UNL1        0.0723
     44 H           9.2739   -0.8242   -1.6289 H       1  UNL1        0.0723
     45 H           7.5856   -0.0940   -4.1265 H       1  UNL1        0.0649
     46 H           7.5946    0.9194   -2.6849 H       1  UNL1        0.0649
     47 H           7.5303    0.6025   -0.4882 H       1  UNL1        0.0654
     48 H           5.9190    1.2563    1.2411 H       1  UNL1        0.0622
     49 H           1.5634   -2.0568    1.5023 H       1  UNL1        0.0637
     50 H          -0.7280   -2.4859    0.6452 H       1  UNL1        0.0638
     51 H          -2.8107   -1.0427    2.6984 H       1  UNL1        0.0444
     52 H          -2.9703   -2.4612    1.5385 H       1  UNL1        0.0444
     53 H          -4.6156   -2.9978    3.0254 H       1  UNL1        0.0279
     54 H          -5.0076   -1.2358    3.4456 H       1  UNL1        0.0279
     55 H          -5.8096   -2.8493    0.9769 H       1  UNL1        0.0282
     56 H          -6.7301   -1.6204    1.9885 H       1  UNL1        0.0282
     57 H          -5.4166   -0.9853   -0.4128 H       1  UNL1        0.0513
     58 H          -7.0477    0.3810    1.0711 H       1  UNL1        0.0713
     59 H          -5.7646    0.6111    2.2554 H       1  UNL1        0.0713
     60 H          -6.6768    0.4794   -1.5262 H       1  UNL1        0.0655
     61 H          -6.7418    1.4012   -3.8202 H       1  UNL1        0.0634
     62 H          -5.7284    3.5790   -4.3075 H       1  UNL1        0.0829
     63 H          -4.5158    3.9740   -0.2909 H       1  UNL1        0.0867
     64 H          -1.3322    1.5985   -0.1811 H       1  UNL1        0.0645
@<TRIPOS>BOND
     1     1     2    2
     2     2     3    1
     3     3     4    2
     4     3     5   am
     5     5     6    1
     6     6     7    1
     7     7     8   ar
     8     8     9   ar
     9     9    10   ar
    10    10    11    1
    11    11    12    1
    12    12    13    1
    13    13    14    1
    14    10    15   ar
    15    15    16   ar
    16     5    17    1
    17    17    18   ar
    18    18    19   ar
    19    19    20   ar
    20    20    21    1
    21    21    22    2
    22    21    23    2
    23    21    24    1
    24    24    25    1
    25    25    26    1
    26    26    27    1
    27    27    28    1
    28    28    29    1
    29    29    30    1
    30    30    31    1
    31    31    32   ar
    32    32    33   ar
    33    33    34   ar
    34    34    35   ar
    35    35    36   ar
    36    20    37   ar
    37    37    38   ar
    38    38     2    1
    39    16     7   ar
    40    38    17   ar
    41    28    24    1
    42    36    31   ar
    43     6    39    1
    44     6    40    1
    45     8    41    1
    46     9    42    1
    47    12    43    1
    48    12    44    1
    49    13    45    1
    50    13    46    1
    51    15    47    1
    52    16    48    1
    53    18    49    1
    54    19    50    1
    55    25    51    1
    56    25    52    1
    57    26    53    1
    58    26    54    1
    59    27    55    1
    60    27    56    1
    61    28    57    1
    62    29    58    1
    63    29    59    1
    64    32    60    1
    65    33    61    1
    66    34    62    1
    67    36    63    1
    68    37    64    1
