@<TRIPOS>MOLECULE
*****
 14 15 0 0 0
SMALL
GASTEIGER

@<TRIPOS>ATOM
      1 O          -2.3097    1.6063   -0.0972 O.3     1  UNL1       -0.4909
      2 C          -1.4770    0.5042   -0.0898 C.ar    1  UNL1        0.2436
      3 N          -1.9995   -0.7351   -0.1342 N.ar    1  UNL1       -0.1997
      4 C          -1.1789   -1.8216   -0.1269 C.ar    1  UNL1        0.1202
      5 N           0.1738   -1.6873   -0.0751 N.ar    1  UNL1       -0.2360
      6 C           0.7344   -0.4629   -0.0296 C.ar    1  UNL1        0.0982
      7 C          -0.1034    0.6277   -0.0375 C.ar    1  UNL1        0.1699
      8 N           0.7584    1.7438    0.0167 N.2     1  UNL1       -0.1470
      9 N           1.9765    1.4432    0.0546 N.2     1  UNL1       -0.1805
     10 C           2.1217    0.0177    0.0305 C.3     1  UNL1        0.1050
     11 H          -2.2967    2.2238    0.7203 H       1  UNL1        0.2938
     12 H          -1.6832   -2.7908   -0.1651 H       1  UNL1        0.1048
     13 H           2.6929   -0.3864    0.8845 H       1  UNL1        0.0592
     14 H           2.5908   -0.2825   -0.9513 H       1  UNL1        0.0592
@<TRIPOS>BOND
     1     1     2    1
     2     2     3   ar
     3     3     4   ar
     4     4     5   ar
     5     5     6   ar
     6     6     7   ar
     7     7     8    1
     8     8     9    2
     9     9    10    1
    10     7     2   ar
    11    10     6    1
    12     1    11    1
    13     4    12    1
    14    10    13    1
    15    10    14    1
