
     RDKit          3D

 14 15  0  0  0  0  0  0  0  0999 V2000
   -2.3097    1.6063   -0.0972 O   0  0  0  0  0  0  0  0  0  0  0  0
   -1.4770    0.5042   -0.0898 C   0  0  0  0  0  0  0  0  0  0  0  0
   -1.9995   -0.7351   -0.1342 N   0  0  0  0  0  0  0  0  0  0  0  0
   -1.1789   -1.8216   -0.1269 C   0  0  0  0  0  0  0  0  0  0  0  0
    0.1738   -1.6873   -0.0751 N   0  0  0  0  0  0  0  0  0  0  0  0
    0.7344   -0.4629   -0.0296 C   0  0  0  0  0  0  0  0  0  0  0  0
   -0.1034    0.6277   -0.0375 C   0  0  0  0  0  0  0  0  0  0  0  0
    0.7584    1.7438    0.0167 N   0  0  0  0  0  0  0  0  0  0  0  0
    1.9765    1.4432    0.0546 N   0  0  0  0  0  0  0  0  0  0  0  0
    2.1217    0.0177    0.0305 C   0  0  0  0  0  0  0  0  0  0  0  0
   -2.2967    2.2238    0.7203 H   0  0  0  0  0  0  0  0  0  0  0  0
   -1.6832   -2.7908   -0.1651 H   0  0  0  0  0  0  0  0  0  0  0  0
    2.6929   -0.3864    0.8845 H   0  0  0  0  0  0  0  0  0  0  0  0
    2.5908   -0.2825   -0.9513 H   0  0  0  0  0  0  0  0  0  0  0  0
  1  2  1  0
  2  3  2  0
  3  4  1  0
  4  5  2  0
  5  6  1  0
  6  7  2  0
  7  8  1  0
  8  9  2  0
  9 10  1  0
  7  2  1  0
 10  6  1  0
  1 11  1  0
  4 12  1  0
 10 13  1  0
 10 14  1  0
M  END
$$$$
