@<TRIPOS>MOLECULE
*****
 42 44 0 0 0
SMALL
GASTEIGER

@<TRIPOS>ATOM
      1 O           0.8782    1.4148    0.2601 O.2     1  UNL1       -0.2487
      2 C           0.6988    0.2272    0.6486 C.2     1  UNL1        0.3282
      3 O           1.8102   -0.6050    0.4750 O.3     1  UNL1       -0.4600
      4 C           3.0294   -0.1553   -0.0874 C.3     1  UNL1        0.1054
      5 C           4.1342   -0.2187    0.9347 C.3     1  UNL1       -0.0031
      6 C           5.2972   -1.0778    0.4784 C.3     1  UNL1       -0.0008
      7 N           5.6972   -0.5181   -0.8220 N.3     1  UNL1       -0.3157
      8 C           4.7297   -0.9435   -1.7739 C.3     1  UNL1       -0.0008
      9 C           3.3164   -0.8905   -1.3474 C.3     1  UNL1       -0.0031
     10 C          -0.5582   -0.2339    1.2275 C.3     1  UNL1        0.1246
     11 C          -1.2663   -1.1177    0.0816 C.3     1  UNL1       -0.0220
     12 C          -2.7485   -0.7900    0.0852 C.3     1  UNL1       -0.0282
     13 C          -3.1611    0.6191   -0.1970 C.3     1  UNL1        0.0727
     14 C          -1.8116    1.4253   -0.0440 C.3     1  UNL1        0.0381
     15 N          -1.6081    0.7153    1.2569 N.am    1  UNL1       -0.2685
     16 C          -2.7123    1.1757    1.9723 C.2     1  UNL1        0.3306
     17 O          -2.7089    1.5021    3.1733 O.2     1  UNL1       -0.2502
     18 N          -3.8164    1.1713    0.9990 N.am    1  UNL1       -0.1323
     19 O          -5.0418    1.5903    1.2674 O.3     1  UNL1       -0.0962
     20 S          -6.1005    1.4883    0.0247 S.O2    1  UNL1        0.2271
     21 O          -5.6978    2.3232   -1.1540 O.2     1  UNL1       -0.1164
     22 O          -7.4387    2.0179    0.4984 O.2     1  UNL1       -0.1164
     23 O          -6.3757   -0.0702   -0.5208 O.3     1  UNL1       -0.2297
     24 H           2.8863    0.9252   -0.3313 H       1  UNL1        0.0734
     25 H           3.7339   -0.6817    1.8600 H       1  UNL1        0.0313
     26 H           4.5174    0.7845    1.2169 H       1  UNL1        0.0313
     27 H           6.0980   -1.0050    1.2139 H       1  UNL1        0.0425
     28 H           4.9984   -2.1212    0.3290 H       1  UNL1        0.0425
     29 H           5.8235    0.5024   -0.7322 H       1  UNL1        0.1219
     30 H           4.9261   -0.3755   -2.7283 H       1  UNL1        0.0425
     31 H           4.9809   -2.0099   -2.0495 H       1  UNL1        0.0425
     32 H           2.7319   -0.3773   -2.1679 H       1  UNL1        0.0313
     33 H           2.8545   -1.9204   -1.3065 H       1  UNL1        0.0313
     34 H          -0.4573   -0.8707    2.1028 H       1  UNL1        0.0617
     35 H          -0.8289   -0.8798   -0.8652 H       1  UNL1        0.0289
     36 H          -1.1405   -2.1464    0.3747 H       1  UNL1        0.0289
     37 H          -3.1895   -1.4376   -0.6868 H       1  UNL1        0.0285
     38 H          -3.1408   -1.1676    1.0635 H       1  UNL1        0.0285
     39 H          -3.6425    0.8322   -1.1254 H       1  UNL1        0.0542
     40 H          -1.1281    1.1343   -0.8138 H       1  UNL1        0.0484
     41 H          -1.9797    2.4722    0.0573 H       1  UNL1        0.0484
     42 H          -6.5893   -0.7071    0.1875 H       1  UNL1        0.2470
@<TRIPOS>BOND
     1     1     2    2
     2     2     3    1
     3     3     4    1
     4     4     5    1
     5     5     6    1
     6     6     7    1
     7     7     8    1
     8     8     9    1
     9     2    10    1
    10    10    11    1
    11    11    12    1
    12    12    13    1
    13    13    14    1
    14    14    15    1
    15    15    16   am
    16    16    17    2
    17    16    18   am
    18    18    19    1
    19    19    20    1
    20    20    21    2
    21    20    22    2
    22    20    23    1
    23     9     4    1
    24    15    10    1
    25    18    13    1
    26     4    24    1
    27     5    25    1
    28     5    26    1
    29     6    27    1
    30     6    28    1
    31     7    29    1
    32     8    30    1
    33     8    31    1
    34     9    32    1
    35     9    33    1
    36    10    34    1
    37    11    35    1
    38    11    36    1
    39    12    37    1
    40    12    38    1
    41    13    39    1
    42    14    40    1
    43    14    41    1
    44    23    42    1
