@<TRIPOS>MOLECULE
*****
 66 72 0 0 0
SMALL
GASTEIGER

@<TRIPOS>ATOM
      1 C           1.9733    3.1857   -3.3582 C.3     1  UNL1       -0.0397
      2 C           1.3608    2.5592   -2.1419 C.ar    1  UNL1       -0.0494
      3 C           0.0073    2.2909   -2.1058 C.ar    1  UNL1       -0.0522
      4 C          -0.6083    1.7119   -0.9974 C.ar    1  UNL1       -0.0058
      5 C           0.1749    1.4100    0.0751 C.ar    1  UNL1        0.0545
      6 C           1.5550    1.6764    0.0534 C.ar    1  UNL1        0.0083
      7 C           2.1426    2.2499   -1.0536 C.ar    1  UNL1       -0.0491
      8 C           2.0891    1.2896    1.2401 C.ar    1  UNL1        0.0131
      9 C           3.4710    1.3060    1.7203 C.2     1  UNL1        0.0604
     10 C           4.5672    0.8673    1.1298 C.2     1  UNL1        0.0751
     11 C           4.6810    0.2319   -0.1872 C.ar    1  UNL1        0.0789
     12 C           5.5610    0.5984   -1.1836 C.ar    1  UNL1        0.0545
     13 N           5.4191   -0.2195   -2.2430 N.ar    1  UNL1       -0.2355
     14 C           4.4515   -1.1139   -1.9350 C.ar    1  UNL1        0.1380
     15 C           3.9316   -2.1707   -2.6668 C.ar    1  UNL1       -0.0188
     16 C           2.9514   -2.9501   -2.1211 C.ar    1  UNL1       -0.0569
     17 C           2.5222   -2.6407   -0.8472 C.ar    1  UNL1       -0.0450
     18 C           3.0493   -1.5837   -0.1277 C.ar    1  UNL1        0.0118
     19 N           4.0022   -0.8336   -0.6747 N.ar    1  UNL1       -0.2991
     20 C           5.7317    1.1002    2.0228 C.2     1  UNL1        0.2533
     21 O           6.9180    0.7747    1.7065 O.2     1  UNL1       -0.2697
     22 N           5.2677    1.7158    3.2076 N.am    1  UNL1       -0.2482
     23 C           3.8816    1.8506    3.0410 C.2     1  UNL1        0.2519
     24 O           3.0920    2.3484    3.8632 O.2     1  UNL1       -0.2697
     25 C           1.0414    0.7840    1.9982 C.ar    1  UNL1        0.0137
     26 N          -0.1045    0.8672    1.2708 N.ar    1  UNL1       -0.3443
     27 C          -1.3853    0.4040    1.7815 C.3     1  UNL1        0.0392
     28 C          -2.5572    1.1609    1.1586 C.3     1  UNL1        0.0345
     29 N          -2.7778    0.8723   -0.2123 N.am    1  UNL1       -0.2794
     30 C          -3.6775   -0.0487   -0.6817 C.2     1  UNL1        0.3051
     31 O          -3.7071   -0.1522   -2.0109 O.2     1  UNL1       -0.2524
     32 N          -4.5638   -0.8916   -0.0173 N.am    1  UNL1       -0.2855
     33 C          -4.7194   -0.9813    1.3943 C.3     1  UNL1        0.0161
     34 C          -5.5887   -2.2103    1.7452 C.3     1  UNL1       -0.0371
     35 C          -4.9956   -3.3692    0.9571 C.3     1  UNL1       -0.0502
     36 C          -5.2889   -3.1984   -0.5196 C.3     1  UNL1       -0.0371
     37 C          -5.4054   -1.7456   -0.8931 C.3     1  UNL1        0.0161
     38 C          -2.0381    1.5753   -1.3034 C.3     1  UNL1        0.0432
     39 H           2.3285    2.3958   -4.0176 H       1  UNL1        0.0278
     40 H           2.8369    3.8157   -3.0231 H       1  UNL1        0.0278
     41 H           1.2587    3.8742   -3.8677 H       1  UNL1        0.0278
     42 H          -0.5856    2.5522   -2.9940 H       1  UNL1        0.0624
     43 H           3.2104    2.4773   -1.0998 H       1  UNL1        0.0627
     44 H           6.2893    1.4116   -1.1900 H       1  UNL1        0.0852
     45 H           4.3277   -2.3515   -3.6707 H       1  UNL1        0.0654
     46 H           2.5241   -3.7947   -2.6844 H       1  UNL1        0.0619
     47 H           1.7507   -3.2285   -0.3732 H       1  UNL1        0.0632
     48 H           2.6782   -1.4085    0.8675 H       1  UNL1        0.0813
     49 H           5.9001    1.9881    4.0089 H       1  UNL1        0.1581
     50 H           1.0769    0.3802    3.0020 H       1  UNL1        0.0815
     51 H          -1.5023   -0.6677    1.6237 H       1  UNL1        0.0507
     52 H          -1.4389    0.6119    2.8781 H       1  UNL1        0.0507
     53 H          -3.4213    1.1004    1.8339 H       1  UNL1        0.0483
     54 H          -2.1787    2.2677    1.2544 H       1  UNL1        0.0483
     55 H          -5.2911   -0.1107    1.7769 H       1  UNL1        0.0465
     56 H          -3.7569   -1.1659    1.8765 H       1  UNL1        0.0465
     57 H          -6.6224   -1.9993    1.4793 H       1  UNL1        0.0280
     58 H          -5.4354   -2.4602    2.8146 H       1  UNL1        0.0280
     59 H          -5.4803   -4.2971    1.3096 H       1  UNL1        0.0266
     60 H          -3.9004   -3.3595    1.1093 H       1  UNL1        0.0266
     61 H          -4.4950   -3.7255   -1.0797 H       1  UNL1        0.0280
     62 H          -6.2507   -3.7127   -0.7366 H       1  UNL1        0.0280
     63 H          -6.4441   -1.3968   -0.8026 H       1  UNL1        0.0465
     64 H          -5.0421   -1.6055   -1.9190 H       1  UNL1        0.0465
     65 H          -2.2662    1.0841   -2.2414 H       1  UNL1        0.0515
     66 H          -2.4956    2.6037   -1.2798 H       1  UNL1        0.0515
@<TRIPOS>BOND
     1     1     2    1
     2     2     3   ar
     3     3     4   ar
     4     4     5   ar
     5     5     6   ar
     6     6     7   ar
     7     6     8   ar
     8     8     9    1
     9     9    10    2
    10    10    11    1
    11    11    12   ar
    12    12    13   ar
    13    13    14   ar
    14    14    15   ar
    15    15    16   ar
    16    16    17   ar
    17    17    18   ar
    18    18    19   ar
    19    10    20    1
    20    20    21    2
    21    20    22   am
    22    22    23   am
    23    23    24    2
    24     8    25   ar
    25    25    26   ar
    26    26    27    1
    27    27    28    1
    28    28    29    1
    29    29    30   am
    30    30    31    2
    31    30    32   am
    32    32    33    1
    33    33    34    1
    34    34    35    1
    35    35    36    1
    36    36    37    1
    37    29    38    1
    38     7     2   ar
    39    23     9    1
    40    37    32    1
    41    38     4    1
    42    26     5   ar
    43    19    11   ar
    44    19    14   ar
    45     1    39    1
    46     1    40    1
    47     1    41    1
    48     3    42    1
    49     7    43    1
    50    12    44    1
    51    15    45    1
    52    16    46    1
    53    17    47    1
    54    18    48    1
    55    22    49    1
    56    25    50    1
    57    27    51    1
    58    27    52    1
    59    28    53    1
    60    28    54    1
    61    33    55    1
    62    33    56    1
    63    34    57    1
    64    34    58    1
    65    35    59    1
    66    35    60    1
    67    36    61    1
    68    36    62    1
    69    37    63    1
    70    37    64    1
    71    38    65    1
    72    38    66    1
