
     RDKit          3D

 69 75  0  0  0  0  0  0  0  0999 V2000
   -4.3870    2.8707    0.8123 C   0  0  0  0  0  0  0  0  0  0  0  0
   -5.2206    2.5712   -0.3846 C   0  0  0  0  0  0  0  0  0  0  0  0
   -5.6082    3.6102   -1.2358 C   0  0  0  0  0  0  0  0  0  0  0  0
   -6.3852    3.3562   -2.3346 C   0  0  0  0  0  0  0  0  0  0  0  0
   -6.7760    2.0438   -2.5791 C   0  0  0  0  0  0  0  0  0  0  0  0
   -6.3920    1.0699   -1.7506 N   0  0  0  0  0  0  0  0  0  0  0  0
   -5.6162    1.2832   -0.6434 C   0  0  0  0  0  0  0  0  0  0  0  0
   -5.2283    0.1412    0.2168 C   0  0  0  0  0  0  0  0  0  0  0  0
   -3.9461   -0.3699    0.0597 N   0  0  0  0  0  0  0  0  0  0  0  0
   -3.5500   -1.4600    0.8777 C   0  0  0  0  0  0  0  0  0  0  0  0
   -2.1818   -1.1885    1.4111 C   0  0  0  0  0  0  0  0  0  0  0  0
   -1.1721   -1.1588    0.2842 C   0  0  0  0  0  0  0  0  0  0  0  0
   -1.8328   -0.6440   -0.9545 C   0  0  0  0  0  0  0  0  0  0  0  0
   -2.8958    0.3857   -0.5070 C   0  0  0  0  0  0  0  0  0  0  0  0
   -0.0645   -0.2504    0.6649 C   0  0  0  0  0  0  0  0  0  0  0  0
   -0.2006    0.9181    1.1809 O   0  0  0  0  0  0  0  0  0  0  0  0
    1.1504   -0.9036    0.3570 N   0  0  0  0  0  0  0  0  0  0  0  0
    2.4162   -0.2735    0.4079 C   0  0  0  0  0  0  0  0  0  0  0  0
    3.0825   -0.2943    1.5989 C   0  0  0  0  0  0  0  0  0  0  0  0
    4.3338    0.3018    1.7458 C   0  0  0  0  0  0  0  0  0  0  0  0
    4.8643    0.9093    0.6405 C   0  0  0  0  0  0  0  0  0  0  0  0
    6.1869    1.5755    0.7115 C   0  0  0  0  0  0  0  0  0  0  0  0
    6.5199    2.1521    1.9222 C   0  0  0  0  0  0  0  0  0  0  0  0
    7.7526    2.7785    2.0130 C   0  0  0  0  0  0  0  0  0  0  0  0
    8.5913    2.8018    0.9026 C   0  0  0  0  0  0  0  0  0  0  0  0
   10.1948    3.4676    0.5906 S   0  0  0  0  0  0  0  0  0  0  0  0
   10.2224    2.8596   -1.2173 C   0  0  0  0  0  0  0  0  0  0  0  0
    9.1898    2.3538   -1.2405 N   0  0  0  0  0  0  0  0  0  0  0  0
    8.2797    2.2363   -0.3058 C   0  0  0  0  0  0  0  0  0  0  0  0
    7.0291    1.6130   -0.3629 C   0  0  0  0  0  0  0  0  0  0  0  0
    4.2138    0.9447   -0.5734 C   0  0  0  0  0  0  0  0  0  0  0  0
    2.9566    0.3371   -0.6916 C   0  0  0  0  0  0  0  0  0  0  0  0
    0.8505   -2.2407    0.0118 C   0  0  0  0  0  0  0  0  0  0  0  0
    1.7454   -3.0861   -0.3177 O   0  0  0  0  0  0  0  0  0  0  0  0
   -0.5479   -2.4415    0.0988 N   0  0  0  0  0  0  0  0  0  0  0  0
   -1.1849   -3.7274    0.0116 C   0  0  0  0  0  0  0  0  0  0  0  0
   -1.5843   -4.2152   -1.2106 C   0  0  0  0  0  0  0  0  0  0  0  0
   -2.1965   -5.4556   -1.2563 C   0  0  0  0  0  0  0  0  0  0  0  0
   -2.5680   -5.9187   -2.3578 O   0  0  0  0  0  0  0  0  0  0  0  0
   -2.4077   -6.1876   -0.1431 N   0  0  0  0  0  0  0  0  0  0  0  0
   -2.0155   -5.6993    1.0236 C   0  0  0  0  0  0  0  0  0  0  0  0
   -1.4192   -4.4964    1.0862 N   0  0  0  0  0  0  0  0  0  0  0  0
   -4.2358    2.0157    1.4715 H   0  0  0  0  0  0  0  0  0  0  0  0
   -4.8809    3.6797    1.3991 H   0  0  0  0  0  0  0  0  0  0  0  0
   -3.3966    3.2763    0.4973 H   0  0  0  0  0  0  0  0  0  0  0  0
   -5.2625    4.5954   -0.9736 H   0  0  0  0  0  0  0  0  0  0  0  0
   -6.6920    4.1483   -3.0003 H   0  0  0  0  0  0  0  0  0  0  0  0
   -7.3916    1.7931   -3.4366 H   0  0  0  0  0  0  0  0  0  0  0  0
   -5.9896   -0.6756   -0.0262 H   0  0  0  0  0  0  0  0  0  0  0  0
   -5.4135    0.4237    1.2836 H   0  0  0  0  0  0  0  0  0  0  0  0
   -4.2894   -1.5861    1.7184 H   0  0  0  0  0  0  0  0  0  0  0  0
   -3.6164   -2.4094    0.3053 H   0  0  0  0  0  0  0  0  0  0  0  0
   -2.1766   -0.1870    1.8849 H   0  0  0  0  0  0  0  0  0  0  0  0
   -1.8755   -1.8976    2.2106 H   0  0  0  0  0  0  0  0  0  0  0  0
   -2.2935   -1.4643   -1.5178 H   0  0  0  0  0  0  0  0  0  0  0  0
   -1.0853   -0.1487   -1.6098 H   0  0  0  0  0  0  0  0  0  0  0  0
   -2.3355    1.0039    0.2551 H   0  0  0  0  0  0  0  0  0  0  0  0
   -3.1630    1.0024   -1.3652 H   0  0  0  0  0  0  0  0  0  0  0  0
    2.6715   -0.7722    2.4796 H   0  0  0  0  0  0  0  0  0  0  0  0
    4.8840    0.3041    2.6658 H   0  0  0  0  0  0  0  0  0  0  0  0
    5.8899    2.1452    2.7883 H   0  0  0  0  0  0  0  0  0  0  0  0
    8.1015    3.2605    2.9246 H   0  0  0  0  0  0  0  0  0  0  0  0
   11.1132    3.0900   -1.7954 H   0  0  0  0  0  0  0  0  0  0  0  0
    6.6667    1.1221   -1.2817 H   0  0  0  0  0  0  0  0  0  0  0  0
    4.6430    1.4284   -1.4431 H   0  0  0  0  0  0  0  0  0  0  0  0
    2.4099    0.3390   -1.6183 H   0  0  0  0  0  0  0  0  0  0  0  0
   -1.4114   -3.6222   -2.1005 H   0  0  0  0  0  0  0  0  0  0  0  0
   -2.8798   -7.1372   -0.2078 H   0  0  0  0  0  0  0  0  0  0  0  0
   -2.1900   -6.2968    1.9183 H   0  0  0  0  0  0  0  0  0  0  0  0
  1  2  1  0
  2  3  2  0
  3  4  1  0
  4  5  2  0
  5  6  1  0
  6  7  2  0
  7  8  1  0
  8  9  1  0
  9 10  1  0
 10 11  1  0
 11 12  1  0
 12 13  1  0
 13 14  1  0
 12 15  1  0
 15 16  2  0
 15 17  1  0
 17 18  1  0
 18 19  2  0
 19 20  1  0
 20 21  2  0
 21 22  1  0
 22 23  2  0
 23 24  1  0
 24 25  2  0
 25 26  1  0
 26 27  1  0
 27 28  2  0
 28 29  1  0
 29 30  2  0
 21 31  1  0
 31 32  2  0
 17 33  1  0
 33 34  2  0
 33 35  1  0
 35 36  1  0
 36 37  2  0
 37 38  1  0
 38 39  2  0
 38 40  1  0
 40 41  1  0
 41 42  2  0
  7  2  1  0
 14  9  1  0
 32 18  1  0
 42 36  1  0
 35 12  1  0
 30 22  1  0
 29 25  1  0
  1 43  1  0
  1 44  1  0
  1 45  1  0
  3 46  1  0
  4 47  1  0
  5 48  1  0
  8 49  1  0
  8 50  1  0
 10 51  1  0
 10 52  1  0
 11 53  1  0
 11 54  1  0
 13 55  1  0
 13 56  1  0
 14 57  1  0
 14 58  1  0
 19 59  1  0
 20 60  1  0
 23 61  1  0
 24 62  1  0
 27 63  1  0
 30 64  1  0
 31 65  1  0
 32 66  1  0
 37 67  1  0
 40 68  1  0
 41 69  1  0
M  END
$$$$
