@<TRIPOS>MOLECULE
*****
 69 75 0 0 0
SMALL
GASTEIGER

@<TRIPOS>ATOM
      1 C          -4.3870    2.8707    0.8123 C.3     1  UNL1       -0.0380
      2 C          -5.2206    2.5712   -0.3846 C.ar    1  UNL1       -0.0279
      3 C          -5.6082    3.6102   -1.2358 C.ar    1  UNL1       -0.0557
      4 C          -6.3852    3.3562   -2.3346 C.ar    1  UNL1       -0.0433
      5 C          -6.7760    2.0438   -2.5791 C.ar    1  UNL1        0.0279
      6 N          -6.3920    1.0699   -1.7506 N.ar    1  UNL1       -0.2583
      7 C          -5.6162    1.2832   -0.6434 C.ar    1  UNL1        0.0581
      8 C          -5.2283    0.1412    0.2168 C.3     1  UNL1        0.0415
      9 N          -3.9461   -0.3699    0.0597 N.3     1  UNL1       -0.2965
     10 C          -3.5500   -1.4600    0.8777 C.3     1  UNL1        0.0017
     11 C          -2.1818   -1.1885    1.4111 C.3     1  UNL1       -0.0095
     12 C          -1.1721   -1.1588    0.2842 C.3     1  UNL1        0.1240
     13 C          -1.8328   -0.6440   -0.9545 C.3     1  UNL1       -0.0095
     14 C          -2.8958    0.3857   -0.5070 C.3     1  UNL1        0.0017
     15 C          -0.0645   -0.2504    0.6649 C.2     1  UNL1        0.2516
     16 O          -0.2006    0.9181    1.1809 O.2     1  UNL1       -0.2724
     17 N           1.1504   -0.9036    0.3570 N.am    1  UNL1       -0.1920
     18 C           2.4162   -0.2735    0.4079 C.ar    1  UNL1        0.0455
     19 C           3.0825   -0.2943    1.5989 C.ar    1  UNL1       -0.0392
     20 C           4.3338    0.3018    1.7458 C.ar    1  UNL1       -0.0523
     21 C           4.8643    0.9093    0.6405 C.ar    1  UNL1       -0.0177
     22 C           6.1869    1.5755    0.7115 C.ar    1  UNL1       -0.0158
     23 C           6.5199    2.1521    1.9222 C.ar    1  UNL1       -0.0529
     24 C           7.7526    2.7785    2.0130 C.ar    1  UNL1       -0.0453
     25 C           8.5913    2.8018    0.9026 C.ar    1  UNL1        0.0390
     26 S          10.1948    3.4676    0.5906 S.2     1  UNL1       -0.0754
     27 C          10.2224    2.8596   -1.2173 C.ar    1  UNL1        0.0659
     28 N           9.1898    2.3538   -1.2405 N.ar    1  UNL1       -0.2474
     29 C           8.2797    2.2363   -0.3058 C.ar    1  UNL1        0.0787
     30 C           7.0291    1.6130   -0.3629 C.ar    1  UNL1       -0.0275
     31 C           4.2138    0.9447   -0.5734 C.ar    1  UNL1       -0.0523
     32 C           2.9566    0.3371   -0.6916 C.ar    1  UNL1       -0.0392
     33 C           0.8505   -2.2407    0.0118 C.2     1  UNL1        0.3219
     34 O           1.7454   -3.0861   -0.3177 O.2     1  UNL1       -0.2512
     35 N          -0.5479   -2.4415    0.0988 N.am    1  UNL1       -0.2240
     36 C          -1.1849   -3.7274    0.0116 C.ar    1  UNL1        0.1364
     37 C          -1.5843   -4.2152   -1.2106 C.ar    1  UNL1        0.0432
     38 C          -2.1965   -5.4556   -1.2563 C.ar    1  UNL1        0.2531
     39 O          -2.5680   -5.9187   -2.3578 O.2     1  UNL1       -0.2678
     40 N          -2.4077   -6.1876   -0.1431 N.ar    1  UNL1       -0.3133
     41 C          -2.0155   -5.6993    1.0236 C.ar    1  UNL1        0.0981
     42 N          -1.4192   -4.4964    1.0862 N.ar    1  UNL1       -0.2220
     43 H          -4.2358    2.0157    1.4715 H       1  UNL1        0.0278
     44 H          -4.8809    3.6797    1.3991 H       1  UNL1        0.0278
     45 H          -3.3966    3.2763    0.4973 H       1  UNL1        0.0278
     46 H          -5.2625    4.5954   -0.9736 H       1  UNL1        0.0621
     47 H          -6.6920    4.1483   -3.0003 H       1  UNL1        0.0633
     48 H          -7.3916    1.7931   -3.4366 H       1  UNL1        0.0829
     49 H          -5.9896   -0.6756   -0.0262 H       1  UNL1        0.0491
     50 H          -5.4135    0.4237    1.2836 H       1  UNL1        0.0491
     51 H          -4.2894   -1.5861    1.7184 H       1  UNL1        0.0427
     52 H          -3.6164   -2.4094    0.3053 H       1  UNL1        0.0427
     53 H          -2.1766   -0.1870    1.8849 H       1  UNL1        0.0303
     54 H          -1.8755   -1.8976    2.2106 H       1  UNL1        0.0303
     55 H          -2.2935   -1.4643   -1.5178 H       1  UNL1        0.0303
     56 H          -1.0853   -0.1487   -1.6098 H       1  UNL1        0.0303
     57 H          -2.3355    1.0039    0.2551 H       1  UNL1        0.0427
     58 H          -3.1630    1.0024   -1.3652 H       1  UNL1        0.0427
     59 H           2.6715   -0.7722    2.4796 H       1  UNL1        0.0636
     60 H           4.8840    0.3041    2.6658 H       1  UNL1        0.0624
     61 H           5.8899    2.1452    2.7883 H       1  UNL1        0.0624
     62 H           8.1015    3.2605    2.9246 H       1  UNL1        0.0629
     63 H          11.1132    3.0900   -1.7954 H       1  UNL1        0.0907
     64 H           6.6667    1.1221   -1.2817 H       1  UNL1        0.0645
     65 H           4.6430    1.4284   -1.4431 H       1  UNL1        0.0624
     66 H           2.4099    0.3390   -1.6183 H       1  UNL1        0.0636
     67 H          -1.4114   -3.6222   -2.1005 H       1  UNL1        0.0706
     68 H          -2.8798   -7.1372   -0.2078 H       1  UNL1        0.1698
     69 H          -2.1900   -6.2968    1.9183 H       1  UNL1        0.1028
@<TRIPOS>BOND
     1     1     2    1
     2     2     3   ar
     3     3     4   ar
     4     4     5   ar
     5     5     6   ar
     6     6     7   ar
     7     7     8    1
     8     8     9    1
     9     9    10    1
    10    10    11    1
    11    11    12    1
    12    12    13    1
    13    13    14    1
    14    12    15    1
    15    15    16    2
    16    15    17   am
    17    17    18    1
    18    18    19   ar
    19    19    20   ar
    20    20    21   ar
    21    21    22    1
    22    22    23   ar
    23    23    24   ar
    24    24    25   ar
    25    25    26   ar
    26    26    27   ar
    27    27    28   ar
    28    28    29   ar
    29    29    30   ar
    30    21    31   ar
    31    31    32   ar
    32    17    33   am
    33    33    34    2
    34    33    35   am
    35    35    36    1
    36    36    37   ar
    37    37    38   ar
    38    38    39    2
    39    38    40   ar
    40    40    41   ar
    41    41    42   ar
    42     7     2   ar
    43    14     9    1
    44    32    18   ar
    45    42    36   ar
    46    35    12    1
    47    30    22   ar
    48    29    25   ar
    49     1    43    1
    50     1    44    1
    51     1    45    1
    52     3    46    1
    53     4    47    1
    54     5    48    1
    55     8    49    1
    56     8    50    1
    57    10    51    1
    58    10    52    1
    59    11    53    1
    60    11    54    1
    61    13    55    1
    62    13    56    1
    63    14    57    1
    64    14    58    1
    65    19    59    1
    66    20    60    1
    67    23    61    1
    68    24    62    1
    69    27    63    1
    70    30    64    1
    71    31    65    1
    72    32    66    1
    73    37    67    1
    74    40    68    1
    75    41    69    1
