@<TRIPOS>MOLECULE
*****
 52 54 0 0 0
SMALL
GASTEIGER

@<TRIPOS>ATOM
      1 O           2.8668   -1.1378   -0.6593 O.2     1  UNL1       -0.2525
      2 C           2.6538   -0.0756   -0.0487 C.2     1  UNL1        0.3041
      3 N           3.7348    0.7263    0.4353 N.am    1  UNL1       -0.2695
      4 C           5.0888    0.3417    0.2392 C.ar    1  UNL1        0.0350
      5 C           5.8028    0.7271   -0.8755 C.ar    1  UNL1       -0.0370
      6 C           7.1227    0.3521   -1.0638 C.ar    1  UNL1       -0.0179
      7 C           7.7693   -0.4322   -0.1219 C.ar    1  UNL1        0.1301
      8 O           9.0975   -0.8046   -0.3197 O.3     1  UNL1       -0.4057
      9 C          10.1314    0.0496    0.1855 C.3     1  UNL1        0.5752
     10 F          10.0589    1.3047   -0.3743 F       1  UNL1       -0.1328
     11 F          11.3203   -0.5578   -0.1624 F       1  UNL1       -0.1328
     12 F           9.9933    0.1266    1.5472 F       1  UNL1       -0.1328
     13 C           7.0620   -0.8175    0.9881 C.ar    1  UNL1       -0.0179
     14 C           5.7398   -0.4391    1.1720 C.ar    1  UNL1       -0.0370
     15 N           1.3163    0.3461    0.1705 N.am    1  UNL1       -0.2963
     16 C           0.1631   -0.4330   -0.3018 C.3     1  UNL1        0.0248
     17 C          -0.6197   -0.9649    0.8774 C.3     1  UNL1       -0.0311
     18 C          -1.9888   -1.4215    0.5411 C.3     1  UNL1       -0.0141
     19 C          -2.7756   -0.4449   -0.2955 C.3     1  UNL1        0.1003
     20 O          -4.0163   -0.9235   -0.6881 O.3     1  UNL1       -0.4888
     21 C          -5.2277   -0.3649   -0.3662 C.ar    1  UNL1        0.1209
     22 C          -5.4351    0.7605    0.3960 C.ar    1  UNL1       -0.0192
     23 C          -6.7230    1.2491    0.6661 C.ar    1  UNL1       -0.0443
     24 C          -7.8457    0.6215    0.1779 C.ar    1  UNL1        0.0591
     25 C          -9.1980    1.1310    0.4585 C.2     1  UNL1        0.3368
     26 O          -9.4061    2.1438    1.1428 O.2     1  UNL1       -0.2451
     27 O         -10.2814    0.4426   -0.0691 O.3     1  UNL1       -0.4771
     28 C          -7.6559   -0.5069   -0.5874 C.ar    1  UNL1       -0.0443
     29 C          -6.3943   -0.9841   -0.8509 C.ar    1  UNL1       -0.0192
     30 C          -1.9968   -0.0064   -1.5208 C.3     1  UNL1       -0.0141
     31 C          -0.6269    0.4706   -1.1822 C.3     1  UNL1       -0.0311
     32 H           3.5222    1.6255    0.9506 H       1  UNL1        0.1564
     33 H           5.2945    1.3405   -1.6108 H       1  UNL1        0.0637
     34 H           7.6800    0.6567   -1.9403 H       1  UNL1        0.0655
     35 H           7.5628   -1.4328    1.7308 H       1  UNL1        0.0655
     36 H           5.1805   -0.7423    2.0473 H       1  UNL1        0.0637
     37 H           1.1839    1.2454    0.6887 H       1  UNL1        0.1505
     38 H           0.5838   -1.3188   -0.8191 H       1  UNL1        0.0499
     39 H          -0.0755   -1.7559    1.4130 H       1  UNL1        0.0284
     40 H          -0.7019   -0.1097    1.6011 H       1  UNL1        0.0284
     41 H          -1.9447   -2.3882    0.0013 H       1  UNL1        0.0301
     42 H          -2.5542   -1.5825    1.4758 H       1  UNL1        0.0301
     43 H          -2.8928    0.4609    0.3198 H       1  UNL1        0.0733
     44 H          -4.5814    1.2862    0.8004 H       1  UNL1        0.0654
     45 H          -6.8339    2.1410    1.2732 H       1  UNL1        0.0627
     46 H         -11.1568    0.9566   -0.2391 H       1  UNL1        0.2954
     47 H          -8.5446   -1.0060   -0.9755 H       1  UNL1        0.0627
     48 H          -6.2494   -1.8765   -1.4564 H       1  UNL1        0.0654
     49 H          -1.9191   -0.8630   -2.2116 H       1  UNL1        0.0301
     50 H          -2.5211    0.8032   -2.0594 H       1  UNL1        0.0301
     51 H          -0.7018    1.4609   -0.6905 H       1  UNL1        0.0284
     52 H          -0.0610    0.6202   -2.1240 H       1  UNL1        0.0284
@<TRIPOS>BOND
     1     1     2    2
     2     2     3   am
     3     3     4    1
     4     4     5   ar
     5     5     6   ar
     6     6     7   ar
     7     7     8    1
     8     8     9    1
     9     9    10    1
    10     9    11    1
    11     9    12    1
    12     7    13   ar
    13    13    14   ar
    14     2    15   am
    15    15    16    1
    16    16    17    1
    17    17    18    1
    18    18    19    1
    19    19    20    1
    20    20    21    1
    21    21    22   ar
    22    22    23   ar
    23    23    24   ar
    24    24    25    1
    25    25    26    2
    26    25    27    1
    27    24    28   ar
    28    28    29   ar
    29    19    30    1
    30    30    31    1
    31    14     4   ar
    32    31    16    1
    33    29    21   ar
    34     3    32    1
    35     5    33    1
    36     6    34    1
    37    13    35    1
    38    14    36    1
    39    15    37    1
    40    16    38    1
    41    17    39    1
    42    17    40    1
    43    18    41    1
    44    18    42    1
    45    19    43    1
    46    22    44    1
    47    23    45    1
    48    27    46    1
    49    28    47    1
    50    29    48    1
    51    30    49    1
    52    30    50    1
    53    31    51    1
    54    31    52    1
