
     RDKit          3D

 46 49  0  0  0  0  0  0  0  0999 V2000
   -0.1358   -2.2709    0.4537 C   0  0  2  0  0  0  0  0  0  0  0  0
   -0.9105   -2.5772   -0.8343 C   0  0  0  0  0  0  0  0  0  0  0  0
   -2.2506   -2.9461   -0.2283 C   0  0  0  0  0  0  0  0  0  0  0  0
   -3.2559   -3.0052   -1.1617 F   0  0  0  0  0  0  0  0  0  0  0  0
   -2.0828   -4.1215    0.4657 F   0  0  0  0  0  0  0  0  0  0  0  0
   -2.4343   -1.7784    0.7425 C   0  0  0  0  0  0  0  0  0  0  0  0
   -1.0633   -1.4003    1.2396 C   0  0  2  0  0  0  0  0  0  0  0  0
   -0.7534    0.0402    1.2356 C   0  0  1  0  0  0  0  0  0  0  0  0
    0.3726    0.4164    0.4311 O   0  0  0  0  0  0  0  0  0  0  0  0
    1.4495   -0.3918    0.1846 C   0  0  0  0  0  0  0  0  0  0  0  0
    1.1988   -1.7429    0.1950 C   0  0  0  0  0  0  0  0  0  0  0  0
    2.2403   -2.6210   -0.0464 C   0  0  0  0  0  0  0  0  0  0  0  0
    3.5236   -2.1345   -0.2958 C   0  0  0  0  0  0  0  0  0  0  0  0
    4.5948   -2.9826   -0.5423 O   0  0  0  0  0  0  0  0  0  0  0  0
    3.7420   -0.7620   -0.2988 C   0  0  0  0  0  0  0  0  0  0  0  0
    2.7000    0.1342   -0.0568 C   0  0  0  0  0  0  0  0  0  0  0  0
    2.8843    1.6108   -0.0496 C   0  0  0  0  0  0  0  0  0  0  0  0
    4.1729    2.0127   -0.3026 O   0  0  0  0  0  0  0  0  0  0  0  0
    4.1654    3.4232   -0.2580 C   0  0  0  0  0  0  0  0  0  0  0  0
   -1.8501    0.9319    0.7484 C   0  0  0  0  0  0  0  0  0  0  0  0
   -2.6862    1.5851    1.6340 C   0  0  0  0  0  0  0  0  0  0  0  0
   -3.7151    2.4202    1.2503 C   0  0  0  0  0  0  0  0  0  0  0  0
   -3.9174    2.6116   -0.1125 C   0  0  0  0  0  0  0  0  0  0  0  0
   -4.9538    3.4534   -0.5337 O   0  0  0  0  0  0  0  0  0  0  0  0
   -3.1063    1.9793   -1.0368 C   0  0  0  0  0  0  0  0  0  0  0  0
   -2.0893    1.1526   -0.5953 C   0  0  0  0  0  0  0  0  0  0  0  0
   -0.0235   -3.2733    0.9304 H   0  0  0  0  0  0  0  0  0  0  0  0
   -0.9890   -1.6917   -1.4915 H   0  0  0  0  0  0  0  0  0  0  0  0
   -0.4452   -3.4367   -1.3590 H   0  0  0  0  0  0  0  0  0  0  0  0
   -3.1061   -2.1867    1.5351 H   0  0  0  0  0  0  0  0  0  0  0  0
   -3.0012   -0.9648    0.2770 H   0  0  0  0  0  0  0  0  0  0  0  0
   -1.0233   -1.7886    2.3014 H   0  0  0  0  0  0  0  0  0  0  0  0
   -0.4329    0.3870    2.2632 H   0  0  0  0  0  0  0  0  0  0  0  0
    2.1219   -3.7093   -0.0553 H   0  0  0  0  0  0  0  0  0  0  0  0
    5.3679   -2.9479    0.1199 H   0  0  0  0  0  0  0  0  0  0  0  0
    4.7157   -0.3005   -0.4852 H   0  0  0  0  0  0  0  0  0  0  0  0
    2.6449    1.9620    0.9934 H   0  0  0  0  0  0  0  0  0  0  0  0
    2.1096    2.0970   -0.6807 H   0  0  0  0  0  0  0  0  0  0  0  0
    3.4802    3.8370   -1.0140 H   0  0  0  0  0  0  0  0  0  0  0  0
    5.2134    3.7411   -0.3598 H   0  0  0  0  0  0  0  0  0  0  0  0
    3.7667    3.7247    0.7343 H   0  0  0  0  0  0  0  0  0  0  0  0
   -2.5019    1.4146    2.6883 H   0  0  0  0  0  0  0  0  0  0  0  0
   -4.3214    2.8913    2.0134 H   0  0  0  0  0  0  0  0  0  0  0  0
   -4.6738    4.4027   -0.7996 H   0  0  0  0  0  0  0  0  0  0  0  0
   -3.2799    2.1409   -2.0834 H   0  0  0  0  0  0  0  0  0  0  0  0
   -1.4617    0.6638   -1.3324 H   0  0  0  0  0  0  0  0  0  0  0  0
  1  2  1  0
  2  3  1  0
  3  4  1  0
  3  5  1  0
  3  6  1  0
  6  7  1  0
  7  8  1  0
  8  9  1  0
  9 10  1  0
 10 11  2  0
 11 12  1  0
 12 13  2  0
 13 14  1  0
 13 15  1  0
 15 16  2  0
 16 17  1  0
 17 18  1  0
 18 19  1  0
  8 20  1  0
 20 21  2  0
 21 22  1  0
 22 23  2  0
 23 24  1  0
 23 25  1  0
 25 26  2  0
  7  1  1  0
 16 10  1  0
 26 20  1  0
 11  1  1  0
  1 27  1  1
  2 28  1  0
  2 29  1  0
  6 30  1  0
  6 31  1  0
  7 32  1  1
  8 33  1  1
 12 34  1  0
 14 35  1  0
 15 36  1  0
 17 37  1  0
 17 38  1  0
 19 39  1  0
 19 40  1  0
 19 41  1  0
 21 42  1  0
 22 43  1  0
 24 44  1  0
 25 45  1  0
 26 46  1  0
M  END
$$$$
