@<TRIPOS>MOLECULE
*****
 46 49 0 0 0
SMALL
GASTEIGER

@<TRIPOS>ATOM
      1 C          -0.1358   -2.2709    0.4537 C.3     1  UNL1       -0.0002
      2 C          -0.9105   -2.5772   -0.8343 C.3     1  UNL1        0.0181
      3 C          -2.2506   -2.9461   -0.2283 C.3     1  UNL1        0.2499
      4 F          -3.2559   -3.0052   -1.1617 F       1  UNL1       -0.2056
      5 F          -2.0828   -4.1215    0.4657 F       1  UNL1       -0.2056
      6 C          -2.4343   -1.7784    0.7425 C.3     1  UNL1        0.0178
      7 C          -1.0633   -1.4003    1.2396 C.3     1  UNL1        0.0128
      8 C          -0.7534    0.0402    1.2356 C.3     1  UNL1        0.1287
      9 O           0.3726    0.4164    0.4311 O.3     1  UNL1       -0.4833
     10 C           1.4495   -0.3918    0.1846 C.ar    1  UNL1        0.1304
     11 C           1.1988   -1.7429    0.1950 C.ar    1  UNL1        0.0018
     12 C           2.2403   -2.6210   -0.0464 C.ar    1  UNL1       -0.0132
     13 C           3.5236   -2.1345   -0.2958 C.ar    1  UNL1        0.1177
     14 O           4.5948   -2.9826   -0.5423 O.3     1  UNL1       -0.5067
     15 C           3.7420   -0.7620   -0.2988 C.ar    1  UNL1       -0.0113
     16 C           2.7000    0.1342   -0.0568 C.ar    1  UNL1        0.0234
     17 C           2.8843    1.6108   -0.0496 C.3     1  UNL1        0.0759
     18 O           4.1729    2.0127   -0.3026 O.3     1  UNL1       -0.3783
     19 C           4.1654    3.4232   -0.2580 C.3     1  UNL1        0.0369
     20 C          -1.8501    0.9319    0.7484 C.ar    1  UNL1       -0.0068
     21 C          -2.6862    1.5851    1.6340 C.ar    1  UNL1       -0.0516
     22 C          -3.7151    2.4202    1.2503 C.ar    1  UNL1       -0.0198
     23 C          -3.9174    2.6116   -0.1125 C.ar    1  UNL1        0.1169
     24 O          -4.9538    3.4534   -0.5337 O.3     1  UNL1       -0.5068
     25 C          -3.1063    1.9793   -1.0368 C.ar    1  UNL1       -0.0198
     26 C          -2.0893    1.1526   -0.5953 C.ar    1  UNL1       -0.0516
     27 H          -0.0235   -3.2733    0.9304 H       1  UNL1        0.0356
     28 H          -0.9890   -1.6917   -1.4915 H       1  UNL1        0.0329
     29 H          -0.4452   -3.4367   -1.3590 H       1  UNL1        0.0329
     30 H          -3.1061   -2.1867    1.5351 H       1  UNL1        0.0327
     31 H          -3.0012   -0.9648    0.2770 H       1  UNL1        0.0327
     32 H          -1.0233   -1.7886    2.3014 H       1  UNL1        0.0348
     33 H          -0.4329    0.3870    2.2632 H       1  UNL1        0.0787
     34 H           2.1219   -3.7093   -0.0553 H       1  UNL1        0.0658
     35 H           5.3679   -2.9479    0.1199 H       1  UNL1        0.2921
     36 H           4.7157   -0.3005   -0.4852 H       1  UNL1        0.0659
     37 H           2.6449    1.9620    0.9934 H       1  UNL1        0.0611
     38 H           2.1096    2.0970   -0.6807 H       1  UNL1        0.0611
     39 H           3.4802    3.8370   -1.0140 H       1  UNL1        0.0524
     40 H           5.2134    3.7411   -0.3598 H       1  UNL1        0.0524
     41 H           3.7667    3.7247    0.7343 H       1  UNL1        0.0524
     42 H          -2.5019    1.4146    2.6883 H       1  UNL1        0.0623
     43 H          -4.3214    2.8913    2.0134 H       1  UNL1        0.0654
     44 H          -4.6738    4.4027   -0.7996 H       1  UNL1        0.2921
     45 H          -3.2799    2.1409   -2.0834 H       1  UNL1        0.0654
     46 H          -1.4617    0.6638   -1.3324 H       1  UNL1        0.0623
@<TRIPOS>BOND
     1     1     2    1
     2     2     3    1
     3     3     4    1
     4     3     5    1
     5     3     6    1
     6     6     7    1
     7     7     8    1
     8     8     9    1
     9     9    10    1
    10    10    11   ar
    11    11    12   ar
    12    12    13   ar
    13    13    14    1
    14    13    15   ar
    15    15    16   ar
    16    16    17    1
    17    17    18    1
    18    18    19    1
    19     8    20    1
    20    20    21   ar
    21    21    22   ar
    22    22    23   ar
    23    23    24    1
    24    23    25   ar
    25    25    26   ar
    26     7     1    1
    27    16    10   ar
    28    26    20   ar
    29    11     1    1
    30     1    27    1
    31     2    28    1
    32     2    29    1
    33     6    30    1
    34     6    31    1
    35     7    32    1
    36     8    33    1
    37    12    34    1
    38    14    35    1
    39    15    36    1
    40    17    37    1
    41    17    38    1
    42    19    39    1
    43    19    40    1
    44    19    41    1
    45    21    42    1
    46    22    43    1
    47    24    44    1
    48    25    45    1
    49    26    46    1
