@<TRIPOS>MOLECULE
*****
 40 42 0 0 0
SMALL
GASTEIGER

@<TRIPOS>ATOM
      1 C          -0.8871   -1.2508    2.7747 C.3     1  UNL1        0.0790
      2 O          -1.0808   -0.4677    1.6240 O.3     1  UNL1       -0.4914
      3 C          -0.0143   -0.2422    0.7648 C.ar    1  UNL1        0.1627
      4 C           1.2444   -0.7888    1.0431 C.ar    1  UNL1       -0.0091
      5 C           2.3134   -0.5726    0.2005 C.ar    1  UNL1       -0.0201
      6 C           3.6088   -1.1829    0.5113 C.2     1  UNL1       -0.0355
      7 C           4.7032   -0.5065    0.6110 C.2     1  UNL1        0.0812
      8 S           6.3159   -1.1791    0.9792 S.3     1  UNL1       -0.0290
      9 C           7.1624    0.3943    0.9661 C.2     1  UNL1        0.2466
     10 O           8.5313    0.5542    1.1956 O.2     1  UNL1       -0.4890
     11 N           6.2867    1.2770    0.7157 N.am    1  UNL1       -0.1348
     12 C           4.9688    0.8943    0.5169 C.2     1  UNL1        0.2774
     13 O           4.0677    1.7781    0.2675 O.2     1  UNL1       -0.2674
     14 C           2.1164    0.1883   -0.9177 C.ar    1  UNL1       -0.0509
     15 C           0.8608    0.7389   -1.2030 C.ar    1  UNL1       -0.0151
     16 C          -0.2175    0.5276   -0.3614 C.ar    1  UNL1        0.1699
     17 O          -1.4626    1.0504   -0.6004 O.3     1  UNL1       -0.4518
     18 C          -2.6412    0.3819   -0.8122 C.ar    1  UNL1        0.1403
     19 C          -2.7279   -0.9878   -0.8476 C.ar    1  UNL1       -0.0175
     20 C          -3.9608   -1.5686   -1.0646 C.ar    1  UNL1       -0.0409
     21 C          -5.1227   -0.8624   -1.2509 C.ar    1  UNL1        0.0525
     22 C          -6.3829   -1.4799   -1.4700 C.1     1  UNL1        0.0992
     23 N          -7.4174   -2.0095   -1.6496 N.1     1  UNL1       -0.1909
     24 C          -5.0265    0.5244   -1.2142 C.ar    1  UNL1       -0.0291
     25 C          -3.8152    1.1288   -1.0001 C.ar    1  UNL1        0.0981
     26 C          -3.7345    2.6122   -0.9650 C.3     1  UNL1        0.4208
     27 F          -2.9002    3.0984   -1.9380 F       1  UNL1       -0.1658
     28 F          -3.2979    2.9484    0.3045 F       1  UNL1       -0.1658
     29 F          -4.9874    3.1341   -1.1386 F       1  UNL1       -0.1658
     30 H          -0.2044   -0.6877    3.4651 H       1  UNL1        0.0660
     31 H          -1.8355   -1.3908    3.3372 H       1  UNL1        0.0660
     32 H          -0.4217   -2.2301    2.5253 H       1  UNL1        0.0660
     33 H           1.4094   -1.3971    1.9314 H       1  UNL1        0.0661
     34 H           3.6209   -2.2914    0.6623 H       1  UNL1        0.0636
     35 H           8.9942    1.3292    0.7343 H       1  UNL1        0.2941
     36 H           2.9305    0.3602   -1.6209 H       1  UNL1        0.0625
     37 H           0.7408    1.3356   -2.0944 H       1  UNL1        0.0656
     38 H          -1.8287   -1.6110   -0.7125 H       1  UNL1        0.0655
     39 H          -3.9881   -2.6664   -1.0854 H       1  UNL1        0.0631
     40 H          -5.9204    1.1168   -1.3575 H       1  UNL1        0.0637
@<TRIPOS>BOND
     1     1     2    1
     2     2     3    1
     3     3     4   ar
     4     4     5   ar
     5     5     6    1
     6     6     7    2
     7     7     8    1
     8     8     9    1
     9     9    10    1
    10     9    11    2
    11    11    12    1
    12    12    13    2
    13     5    14   ar
    14    14    15   ar
    15    15    16   ar
    16    16    17    1
    17    17    18    1
    18    18    19   ar
    19    19    20   ar
    20    20    21   ar
    21    21    22    1
    22    22    23    3
    23    21    24   ar
    24    24    25   ar
    25    25    26    1
    26    26    27    1
    27    26    28    1
    28    26    29    1
    29    16     3   ar
    30    25    18   ar
    31    12     7    1
    32     1    30    1
    33     1    31    1
    34     1    32    1
    35     4    33    1
    36     6    34    1
    37    10    35    1
    38    14    36    1
    39    15    37    1
    40    19    38    1
    41    20    39    1
    42    24    40    1
