
     RDKit          3D

 44 47  0  0  0  0  0  0  0  0999 V2000
    5.7367    1.2455   -0.3152 C   0  0  0  0  0  0  0  0  0  0  0  0
    4.5160    0.4942   -0.1038 N   0  0  0  0  0  0  0  0  0  0  0  0
    4.0608   -0.1506   -1.3191 C   0  0  0  0  0  0  0  0  0  0  0  0
    2.7302    0.4527   -1.7406 C   0  0  0  0  0  0  0  0  0  0  0  0
    1.7823    0.1466   -0.6706 N   0  0  0  0  0  0  0  0  0  0  0  0
    2.2594    0.3965    0.6609 C   0  0  0  0  0  0  0  0  0  0  0  0
    3.4904    1.2728    0.5261 C   0  0  0  0  0  0  0  0  0  0  0  0
    0.5053   -0.3588   -1.0451 C   0  0  0  0  0  0  0  0  0  0  0  0
    0.3288   -0.4897   -2.2866 O   0  0  0  0  0  0  0  0  0  0  0  0
   -0.4783   -0.6879   -0.1586 O   0  0  0  0  0  0  0  0  0  0  0  0
   -1.7562   -1.1888   -0.4393 C   0  0  2  0  0  0  0  0  0  0  0  0
   -2.8490   -0.3720    0.0352 N   0  0  0  0  0  0  0  0  0  0  0  0
   -3.6552   -1.2127    0.8852 C   0  0  0  0  0  0  0  0  0  0  0  0
   -4.7129   -0.9667    1.5516 O   0  0  0  0  0  0  0  0  0  0  0  0
   -3.1021   -2.5612    0.9426 C   0  0  0  0  0  0  0  0  0  0  0  0
   -3.4263   -3.7172    1.5464 N   0  0  0  0  0  0  0  0  0  0  0  0
   -2.7025   -4.8415    1.3995 C   0  0  0  0  0  0  0  0  0  0  0  0
   -1.5790   -4.8222    0.5994 C   0  0  0  0  0  0  0  0  0  0  0  0
   -1.2422   -3.6544   -0.0168 N   0  0  0  0  0  0  0  0  0  0  0  0
   -1.9790   -2.5399    0.1427 C   0  0  0  0  0  0  0  0  0  0  0  0
   -3.2247    0.9776   -0.1729 C   0  0  0  0  0  0  0  0  0  0  0  0
   -4.3140    1.4817    0.4297 N   0  0  0  0  0  0  0  0  0  0  0  0
   -4.6879    2.7813    0.2342 C   0  0  0  0  0  0  0  0  0  0  0  0
   -3.9809    3.6356   -0.5788 C   0  0  0  0  0  0  0  0  0  0  0  0
   -4.4520    5.3031   -0.8358 Cl  0  0  0  0  0  0  0  0  0  0  0  0
   -2.8582    3.1479   -1.2113 C   0  0  0  0  0  0  0  0  0  0  0  0
   -2.5147    1.8311   -0.9879 C   0  0  0  0  0  0  0  0  0  0  0  0
    5.5444    2.3435   -0.4842 H   0  0  0  0  0  0  0  0  0  0  0  0
    6.3237    1.1931    0.6297 H   0  0  0  0  0  0  0  0  0  0  0  0
    6.3531    0.8207   -1.1296 H   0  0  0  0  0  0  0  0  0  0  0  0
    4.8074   -0.1493   -2.1163 H   0  0  0  0  0  0  0  0  0  0  0  0
    3.8343   -1.2085   -1.0571 H   0  0  0  0  0  0  0  0  0  0  0  0
    2.7741    1.5472   -1.8267 H   0  0  0  0  0  0  0  0  0  0  0  0
    2.4128   -0.0091   -2.6853 H   0  0  0  0  0  0  0  0  0  0  0  0
    2.5823   -0.5188    1.1924 H   0  0  0  0  0  0  0  0  0  0  0  0
    1.5005    0.9251    1.2769 H   0  0  0  0  0  0  0  0  0  0  0  0
    3.2927    2.2431    0.0623 H   0  0  0  0  0  0  0  0  0  0  0  0
    3.8565    1.4740    1.5745 H   0  0  0  0  0  0  0  0  0  0  0  0
   -1.8469   -1.2665   -1.5411 H   0  0  0  0  0  0  0  0  0  0  0  0
   -2.9317   -5.7835    1.8668 H   0  0  0  0  0  0  0  0  0  0  0  0
   -0.9079   -5.6453    0.3919 H   0  0  0  0  0  0  0  0  0  0  0  0
   -5.5780    3.1377    0.7464 H   0  0  0  0  0  0  0  0  0  0  0  0
   -2.2769    3.7889   -1.8579 H   0  0  0  0  0  0  0  0  0  0  0  0
   -1.6353    1.5042   -1.5055 H   0  0  0  0  0  0  0  0  0  0  0  0
  1  2  1  0
  2  3  1  0
  3  4  1  0
  4  5  1  0
  5  6  1  0
  6  7  1  0
  5  8  1  0
  8  9  2  0
  8 10  1  0
 10 11  1  0
 11 12  1  0
 12 13  1  0
 13 14  2  0
 13 15  1  0
 15 16  2  0
 16 17  1  0
 17 18  2  0
 18 19  1  0
 19 20  2  0
 12 21  1  0
 21 22  2  0
 22 23  1  0
 23 24  2  0
 24 25  1  0
 24 26  1  0
 26 27  2  0
  7  2  1  0
 20 11  1  0
 27 21  1  0
 20 15  1  0
  1 28  1  0
  1 29  1  0
  1 30  1  0
  3 31  1  0
  3 32  1  0
  4 33  1  0
  4 34  1  0
  6 35  1  0
  6 36  1  0
  7 37  1  0
  7 38  1  0
 11 39  1  6
 17 40  1  0
 18 41  1  0
 23 42  1  0
 26 43  1  0
 27 44  1  0
M  END
$$$$
