@<TRIPOS>MOLECULE
*****
 64 68 0 0 0
SMALL
GASTEIGER

@<TRIPOS>ATOM
      1 O          -1.6861    1.1097    3.8299 O.2     1  UNL1       -0.2741
      2 C          -2.4766    0.9725    2.8624 C.2     1  UNL1        0.2304
      3 C          -3.9081    1.0796    3.1331 C.3     1  UNL1        0.0870
      4 N          -4.7616    0.8882    1.9769 N.pl3   1  UNL1       -0.3199
      5 C          -4.8464   -0.3513    1.3027 C.ar    1  UNL1        0.1301
      6 N          -4.1204   -1.3813    1.7722 N.ar    1  UNL1       -0.2203
      7 C          -4.1232   -2.5933    1.2351 C.ar    1  UNL1        0.1187
      8 N          -4.8816   -2.8450    0.1603 N.ar    1  UNL1       -0.2353
      9 C          -5.6399   -1.8842   -0.3807 C.ar    1  UNL1        0.0760
     10 C          -6.4024   -2.1822   -1.4811 C.ar    1  UNL1       -0.0350
     11 C          -7.1838   -1.1704   -2.0290 C.ar    1  UNL1       -0.0481
     12 C          -7.1687    0.0774   -1.4607 C.ar    1  UNL1        0.0556
     13 C          -7.9978    1.1606   -2.0377 C.3     1  UNL1        0.4174
     14 F          -7.3471    2.3616   -1.8267 F       1  UNL1       -0.1659
     15 F          -9.2358    1.2631   -1.4427 F       1  UNL1       -0.1659
     16 F          -8.1335    0.8994   -3.3833 F       1  UNL1       -0.1659
     17 C          -6.3968    0.3687   -0.3514 C.ar    1  UNL1       -0.0376
     18 C          -5.6215   -0.6130    0.2020 C.ar    1  UNL1        0.0406
     19 N          -1.9026    0.7259    1.5874 N.am    1  UNL1       -0.3087
     20 C          -0.4419    0.6363    1.4392 C.3     1  UNL1        0.0486
     21 C           0.1003    1.4853    0.3059 C.3     1  UNL1        0.0189
     22 N           0.6352    0.3284   -0.3660 N.3     1  UNL1       -0.2958
     23 C           2.0683    0.2444   -0.1975 C.3     1  UNL1        0.0107
     24 C           2.5876   -1.0100   -0.8796 C.3     1  UNL1       -0.0344
     25 C           4.0704   -0.9421   -1.0388 C.3     1  UNL1       -0.0184
     26 C           4.7216    0.0857   -0.1073 C.3     1  UNL1        0.0910
     27 O           4.4978   -0.3573    1.2214 O.3     1  UNL1       -0.3840
     28 C           6.1804   -0.0296   -0.3469 C.ar    1  UNL1       -0.0161
     29 C           6.8344    0.6776   -1.3060 C.ar    1  UNL1       -0.0559
     30 C           8.1938    0.5165   -1.4659 C.ar    1  UNL1       -0.0614
     31 C           8.9194   -0.3357   -0.6906 C.ar    1  UNL1       -0.0617
     32 C           8.2839   -1.0664    0.2898 C.ar    1  UNL1       -0.0614
     33 C           6.9264   -0.8948    0.4379 C.ar    1  UNL1       -0.0559
     34 C           4.1699    1.4570   -0.3070 C.3     1  UNL1       -0.0184
     35 C           2.7703    1.4024   -0.9081 C.3     1  UNL1       -0.0344
     36 C          -0.0544   -0.5233    0.5825 C.3     1  UNL1        0.0189
     37 H          -4.1102    2.0698    3.5559 H       1  UNL1        0.0557
     38 H          -4.1680    0.3441    3.9242 H       1  UNL1        0.0557
     39 H          -5.3309    1.6858    1.6304 H       1  UNL1        0.1480
     40 H          -3.5209   -3.4037    1.6443 H       1  UNL1        0.1048
     41 H          -6.4519   -3.1446   -1.9673 H       1  UNL1        0.0639
     42 H          -7.8011   -1.3905   -2.9104 H       1  UNL1        0.0624
     43 H          -6.4000    1.3710    0.0849 H       1  UNL1        0.0631
     44 H          -2.5104    0.6135    0.7539 H       1  UNL1        0.1491
     45 H           0.1000    0.7756    2.3743 H       1  UNL1        0.0523
     46 H           0.7856    2.2760    0.6075 H       1  UNL1        0.0445
     47 H          -0.7407    1.9053   -0.3032 H       1  UNL1        0.0445
     48 H           2.2671    0.2416    0.8830 H       1  UNL1        0.0462
     49 H           2.1452   -1.0172   -1.9044 H       1  UNL1        0.0281
     50 H           2.2455   -1.9165   -0.3335 H       1  UNL1        0.0281
     51 H           4.3671   -0.6464   -2.0793 H       1  UNL1        0.0297
     52 H           4.5042   -1.9287   -0.7858 H       1  UNL1        0.0297
     53 H           4.2610   -1.3193    1.2174 H       1  UNL1        0.2106
     54 H           6.3168    1.3745   -1.9632 H       1  UNL1        0.0621
     55 H           8.7264    1.0754   -2.2273 H       1  UNL1        0.0618
     56 H           9.9996   -0.4876   -0.7904 H       1  UNL1        0.0618
     57 H           8.8143   -1.7523    0.9274 H       1  UNL1        0.0618
     58 H           6.4119   -1.4720    1.2159 H       1  UNL1        0.0621
     59 H           4.0226    1.9083    0.7170 H       1  UNL1        0.0297
     60 H           4.7660    2.1290   -0.9258 H       1  UNL1        0.0297
     61 H           2.2293    2.3492   -0.8092 H       1  UNL1        0.0281
     62 H           2.8082    1.1161   -1.9950 H       1  UNL1        0.0281
     63 H          -0.9248   -1.0030    0.0581 H       1  UNL1        0.0445
     64 H           0.5584   -1.3139    1.0499 H       1  UNL1        0.0445
@<TRIPOS>BOND
     1     1     2    2
     2     2     3    1
     3     3     4    1
     4     4     5    1
     5     5     6   ar
     6     6     7   ar
     7     7     8   ar
     8     8     9   ar
     9     9    10   ar
    10    10    11   ar
    11    11    12   ar
    12    12    13    1
    13    13    14    1
    14    13    15    1
    15    13    16    1
    16    12    17   ar
    17    17    18   ar
    18     2    19   am
    19    19    20    1
    20    20    21    1
    21    21    22    1
    22    22    23    1
    23    23    24    1
    24    24    25    1
    25    25    26    1
    26    26    27    1
    27    26    28    1
    28    28    29   ar
    29    29    30   ar
    30    30    31   ar
    31    31    32   ar
    32    32    33   ar
    33    26    34    1
    34    34    35    1
    35    22    36    1
    36    18     5   ar
    37    36    20    1
    38    18     9   ar
    39    35    23    1
    40    33    28   ar
    41     3    37    1
    42     3    38    1
    43     4    39    1
    44     7    40    1
    45    10    41    1
    46    11    42    1
    47    17    43    1
    48    19    44    1
    49    20    45    1
    50    21    46    1
    51    21    47    1
    52    23    48    1
    53    24    49    1
    54    24    50    1
    55    25    51    1
    56    25    52    1
    57    27    53    1
    58    29    54    1
    59    30    55    1
    60    31    56    1
    61    32    57    1
    62    33    58    1
    63    34    59    1
    64    34    60    1
    65    35    61    1
    66    35    62    1
    67    36    63    1
    68    36    64    1
