
     RDKit          3D

 64 68  0  0  0  0  0  0  0  0999 V2000
   -1.6861    1.1097    3.8299 O   0  0  0  0  0  0  0  0  0  0  0  0
   -2.4766    0.9725    2.8624 C   0  0  0  0  0  0  0  0  0  0  0  0
   -3.9081    1.0796    3.1331 C   0  0  0  0  0  0  0  0  0  0  0  0
   -4.7616    0.8882    1.9769 N   0  0  0  0  0  0  0  0  0  0  0  0
   -4.8464   -0.3513    1.3027 C   0  0  0  0  0  0  0  0  0  0  0  0
   -4.1204   -1.3813    1.7722 N   0  0  0  0  0  0  0  0  0  0  0  0
   -4.1232   -2.5933    1.2351 C   0  0  0  0  0  0  0  0  0  0  0  0
   -4.8816   -2.8450    0.1603 N   0  0  0  0  0  0  0  0  0  0  0  0
   -5.6399   -1.8842   -0.3807 C   0  0  0  0  0  0  0  0  0  0  0  0
   -6.4024   -2.1822   -1.4811 C   0  0  0  0  0  0  0  0  0  0  0  0
   -7.1838   -1.1704   -2.0290 C   0  0  0  0  0  0  0  0  0  0  0  0
   -7.1687    0.0774   -1.4607 C   0  0  0  0  0  0  0  0  0  0  0  0
   -7.9978    1.1606   -2.0377 C   0  0  0  0  0  0  0  0  0  0  0  0
   -7.3471    2.3616   -1.8267 F   0  0  0  0  0  0  0  0  0  0  0  0
   -9.2358    1.2631   -1.4427 F   0  0  0  0  0  0  0  0  0  0  0  0
   -8.1335    0.8994   -3.3833 F   0  0  0  0  0  0  0  0  0  0  0  0
   -6.3968    0.3687   -0.3514 C   0  0  0  0  0  0  0  0  0  0  0  0
   -5.6215   -0.6130    0.2020 C   0  0  0  0  0  0  0  0  0  0  0  0
   -1.9026    0.7259    1.5874 N   0  0  0  0  0  0  0  0  0  0  0  0
   -0.4419    0.6363    1.4392 C   0  0  0  0  0  0  0  0  0  0  0  0
    0.1003    1.4853    0.3059 C   0  0  0  0  0  0  0  0  0  0  0  0
    0.6352    0.3284   -0.3660 N   0  0  0  0  0  0  0  0  0  0  0  0
    2.0683    0.2444   -0.1975 C   0  0  1  0  0  0  0  0  0  0  0  0
    2.5876   -1.0100   -0.8796 C   0  0  0  0  0  0  0  0  0  0  0  0
    4.0704   -0.9421   -1.0388 C   0  0  0  0  0  0  0  0  0  0  0  0
    4.7216    0.0857   -0.1073 C   0  0  1  0  0  0  0  0  0  0  0  0
    4.4978   -0.3573    1.2214 O   0  0  0  0  0  0  0  0  0  0  0  0
    6.1804   -0.0296   -0.3469 C   0  0  0  0  0  0  0  0  0  0  0  0
    6.8344    0.6776   -1.3060 C   0  0  0  0  0  0  0  0  0  0  0  0
    8.1938    0.5165   -1.4659 C   0  0  0  0  0  0  0  0  0  0  0  0
    8.9194   -0.3357   -0.6906 C   0  0  0  0  0  0  0  0  0  0  0  0
    8.2839   -1.0664    0.2898 C   0  0  0  0  0  0  0  0  0  0  0  0
    6.9264   -0.8948    0.4379 C   0  0  0  0  0  0  0  0  0  0  0  0
    4.1699    1.4570   -0.3070 C   0  0  0  0  0  0  0  0  0  0  0  0
    2.7703    1.4024   -0.9081 C   0  0  0  0  0  0  0  0  0  0  0  0
   -0.0544   -0.5233    0.5825 C   0  0  0  0  0  0  0  0  0  0  0  0
   -4.1102    2.0698    3.5559 H   0  0  0  0  0  0  0  0  0  0  0  0
   -4.1680    0.3441    3.9242 H   0  0  0  0  0  0  0  0  0  0  0  0
   -5.3309    1.6858    1.6304 H   0  0  0  0  0  0  0  0  0  0  0  0
   -3.5209   -3.4037    1.6443 H   0  0  0  0  0  0  0  0  0  0  0  0
   -6.4519   -3.1446   -1.9673 H   0  0  0  0  0  0  0  0  0  0  0  0
   -7.8011   -1.3905   -2.9104 H   0  0  0  0  0  0  0  0  0  0  0  0
   -6.4000    1.3710    0.0849 H   0  0  0  0  0  0  0  0  0  0  0  0
   -2.5104    0.6135    0.7539 H   0  0  0  0  0  0  0  0  0  0  0  0
    0.1000    0.7756    2.3743 H   0  0  0  0  0  0  0  0  0  0  0  0
    0.7856    2.2760    0.6075 H   0  0  0  0  0  0  0  0  0  0  0  0
   -0.7407    1.9053   -0.3032 H   0  0  0  0  0  0  0  0  0  0  0  0
    2.2671    0.2416    0.8830 H   0  0  0  0  0  0  0  0  0  0  0  0
    2.1452   -1.0172   -1.9044 H   0  0  0  0  0  0  0  0  0  0  0  0
    2.2455   -1.9165   -0.3335 H   0  0  0  0  0  0  0  0  0  0  0  0
    4.3671   -0.6464   -2.0793 H   0  0  0  0  0  0  0  0  0  0  0  0
    4.5042   -1.9287   -0.7858 H   0  0  0  0  0  0  0  0  0  0  0  0
    4.2610   -1.3193    1.2174 H   0  0  0  0  0  0  0  0  0  0  0  0
    6.3168    1.3745   -1.9632 H   0  0  0  0  0  0  0  0  0  0  0  0
    8.7264    1.0754   -2.2273 H   0  0  0  0  0  0  0  0  0  0  0  0
    9.9996   -0.4876   -0.7904 H   0  0  0  0  0  0  0  0  0  0  0  0
    8.8143   -1.7523    0.9274 H   0  0  0  0  0  0  0  0  0  0  0  0
    6.4119   -1.4720    1.2159 H   0  0  0  0  0  0  0  0  0  0  0  0
    4.0226    1.9083    0.7170 H   0  0  0  0  0  0  0  0  0  0  0  0
    4.7660    2.1290   -0.9258 H   0  0  0  0  0  0  0  0  0  0  0  0
    2.2293    2.3492   -0.8092 H   0  0  0  0  0  0  0  0  0  0  0  0
    2.8082    1.1161   -1.9950 H   0  0  0  0  0  0  0  0  0  0  0  0
   -0.9248   -1.0030    0.0581 H   0  0  0  0  0  0  0  0  0  0  0  0
    0.5584   -1.3139    1.0499 H   0  0  0  0  0  0  0  0  0  0  0  0
  1  2  2  0
  2  3  1  0
  3  4  1  0
  4  5  1  0
  5  6  2  0
  6  7  1  0
  7  8  2  0
  8  9  1  0
  9 10  2  0
 10 11  1  0
 11 12  2  0
 12 13  1  0
 13 14  1  0
 13 15  1  0
 13 16  1  0
 12 17  1  0
 17 18  2  0
  2 19  1  0
 19 20  1  0
 20 21  1  0
 21 22  1  0
 22 23  1  0
 23 24  1  0
 24 25  1  0
 25 26  1  0
 26 27  1  1
 26 28  1  0
 28 29  2  0
 29 30  1  0
 30 31  2  0
 31 32  1  0
 32 33  2  0
 26 34  1  0
 34 35  1  0
 22 36  1  0
 18  5  1  0
 36 20  1  0
 18  9  1  0
 35 23  1  0
 33 28  1  0
  3 37  1  0
  3 38  1  0
  4 39  1  0
  7 40  1  0
 10 41  1  0
 11 42  1  0
 17 43  1  0
 19 44  1  0
 20 45  1  0
 21 46  1  0
 21 47  1  0
 23 48  1  1
 24 49  1  0
 24 50  1  0
 25 51  1  0
 25 52  1  0
 27 53  1  0
 29 54  1  0
 30 55  1  0
 31 56  1  0
 32 57  1  0
 33 58  1  0
 34 59  1  0
 34 60  1  0
 35 61  1  0
 35 62  1  0
 36 63  1  0
 36 64  1  0
M  END
$$$$
