
     RDKit          3D

 69 74  0  0  0  0  0  0  0  0999 V2000
    1.4264   -6.0460   -2.7948 C   0  0  0  0  0  0  0  0  0  0  0  0
    0.4203   -5.0273   -2.3055 C   0  0  0  0  0  0  0  0  0  0  0  0
    0.8849   -3.6118   -2.6698 C   0  0  0  0  0  0  0  0  0  0  0  0
   -0.1386   -2.6678   -2.1653 C   0  0  0  0  0  0  0  0  0  0  0  0
   -1.2098   -2.2741   -2.9180 N   0  0  0  0  0  0  0  0  0  0  0  0
   -1.9609   -1.4270   -2.1884 C   0  0  0  0  0  0  0  0  0  0  0  0
   -1.3163   -1.3177   -0.9733 C   0  0  0  0  0  0  0  0  0  0  0  0
   -1.9583   -0.4812   -0.0905 C   0  0  0  0  0  0  0  0  0  0  0  0
   -3.1289    0.1941   -0.3648 C   0  0  0  0  0  0  0  0  0  0  0  0
   -3.7176    0.0372   -1.6021 C   0  0  0  0  0  0  0  0  0  0  0  0
   -3.1294   -0.7873   -2.5382 C   0  0  0  0  0  0  0  0  0  0  0  0
   -3.7541   -0.9684   -3.8837 C   0  0  0  0  0  0  0  0  0  0  0  0
   -3.7548    1.0726    0.6335 C   0  0  0  0  0  0  0  0  0  0  0  0
   -3.1799    2.2719    0.7533 N   0  0  0  0  0  0  0  0  0  0  0  0
   -3.8176    3.0041    1.6863 C   0  0  0  0  0  0  0  0  0  0  0  0
   -3.7043    4.2679    2.2412 C   0  0  0  0  0  0  0  0  0  0  0  0
   -4.5912    4.6585    3.2147 C   0  0  0  0  0  0  0  0  0  0  0  0
   -5.5920    3.8039    3.6431 C   0  0  0  0  0  0  0  0  0  0  0  0
   -5.7399    2.5442    3.1204 C   0  0  0  0  0  0  0  0  0  0  0  0
   -4.8308    2.1875    2.1455 C   0  0  0  0  0  0  0  0  0  0  0  0
   -4.7814    0.9948    1.4860 N   0  0  0  0  0  0  0  0  0  0  0  0
   -5.5624   -0.2079    1.5433 C   0  0  0  0  0  0  0  0  0  0  0  0
   -0.1868   -2.0779   -0.9407 N   0  0  0  0  0  0  0  0  0  0  0  0
    0.6997   -2.1817    0.1697 C   0  0  0  0  0  0  0  0  0  0  0  0
    1.8001   -1.2156    0.2181 C   0  0  0  0  0  0  0  0  0  0  0  0
    3.0799   -1.4080   -0.2544 C   0  0  0  0  0  0  0  0  0  0  0  0
    4.0962   -0.4800   -0.1994 C   0  0  0  0  0  0  0  0  0  0  0  0
    3.8567    0.7726    0.3734 C   0  0  0  0  0  0  0  0  0  0  0  0
    2.5899    1.0066    0.8582 C   0  0  0  0  0  0  0  0  0  0  0  0
    1.6140    0.0354    0.7737 C   0  0  0  0  0  0  0  0  0  0  0  0
    5.0042    1.6674    0.3601 C   0  0  0  0  0  0  0  0  0  0  0  0
    5.6464    1.8515   -0.8475 C   0  0  0  0  0  0  0  0  0  0  0  0
    6.7122    2.7178   -0.8241 C   0  0  0  0  0  0  0  0  0  0  0  0
    7.1652    3.3937    0.2996 C   0  0  0  0  0  0  0  0  0  0  0  0
    6.5133    3.1982    1.4959 C   0  0  0  0  0  0  0  0  0  0  0  0
    5.4445    2.3317    1.4819 C   0  0  0  0  0  0  0  0  0  0  0  0
    4.8198    2.1548    2.7775 C   0  0  0  0  0  0  0  0  0  0  0  0
    3.8629    1.5609    3.5659 O   0  0  0  0  0  0  0  0  0  0  0  0
    5.1538    2.7232    3.8487 O   0  0  0  0  0  0  0  0  0  0  0  0
    2.4025   -5.8968   -2.3205 H   0  0  0  0  0  0  0  0  0  0  0  0
    1.4658   -6.0240   -3.9005 H   0  0  0  0  0  0  0  0  0  0  0  0
    1.0209   -7.0431   -2.5242 H   0  0  0  0  0  0  0  0  0  0  0  0
    0.3401   -5.0721   -1.2004 H   0  0  0  0  0  0  0  0  0  0  0  0
   -0.5798   -5.2368   -2.7159 H   0  0  0  0  0  0  0  0  0  0  0  0
    1.8288   -3.4374   -2.1630 H   0  0  0  0  0  0  0  0  0  0  0  0
    0.9552   -3.4984   -3.7696 H   0  0  0  0  0  0  0  0  0  0  0  0
   -1.5541   -0.3177    0.8975 H   0  0  0  0  0  0  0  0  0  0  0  0
   -4.6370    0.5368   -1.8859 H   0  0  0  0  0  0  0  0  0  0  0  0
   -3.0084   -1.2500   -4.6572 H   0  0  0  0  0  0  0  0  0  0  0  0
   -4.2013   -0.0135   -4.2132 H   0  0  0  0  0  0  0  0  0  0  0  0
   -4.4839   -1.7872   -3.8443 H   0  0  0  0  0  0  0  0  0  0  0  0
   -2.8908    4.8483    1.8337 H   0  0  0  0  0  0  0  0  0  0  0  0
   -4.4307    5.6560    3.5906 H   0  0  0  0  0  0  0  0  0  0  0  0
   -6.2679    4.1672    4.4187 H   0  0  0  0  0  0  0  0  0  0  0  0
   -6.5264    1.8752    3.4587 H   0  0  0  0  0  0  0  0  0  0  0  0
   -4.8843   -1.0777    1.5873 H   0  0  0  0  0  0  0  0  0  0  0  0
   -6.1872   -0.2120    2.4706 H   0  0  0  0  0  0  0  0  0  0  0  0
   -6.2059   -0.2318    0.6253 H   0  0  0  0  0  0  0  0  0  0  0  0
    0.1473   -2.1054    1.1505 H   0  0  0  0  0  0  0  0  0  0  0  0
    1.0681   -3.2420    0.1731 H   0  0  0  0  0  0  0  0  0  0  0  0
    3.3201   -2.3609   -0.7009 H   0  0  0  0  0  0  0  0  0  0  0  0
    5.0831   -0.7457   -0.6105 H   0  0  0  0  0  0  0  0  0  0  0  0
    2.4513    1.9879    1.2826 H   0  0  0  0  0  0  0  0  0  0  0  0
    0.6897    0.3740    1.1969 H   0  0  0  0  0  0  0  0  0  0  0  0
    5.3376    1.3518   -1.7538 H   0  0  0  0  0  0  0  0  0  0  0  0
    7.2416    2.8891   -1.7499 H   0  0  0  0  0  0  0  0  0  0  0  0
    8.0145    4.0540    0.2094 H   0  0  0  0  0  0  0  0  0  0  0  0
    6.8661    3.7229    2.3624 H   0  0  0  0  0  0  0  0  0  0  0  0
    2.8895    1.8186    3.6233 H   0  0  0  0  0  0  0  0  0  0  0  0
  1  2  1  0
  2  3  1  0
  3  4  1  0
  4  5  2  0
  5  6  1  0
  6  7  2  0
  7  8  1  0
  8  9  2  0
  9 10  1  0
 10 11  2  0
 11 12  1  0
  9 13  1  0
 13 14  2  0
 14 15  1  0
 15 16  2  0
 16 17  1  0
 17 18  2  0
 18 19  1  0
 19 20  2  0
 20 21  1  0
 21 22  1  0
  7 23  1  0
 23 24  1  0
 24 25  1  0
 25 26  2  0
 26 27  1  0
 27 28  2  0
 28 29  1  0
 29 30  2  0
 28 31  1  0
 31 32  2  0
 32 33  1  0
 33 34  2  0
 34 35  1  0
 35 36  2  0
 36 37  1  0
 37 38  1  0
 37 39  2  0
 23  4  1  0
 30 25  1  0
 36 31  1  0
 11  6  1  0
 21 13  1  0
 20 15  1  0
  1 40  1  0
  1 41  1  0
  1 42  1  0
  2 43  1  0
  2 44  1  0
  3 45  1  0
  3 46  1  0
  8 47  1  0
 10 48  1  0
 12 49  1  0
 12 50  1  0
 12 51  1  0
 16 52  1  0
 17 53  1  0
 18 54  1  0
 19 55  1  0
 22 56  1  0
 22 57  1  0
 22 58  1  0
 24 59  1  0
 24 60  1  0
 26 61  1  0
 27 62  1  0
 29 63  1  0
 30 64  1  0
 32 65  1  0
 33 66  1  0
 34 67  1  0
 35 68  1  0
 38 69  1  0
M  END
$$$$
