@<TRIPOS>MOLECULE
*****
 69 74 0 0 0
SMALL
GASTEIGER

@<TRIPOS>ATOM
      1 C           1.4264   -6.0460   -2.7948 C.3     1  UNL1       -0.0649
      2 C           0.4203   -5.0273   -2.3055 C.3     1  UNL1       -0.0491
      3 C           0.8849   -3.6118   -2.6698 C.3     1  UNL1        0.0054
      4 C          -0.1386   -2.6678   -2.1653 C.ar    1  UNL1        0.1111
      5 N          -1.2098   -2.2741   -2.9180 N.ar    1  UNL1       -0.2320
      6 C          -1.9609   -1.4270   -2.1884 C.ar    1  UNL1        0.0922
      7 C          -1.3163   -1.3177   -0.9733 C.ar    1  UNL1        0.0700
      8 C          -1.9583   -0.4812   -0.0905 C.ar    1  UNL1       -0.0254
      9 C          -3.1289    0.1941   -0.3648 C.ar    1  UNL1        0.0198
     10 C          -3.7176    0.0372   -1.6021 C.ar    1  UNL1       -0.0460
     11 C          -3.1294   -0.7873   -2.5382 C.ar    1  UNL1       -0.0223
     12 C          -3.7541   -0.9684   -3.8837 C.3     1  UNL1       -0.0376
     13 C          -3.7548    1.0726    0.6335 C.ar    1  UNL1        0.1417
     14 N          -3.1799    2.2719    0.7533 N.ar    1  UNL1       -0.2275
     15 C          -3.8176    3.0041    1.6863 C.ar    1  UNL1        0.0896
     16 C          -3.7043    4.2679    2.2412 C.ar    1  UNL1       -0.0342
     17 C          -4.5912    4.6585    3.2147 C.ar    1  UNL1       -0.0596
     18 C          -5.5920    3.8039    3.6431 C.ar    1  UNL1       -0.0597
     19 C          -5.7399    2.5442    3.1204 C.ar    1  UNL1       -0.0361
     20 C          -4.8308    2.1875    2.1455 C.ar    1  UNL1        0.0688
     21 N          -4.7814    0.9948    1.4860 N.ar    1  UNL1       -0.3267
     22 C          -5.5624   -0.2079    1.5433 C.3     1  UNL1        0.0138
     23 N          -0.1868   -2.0779   -0.9407 N.ar    1  UNL1       -0.3231
     24 C           0.6997   -2.1817    0.1697 C.3     1  UNL1        0.0500
     25 C           1.8001   -1.2156    0.2181 C.ar    1  UNL1       -0.0277
     26 C           3.0799   -1.4080   -0.2544 C.ar    1  UNL1       -0.0563
     27 C           4.0962   -0.4800   -0.1994 C.ar    1  UNL1       -0.0537
     28 C           3.8567    0.7726    0.3734 C.ar    1  UNL1       -0.0171
     29 C           2.5899    1.0066    0.8582 C.ar    1  UNL1       -0.0537
     30 C           1.6140    0.0354    0.7737 C.ar    1  UNL1       -0.0563
     31 C           5.0042    1.6674    0.3601 C.ar    1  UNL1       -0.0039
     32 C           5.6464    1.8515   -0.8475 C.ar    1  UNL1       -0.0532
     33 C           6.7122    2.7178   -0.8241 C.ar    1  UNL1       -0.0611
     34 C           7.1652    3.3937    0.2996 C.ar    1  UNL1       -0.0609
     35 C           6.5133    3.1982    1.4959 C.ar    1  UNL1       -0.0472
     36 C           5.4445    2.3317    1.4819 C.ar    1  UNL1        0.0665
     37 C           4.8198    2.1548    2.7775 C.2     1  UNL1        0.3374
     38 O           3.8629    1.5609    3.5659 O.3     1  UNL1       -0.4771
     39 O           5.1538    2.7232    3.8487 O.2     1  UNL1       -0.2451
     40 H           2.4025   -5.8968   -2.3205 H       1  UNL1        0.0230
     41 H           1.4658   -6.0240   -3.9005 H       1  UNL1        0.0230
     42 H           1.0209   -7.0431   -2.5242 H       1  UNL1        0.0230
     43 H           0.3401   -5.0721   -1.2004 H       1  UNL1        0.0267
     44 H          -0.5798   -5.2368   -2.7159 H       1  UNL1        0.0267
     45 H           1.8288   -3.4374   -2.1630 H       1  UNL1        0.0343
     46 H           0.9552   -3.4984   -3.7696 H       1  UNL1        0.0343
     47 H          -1.5541   -0.3177    0.8975 H       1  UNL1        0.0646
     48 H          -4.6370    0.5368   -1.8859 H       1  UNL1        0.0628
     49 H          -3.0084   -1.2500   -4.6572 H       1  UNL1        0.0278
     50 H          -4.2013   -0.0135   -4.2132 H       1  UNL1        0.0278
     51 H          -4.4839   -1.7872   -3.8443 H       1  UNL1        0.0278
     52 H          -2.8908    4.8483    1.8337 H       1  UNL1        0.0639
     53 H          -4.4307    5.6560    3.5906 H       1  UNL1        0.0618
     54 H          -6.2679    4.1672    4.4187 H       1  UNL1        0.0618
     55 H          -6.5264    1.8752    3.4587 H       1  UNL1        0.0639
     56 H          -4.8843   -1.0777    1.5873 H       1  UNL1        0.0456
     57 H          -6.1872   -0.2120    2.4706 H       1  UNL1        0.0456
     58 H          -6.2059   -0.2318    0.6253 H       1  UNL1        0.0456
     59 H           0.1473   -2.1054    1.1505 H       1  UNL1        0.0542
     60 H           1.0681   -3.2420    0.1731 H       1  UNL1        0.0542
     61 H           3.3201   -2.3609   -0.7009 H       1  UNL1        0.0621
     62 H           5.0831   -0.7457   -0.6105 H       1  UNL1        0.0624
     63 H           2.4513    1.9879    1.2826 H       1  UNL1        0.0624
     64 H           0.6897    0.3740    1.1969 H       1  UNL1        0.0621
     65 H           5.3376    1.3518   -1.7538 H       1  UNL1        0.0624
     66 H           7.2416    2.8891   -1.7499 H       1  UNL1        0.0618
     67 H           8.0145    4.0540    0.2094 H       1  UNL1        0.0618
     68 H           6.8661    3.7229    2.3624 H       1  UNL1        0.0626
     69 H           2.8895    1.8186    3.6233 H       1  UNL1        0.2954
@<TRIPOS>BOND
     1     1     2    1
     2     2     3    1
     3     3     4    1
     4     4     5   ar
     5     5     6   ar
     6     6     7   ar
     7     7     8   ar
     8     8     9   ar
     9     9    10   ar
    10    10    11   ar
    11    11    12    1
    12     9    13    1
    13    13    14   ar
    14    14    15   ar
    15    15    16   ar
    16    16    17   ar
    17    17    18   ar
    18    18    19   ar
    19    19    20   ar
    20    20    21   ar
    21    21    22    1
    22     7    23   ar
    23    23    24    1
    24    24    25    1
    25    25    26   ar
    26    26    27   ar
    27    27    28   ar
    28    28    29   ar
    29    29    30   ar
    30    28    31    1
    31    31    32   ar
    32    32    33   ar
    33    33    34   ar
    34    34    35   ar
    35    35    36   ar
    36    36    37    1
    37    37    38    1
    38    37    39    2
    39    23     4   ar
    40    30    25   ar
    41    36    31   ar
    42    11     6   ar
    43    21    13   ar
    44    20    15   ar
    45     1    40    1
    46     1    41    1
    47     1    42    1
    48     2    43    1
    49     2    44    1
    50     3    45    1
    51     3    46    1
    52     8    47    1
    53    10    48    1
    54    12    49    1
    55    12    50    1
    56    12    51    1
    57    16    52    1
    58    17    53    1
    59    18    54    1
    60    19    55    1
    61    22    56    1
    62    22    57    1
    63    22    58    1
    64    24    59    1
    65    24    60    1
    66    26    61    1
    67    27    62    1
    68    29    63    1
    69    30    64    1
    70    32    65    1
    71    33    66    1
    72    34    67    1
    73    35    68    1
    74    38    69    1
