@<TRIPOS>MOLECULE
*****
 53 58 0 0 0
SMALL
GASTEIGER

@<TRIPOS>ATOM
      1 C           4.2185   -1.9538   -2.4599 C.3     1  UNL1       -0.0361
      2 C           3.5127   -1.0937   -1.4738 C.ar    1  UNL1       -0.0041
      3 C           2.1601   -1.3051   -1.2168 C.ar    1  UNL1       -0.0324
      4 C           1.5271   -0.5028   -0.3054 C.ar    1  UNL1        0.0545
      5 N           0.1414   -0.6817    0.0187 N.am    1  UNL1       -0.2531
      6 C          -0.7316   -1.7129   -0.4048 C.2     1  UNL1        0.2700
      7 O          -0.4194   -2.6248   -1.1802 O.2     1  UNL1       -0.2679
      8 C          -2.0630   -1.5511    0.2048 C.ar    1  UNL1        0.1297
      9 C          -1.9528   -0.4242    0.9732 C.ar    1  UNL1        0.0330
     10 C          -3.1925   -0.2728    1.5772 C.ar    1  UNL1        0.0943
     11 C          -3.5569    0.8381    2.5265 C.3     1  UNL1        0.0883
     12 O          -2.9593    0.5352    3.7513 O.3     1  UNL1       -0.3888
     13 N          -3.9396   -1.2792    1.1476 N.ar    1  UNL1       -0.1726
     14 N          -3.2982   -2.0808    0.3132 N.ar    1  UNL1       -0.2555
     15 C          -3.8440   -3.2454   -0.3123 C.3     1  UNL1        0.0537
     16 C          -3.0356   -4.4925   -0.5246 C.3     1  UNL1       -0.0285
     17 C          -3.4814   -3.7051   -1.6575 C.3     1  UNL1       -0.0285
     18 C          -0.6199    0.2115    0.8622 C.3     1  UNL1        0.0855
     19 C          -0.7134    1.5334    0.2014 C.ar    1  UNL1       -0.0221
     20 C          -0.6083    2.6715    0.9631 C.ar    1  UNL1       -0.0551
     21 C          -0.6874    3.9349    0.4152 C.ar    1  UNL1       -0.0431
     22 C          -0.8780    4.0681   -0.9390 C.ar    1  UNL1        0.0410
     23 CL         -0.9785    5.6472   -1.6329 Cl      1  UNL1       -0.0835
     24 C          -0.9884    2.9285   -1.7377 C.ar    1  UNL1       -0.0431
     25 C          -0.9041    1.6715   -1.1534 C.ar    1  UNL1       -0.0551
     26 C           2.2460    0.4897    0.3310 C.ar    1  UNL1        0.0344
     27 N           3.5287    0.6980    0.0939 N.ar    1  UNL1       -0.2846
     28 C           4.3836    1.6029    0.6088 C.ar    1  UNL1        0.1347
     29 C           4.1321    2.6529    1.6135 C.3     1  UNL1       -0.0041
     30 N           5.5687    1.3767    0.0222 N.ar    1  UNL1       -0.1340
     31 N           5.4331    0.3568   -0.8290 N.ar    1  UNL1       -0.1292
     32 C           4.1424   -0.0827   -0.7925 C.ar    1  UNL1        0.1641
     33 H           4.8396   -1.3291   -3.1118 H       1  UNL1        0.0279
     34 H           4.8520   -2.6498   -1.8539 H       1  UNL1        0.0279
     35 H           3.4817   -2.5779   -2.9921 H       1  UNL1        0.0279
     36 H           1.6585   -2.1026   -1.7565 H       1  UNL1        0.0640
     37 H          -3.2792    1.8254    2.1348 H       1  UNL1        0.0623
     38 H          -4.6592    0.7774    2.7108 H       1  UNL1        0.0623
     39 H          -2.0999    1.0322    3.7871 H       1  UNL1        0.2099
     40 H          -4.9149   -3.4739   -0.0291 H       1  UNL1        0.0545
     41 H          -3.5287   -5.4994   -0.3654 H       1  UNL1        0.0286
     42 H          -2.0600   -4.4754   -0.0344 H       1  UNL1        0.0286
     43 H          -4.2756   -4.1785   -2.3144 H       1  UNL1        0.0286
     44 H          -2.8886   -3.0126   -2.2653 H       1  UNL1        0.0286
     45 H          -0.0957    0.2938    1.8165 H       1  UNL1        0.0606
     46 H          -0.4579    2.6152    2.0319 H       1  UNL1        0.0621
     47 H          -0.6032    4.8153    1.0258 H       1  UNL1        0.0632
     48 H          -1.1374    3.0639   -2.7965 H       1  UNL1        0.0632
     49 H          -0.9949    0.8187   -1.8075 H       1  UNL1        0.0621
     50 H           1.7375    1.1096    1.0553 H       1  UNL1        0.0833
     51 H           4.6268    3.6013    1.3235 H       1  UNL1        0.0308
     52 H           3.0549    2.7713    1.8385 H       1  UNL1        0.0308
     53 H           4.6021    2.3671    2.5988 H       1  UNL1        0.0308
@<TRIPOS>BOND
     1     1     2    1
     2     2     3   ar
     3     3     4   ar
     4     4     5    1
     5     5     6   am
     6     6     7    2
     7     6     8    1
     8     8     9   ar
     9     9    10   ar
    10    10    11    1
    11    11    12    1
    12    10    13   ar
    13    13    14   ar
    14    14    15    1
    15    15    16    1
    16    16    17    1
    17     9    18    1
    18    18    19    1
    19    19    20   ar
    20    20    21   ar
    21    21    22   ar
    22    22    23    1
    23    22    24   ar
    24    24    25   ar
    25     4    26   ar
    26    26    27   ar
    27    27    28   ar
    28    28    29    1
    29    28    30   ar
    30    30    31   ar
    31    31    32   ar
    32    32     2   ar
    33    18     5    1
    34    25    19   ar
    35    32    27   ar
    36    14     8   ar
    37    17    15    1
    38     1    33    1
    39     1    34    1
    40     1    35    1
    41     3    36    1
    42    11    37    1
    43    11    38    1
    44    12    39    1
    45    15    40    1
    46    16    41    1
    47    16    42    1
    48    17    43    1
    49    17    44    1
    50    18    45    1
    51    20    46    1
    52    21    47    1
    53    24    48    1
    54    25    49    1
    55    26    50    1
    56    29    51    1
    57    29    52    1
    58    29    53    1
