@<TRIPOS>MOLECULE
*****
 27 28 0 0 0
SMALL
GASTEIGER

@<TRIPOS>ATOM
      1 C           1.5192   -0.5222    0.7630 C.3     1  UNL1        0.1813
      2 O           1.7410   -1.7835    0.2546 O.3     1  UNL1       -0.3754
      3 C           0.3233    0.1660    0.2553 C.ar    1  UNL1        0.0002
      4 C           0.4343    1.4967   -0.1689 C.ar    1  UNL1       -0.0549
      5 C          -0.6066    2.2407   -0.6773 C.ar    1  UNL1       -0.0608
      6 C          -1.8540    1.6641   -0.7882 C.ar    1  UNL1       -0.0540
      7 C          -2.0198    0.3625   -0.3868 C.ar    1  UNL1       -0.0175
      8 C          -3.2509   -0.2499   -0.4756 C.ar    1  UNL1       -0.0540
      9 C          -3.4552   -1.5591   -0.0746 C.ar    1  UNL1       -0.0612
     10 C          -2.3640   -2.2540    0.4303 C.ar    1  UNL1       -0.0612
     11 C          -1.1538   -1.6314    0.5104 C.ar    1  UNL1       -0.0537
     12 C          -0.9436   -0.3337    0.1141 C.ar    1  UNL1       -0.0117
     13 P           3.0053    0.4498    0.3111 P.3     1  UNL1        0.3603
     14 O           2.9547    0.8035   -1.3238 O.3     1  UNL1       -0.3221
     15 O           3.2147    1.7864    1.2972 O.3     1  UNL1       -0.3221
     16 O           4.1877   -0.4896    0.5491 O.2     1  UNL1       -0.2558
     17 H           1.5294   -0.5234    1.8889 H       1  UNL1        0.0772
     18 H           2.5606   -1.9101   -0.2518 H       1  UNL1        0.2110
     19 H           1.3736    2.0288   -0.1183 H       1  UNL1        0.0621
     20 H          -0.4856    3.2633   -0.9946 H       1  UNL1        0.0618
     21 H          -2.7237    2.1676   -1.1732 H       1  UNL1        0.0624
     22 H          -4.1206    0.2839   -0.8711 H       1  UNL1        0.0624
     23 H          -4.4382   -1.9904   -0.1655 H       1  UNL1        0.0618
     24 H          -2.5367   -3.2828    0.7428 H       1  UNL1        0.0618
     25 H          -0.3685   -2.2253    0.9134 H       1  UNL1        0.0624
     26 H           3.3000    0.0228   -1.8216 H       1  UNL1        0.2198
     27 H           4.1772    2.0192    1.2610 H       1  UNL1        0.2198
@<TRIPOS>BOND
     1     1     2    1
     2     1     3    1
     3     3     4   ar
     4     4     5   ar
     5     5     6   ar
     6     6     7   ar
     7     7     8   ar
     8     8     9   ar
     9     9    10   ar
    10    10    11   ar
    11    11    12   ar
    12     1    13    1
    13    13    14    1
    14    13    15    1
    15    13    16    2
    16    12     3   ar
    17    12     7   ar
    18     1    17    1
    19     2    18    1
    20     4    19    1
    21     5    20    1
    22     6    21    1
    23     8    22    1
    24     9    23    1
    25    10    24    1
    26    11    25    1
    27    14    26    1
    28    15    27    1
