
     RDKit          3D

 27 28  0  0  0  0  0  0  0  0999 V2000
    1.5192   -0.5222    0.7630 C   0  0  2  0  0  0  0  0  0  0  0  0
    1.7410   -1.7835    0.2546 O   0  0  0  0  0  0  0  0  0  0  0  0
    0.3233    0.1660    0.2553 C   0  0  0  0  0  0  0  0  0  0  0  0
    0.4343    1.4967   -0.1689 C   0  0  0  0  0  0  0  0  0  0  0  0
   -0.6066    2.2407   -0.6773 C   0  0  0  0  0  0  0  0  0  0  0  0
   -1.8540    1.6641   -0.7882 C   0  0  0  0  0  0  0  0  0  0  0  0
   -2.0198    0.3625   -0.3868 C   0  0  0  0  0  0  0  0  0  0  0  0
   -3.2509   -0.2499   -0.4756 C   0  0  0  0  0  0  0  0  0  0  0  0
   -3.4552   -1.5591   -0.0746 C   0  0  0  0  0  0  0  0  0  0  0  0
   -2.3640   -2.2540    0.4303 C   0  0  0  0  0  0  0  0  0  0  0  0
   -1.1538   -1.6314    0.5104 C   0  0  0  0  0  0  0  0  0  0  0  0
   -0.9436   -0.3337    0.1141 C   0  0  0  0  0  0  0  0  0  0  0  0
    3.0053    0.4498    0.3111 P   0  0  0  0  0  0  0  0  0  0  0  0
    2.9547    0.8035   -1.3238 O   0  0  0  0  0  0  0  0  0  0  0  0
    3.2147    1.7864    1.2972 O   0  0  0  0  0  0  0  0  0  0  0  0
    4.1877   -0.4896    0.5491 O   0  0  0  0  0  0  0  0  0  0  0  0
    1.5294   -0.5234    1.8889 H   0  0  0  0  0  0  0  0  0  0  0  0
    2.5606   -1.9101   -0.2518 H   0  0  0  0  0  0  0  0  0  0  0  0
    1.3736    2.0288   -0.1183 H   0  0  0  0  0  0  0  0  0  0  0  0
   -0.4856    3.2633   -0.9946 H   0  0  0  0  0  0  0  0  0  0  0  0
   -2.7237    2.1676   -1.1732 H   0  0  0  0  0  0  0  0  0  0  0  0
   -4.1206    0.2839   -0.8711 H   0  0  0  0  0  0  0  0  0  0  0  0
   -4.4382   -1.9904   -0.1655 H   0  0  0  0  0  0  0  0  0  0  0  0
   -2.5367   -3.2828    0.7428 H   0  0  0  0  0  0  0  0  0  0  0  0
   -0.3685   -2.2253    0.9134 H   0  0  0  0  0  0  0  0  0  0  0  0
    3.3000    0.0228   -1.8216 H   0  0  0  0  0  0  0  0  0  0  0  0
    4.1772    2.0192    1.2610 H   0  0  0  0  0  0  0  0  0  0  0  0
  1  2  1  0
  1  3  1  0
  3  4  2  0
  4  5  1  0
  5  6  2  0
  6  7  1  0
  7  8  2  0
  8  9  1  0
  9 10  2  0
 10 11  1  0
 11 12  2  0
  1 13  1  0
 13 14  1  0
 13 15  1  0
 13 16  2  0
 12  3  1  0
 12  7  1  0
  1 17  1  1
  2 18  1  0
  4 19  1  0
  5 20  1  0
  6 21  1  0
  8 22  1  0
  9 23  1  0
 10 24  1  0
 11 25  1  0
 14 26  1  0
 15 27  1  0
M  END
$$$$
