@<TRIPOS>MOLECULE
*****
 58 64 0 0 0
SMALL
GASTEIGER

@<TRIPOS>ATOM
      1 C          -3.9708    0.6478   -4.0795 C.3     1  UNL1       -0.0360
      2 C          -3.5816    0.3111   -2.6918 C.ar    1  UNL1       -0.0012
      3 C          -2.2506    0.0803   -2.3357 C.ar    1  UNL1       -0.0131
      4 C          -1.9006   -0.2312   -1.0462 C.ar    1  UNL1        0.1499
      5 N          -0.5518   -0.4757   -0.6347 N.am    1  UNL1       -0.2373
      6 C          -0.0186   -1.7876   -0.6790 C.2     1  UNL1        0.2564
      7 O          -0.5910   -2.8501   -1.0633 O.2     1  UNL1       -0.2694
      8 C           1.3498   -1.7209   -0.1911 C.ar    1  UNL1        0.0840
      9 C           2.5082   -2.4470    0.0981 C.ar    1  UNL1        0.0790
     10 C           2.6522   -3.9022   -0.1266 C.3     1  UNL1        0.0039
     11 C           3.4715   -4.4982   -1.1788 C.3     1  UNL1       -0.0441
     12 C           2.0501   -4.3654   -1.4971 C.3     1  UNL1       -0.0441
     13 N           3.3892   -1.5632    0.5690 N.ar    1  UNL1       -0.1686
     14 N           2.9138   -0.3514    0.6091 N.ar    1  UNL1       -0.2158
     15 C           3.5099    0.8655    1.0354 C.ar    1  UNL1        0.1525
     16 C           3.4095    1.3866    2.3074 C.ar    1  UNL1        0.0020
     17 C           4.1173    2.5797    2.3477 C.ar    1  UNL1        0.0515
     18 N           4.6197    2.7530    1.1295 N.ar    1  UNL1       -0.1780
     19 N           4.2634    1.7442    0.3537 N.ar    1  UNL1       -0.2500
     20 C           4.6403    1.6143   -1.0416 C.3     1  UNL1        0.0324
     21 C           1.6268   -0.4266    0.1333 C.ar    1  UNL1        0.0842
     22 C           0.4368    0.3984   -0.1535 C.3     1  UNL1        0.1007
     23 C           0.0437    1.2400    0.9900 C.ar    1  UNL1       -0.0207
     24 C           0.3985    2.5715    0.9605 C.ar    1  UNL1       -0.0550
     25 C           0.0549    3.4074    2.0079 C.ar    1  UNL1       -0.0431
     26 C          -0.6462    2.8912    3.0798 C.ar    1  UNL1        0.0410
     27 CL         -1.0774    3.9570    4.4024 Cl      1  UNL1       -0.0835
     28 C          -0.9857    1.5534    3.0776 C.ar    1  UNL1       -0.0431
     29 C          -0.6577    0.7011    2.0517 C.ar    1  UNL1       -0.0550
     30 N          -2.8625   -0.3108   -0.1293 N.ar    1  UNL1       -0.1478
     31 N          -4.1351   -0.1006   -0.4199 N.ar    1  UNL1       -0.1953
     32 C          -5.2070   -0.1396    0.3657 C.ar    1  UNL1        0.1521
     33 C          -5.2525   -0.4385    1.8159 C.3     1  UNL1       -0.0027
     34 N          -6.2653    0.1469   -0.4085 N.ar    1  UNL1       -0.1325
     35 N          -5.8585    0.3590   -1.6471 N.ar    1  UNL1       -0.1277
     36 C          -4.5088    0.2069   -1.6769 C.ar    1  UNL1        0.1809
     37 H          -3.5943    1.6379   -4.4095 H       1  UNL1        0.0279
     38 H          -5.0486    0.5097   -4.2036 H       1  UNL1        0.0279
     39 H          -3.4792   -0.1183   -4.7354 H       1  UNL1        0.0279
     40 H          -1.5097    0.1586   -3.1231 H       1  UNL1        0.0656
     41 H           2.2758   -4.5012    0.7288 H       1  UNL1        0.0365
     42 H           3.8533   -5.5288   -0.9820 H       1  UNL1        0.0272
     43 H           4.1700   -3.8545   -1.7507 H       1  UNL1        0.0272
     44 H           1.7413   -3.5338   -2.1990 H       1  UNL1        0.0272
     45 H           1.3211   -5.1777   -1.4636 H       1  UNL1        0.0272
     46 H           2.8817    0.9680    3.1498 H       1  UNL1        0.0670
     47 H           4.2145    3.2113    3.2191 H       1  UNL1        0.0848
     48 H           3.8927    2.0725   -1.7040 H       1  UNL1        0.0473
     49 H           4.7032    0.5351   -1.2743 H       1  UNL1        0.0473
     50 H           5.6363    2.0439   -1.1919 H       1  UNL1        0.0473
     51 H           0.6748    1.1078   -1.0143 H       1  UNL1        0.0621
     52 H           0.9503    3.0167    0.1353 H       1  UNL1        0.0621
     53 H           0.3316    4.4432    1.9835 H       1  UNL1        0.0632
     54 H          -1.5267    1.1557    3.9051 H       1  UNL1        0.0632
     55 H          -0.9049   -0.3468    2.0146 H       1  UNL1        0.0621
     56 H          -5.3094    0.4823    2.4359 H       1  UNL1        0.0309
     57 H          -6.1007   -1.1215    2.0685 H       1  UNL1        0.0309
     58 H          -4.3073   -0.9661    2.0765 H       1  UNL1        0.0309
@<TRIPOS>BOND
     1     1     2    1
     2     2     3   ar
     3     3     4   ar
     4     4     5    1
     5     5     6   am
     6     6     7    2
     7     6     8    1
     8     8     9   ar
     9     9    10    1
    10    10    11    1
    11    11    12    1
    12     9    13   ar
    13    13    14   ar
    14    14    15    1
    15    15    16   ar
    16    16    17   ar
    17    17    18   ar
    18    18    19   ar
    19    19    20    1
    20    14    21   ar
    21    21    22    1
    22    22    23    1
    23    23    24   ar
    24    24    25   ar
    25    25    26   ar
    26    26    27    1
    27    26    28   ar
    28    28    29   ar
    29     4    30   ar
    30    30    31   ar
    31    31    32   ar
    32    32    33    1
    33    32    34   ar
    34    34    35   ar
    35    35    36   ar
    36    36     2   ar
    37    22     5    1
    38    29    23   ar
    39    36    31   ar
    40    21     8   ar
    41    12    10    1
    42    19    15   ar
    43     1    37    1
    44     1    38    1
    45     1    39    1
    46     3    40    1
    47    10    41    1
    48    11    42    1
    49    11    43    1
    50    12    44    1
    51    12    45    1
    52    16    46    1
    53    17    47    1
    54    20    48    1
    55    20    49    1
    56    20    50    1
    57    22    51    1
    58    24    52    1
    59    25    53    1
    60    28    54    1
    61    29    55    1
    62    33    56    1
    63    33    57    1
    64    33    58    1
