
     RDKit          3D

 45 46  0  0  0  0  0  0  0  0999 V2000
   -2.4829    2.2329    0.4308 C   0  0  0  0  0  0  0  0  0  0  0  0
   -2.6248    0.7584    0.7111 C   0  0  0  0  0  0  0  0  0  0  0  0
   -4.1637    0.5309    0.6108 C   0  0  0  0  0  0  0  0  0  0  0  0
   -1.9138   -0.1515   -0.2090 C   0  0  0  0  0  0  0  0  0  0  0  0
   -0.4791   -0.1164   -0.3931 C   0  0  0  0  0  0  0  0  0  0  0  0
    0.0265   -1.0997   -1.3645 N   0  0  0  0  0  0  0  0  0  0  0  0
   -0.4739   -0.7724   -2.6948 C   0  0  0  0  0  0  0  0  0  0  0  0
   -0.3260   -2.4583   -1.0502 C   0  0  0  0  0  0  0  0  0  0  0  0
    0.5003   -0.0649    0.6943 C   0  0  0  0  0  0  0  0  0  0  0  0
    0.4313   -1.2105    1.6864 C   0  0  0  0  0  0  0  0  0  0  0  0
    0.9658   -0.2308    2.7199 C   0  0  0  0  0  0  0  0  0  0  0  0
    0.5140    0.9090    1.7914 C   0  0  0  0  0  0  0  0  0  0  0  0
    1.9038   -0.0077    0.0511 C   0  0  0  0  0  0  0  0  0  0  0  0
    2.7686   -1.0364   -0.2446 C   0  0  0  0  0  0  0  0  0  0  0  0
    3.9756   -0.7359   -0.8322 C   0  0  0  0  0  0  0  0  0  0  0  0
    4.3682    0.5429   -1.1423 C   0  0  0  0  0  0  0  0  0  0  0  0
    5.9474    0.6921   -1.8865 Cl  0  0  0  0  0  0  0  0  0  0  0  0
    3.5081    1.5793   -0.8496 C   0  0  0  0  0  0  0  0  0  0  0  0
    2.2869    1.3015   -0.2577 C   0  0  0  0  0  0  0  0  0  0  0  0
   -2.8515    2.7627    1.3352 H   0  0  0  0  0  0  0  0  0  0  0  0
   -3.1527    2.5774   -0.3827 H   0  0  0  0  0  0  0  0  0  0  0  0
   -1.4341    2.5408    0.2896 H   0  0  0  0  0  0  0  0  0  0  0  0
   -2.4414    0.5935    1.7864 H   0  0  0  0  0  0  0  0  0  0  0  0
   -4.6324    1.3369    1.2165 H   0  0  0  0  0  0  0  0  0  0  0  0
   -4.4963    0.6694   -0.4246 H   0  0  0  0  0  0  0  0  0  0  0  0
   -4.3428   -0.4494    1.0502 H   0  0  0  0  0  0  0  0  0  0  0  0
   -2.3254   -1.1885    0.0435 H   0  0  0  0  0  0  0  0  0  0  0  0
   -2.4020    0.0211   -1.2305 H   0  0  0  0  0  0  0  0  0  0  0  0
   -0.2866    0.8608   -0.9940 H   0  0  0  0  0  0  0  0  0  0  0  0
    0.4028   -0.6412   -3.3840 H   0  0  0  0  0  0  0  0  0  0  0  0
   -1.0104    0.1880   -2.7139 H   0  0  0  0  0  0  0  0  0  0  0  0
   -1.0528   -1.6239   -3.1061 H   0  0  0  0  0  0  0  0  0  0  0  0
   -0.7583   -2.5811   -0.0679 H   0  0  0  0  0  0  0  0  0  0  0  0
   -0.9783   -2.8798   -1.8713 H   0  0  0  0  0  0  0  0  0  0  0  0
    0.5949   -3.0713   -1.1128 H   0  0  0  0  0  0  0  0  0  0  0  0
   -0.5988   -1.4794    2.0036 H   0  0  0  0  0  0  0  0  0  0  0  0
    1.0033   -2.1037    1.4874 H   0  0  0  0  0  0  0  0  0  0  0  0
    2.0345   -0.2922    2.9121 H   0  0  0  0  0  0  0  0  0  0  0  0
    0.3869   -0.1559    3.6612 H   0  0  0  0  0  0  0  0  0  0  0  0
   -0.3522    1.4484    2.1318 H   0  0  0  0  0  0  0  0  0  0  0  0
    1.3831    1.6496    1.8074 H   0  0  0  0  0  0  0  0  0  0  0  0
    2.3827   -2.0038    0.0324 H   0  0  0  0  0  0  0  0  0  0  0  0
    4.5840   -1.6242   -1.0238 H   0  0  0  0  0  0  0  0  0  0  0  0
    3.8771    2.5535   -1.1181 H   0  0  0  0  0  0  0  0  0  0  0  0
    1.7343    2.2300   -0.0989 H   0  0  0  0  0  0  0  0  0  0  0  0
  1  2  1  0
  2  3  1  0
  2  4  1  0
  4  5  1  0
  5  6  1  0
  6  7  1  0
  6  8  1  0
  5  9  1  0
  9 10  1  0
 10 11  1  0
 11 12  1  0
  9 13  1  0
 13 14  2  0
 14 15  1  0
 15 16  2  0
 16 17  1  0
 16 18  1  0
 18 19  2  0
 12  9  1  0
 19 13  1  0
  1 20  1  0
  1 21  1  0
  1 22  1  0
  2 23  1  0
  3 24  1  0
  3 25  1  0
  3 26  1  0
  4 27  1  0
  4 28  1  0
  5 29  1  0
  7 30  1  0
  7 31  1  0
  7 32  1  0
  8 33  1  0
  8 34  1  0
  8 35  1  0
 10 36  1  0
 10 37  1  0
 11 38  1  0
 11 39  1  0
 12 40  1  0
 12 41  1  0
 14 42  1  0
 15 43  1  0
 18 44  1  0
 19 45  1  0
M  END
$$$$
