@<TRIPOS>MOLECULE
*****
 45 46 0 0 0
SMALL
GASTEIGER

@<TRIPOS>ATOM
      1 C          -5.4063    2.3992   -1.6710 C.3     1  UNL1        0.0790
      2 O          -4.9214    1.2500   -1.0171 O.3     1  UNL1       -0.4913
      3 C          -3.6835    0.8785   -0.6812 C.ar    1  UNL1        0.1655
      4 C          -2.4894    1.4981   -0.9093 C.ar    1  UNL1       -0.0095
      5 C          -1.2440    0.9679   -0.4936 C.ar    1  UNL1       -0.0000
      6 C          -0.0616    1.7716   -0.8000 C.3     1  UNL1        0.1415
      7 O          -0.1330    2.9719   -0.0524 O.3     1  UNL1       -0.3751
      8 C           1.1886    1.0777   -0.6256 C.1     1  UNL1       -0.0607
      9 C           2.2544    0.4977   -0.4585 C.1     1  UNL1       -0.0582
     10 C           3.5086   -0.1834   -0.2366 C.ar    1  UNL1        0.0855
     11 C           4.6702    0.2044   -0.8667 C.ar    1  UNL1        0.0605
     12 C           4.6772    1.2662   -1.9035 C.3     1  UNL1       -0.0209
     13 N           5.8955   -0.3710   -0.5850 N.ar    1  UNL1       -0.2186
     14 C           5.9493   -1.3362    0.3348 C.ar    1  UNL1        0.2145
     15 N           7.2204   -1.9278    0.7090 N.pl3   1  UNL1       -0.3274
     16 N           4.8432   -1.7668    0.9845 N.ar    1  UNL1       -0.1989
     17 C           3.6507   -1.2089    0.7067 C.ar    1  UNL1        0.1370
     18 N           2.4661   -1.6404    1.3584 N.pl3   1  UNL1       -0.3420
     19 C          -1.2751   -0.2120    0.1612 C.ar    1  UNL1       -0.0095
     20 C          -2.4565   -0.9063    0.4339 C.ar    1  UNL1        0.1655
     21 O          -2.4362   -2.1063    1.1021 O.3     1  UNL1       -0.4913
     22 C          -1.3610   -2.8152    1.5910 C.3     1  UNL1        0.0790
     23 C          -3.6293   -0.3859    0.0291 C.ar    1  UNL1        0.2035
     24 O          -4.8322   -1.0183    0.2667 O.3     1  UNL1       -0.4885
     25 C          -5.6436   -0.8001    1.4129 C.3     1  UNL1        0.0791
     26 H          -4.8715    2.5987   -2.6046 H       1  UNL1        0.0660
     27 H          -5.3669    3.2506   -0.9409 H       1  UNL1        0.0660
     28 H          -6.5049    2.2757   -1.8927 H       1  UNL1        0.0660
     29 H          -2.5137    2.4308   -1.4395 H       1  UNL1        0.0659
     30 H          -0.1325    2.1570   -1.8749 H       1  UNL1        0.0783
     31 H           0.3085    2.7028    0.8230 H       1  UNL1        0.2115
     32 H           4.6597    2.2472   -1.3726 H       1  UNL1        0.0293
     33 H           5.5920    1.2406   -2.5093 H       1  UNL1        0.0293
     34 H           3.7574    1.1963   -2.5400 H       1  UNL1        0.0293
     35 H           7.9224   -1.2681    1.0750 H       1  UNL1        0.1452
     36 H           7.4038   -2.9473    0.6189 H       1  UNL1        0.1452
     37 H           1.9244   -2.5033    1.1204 H       1  UNL1        0.1437
     38 H           2.0914   -1.0593    2.1374 H       1  UNL1        0.1437
     39 H          -0.3399   -0.6448    0.4838 H       1  UNL1        0.0659
     40 H          -0.4457   -2.6164    0.9620 H       1  UNL1        0.0660
     41 H          -1.5531   -3.9121    1.4424 H       1  UNL1        0.0660
     42 H          -1.0984   -2.6752    2.6489 H       1  UNL1        0.0660
     43 H          -6.5836   -1.3272    1.2530 H       1  UNL1        0.0660
     44 H          -5.1187   -1.1449    2.2985 H       1  UNL1        0.0660
     45 H          -5.8817    0.2990    1.5215 H       1  UNL1        0.0660
@<TRIPOS>BOND
     1     1     2    1
     2     2     3    1
     3     3     4   ar
     4     4     5   ar
     5     5     6    1
     6     6     7    1
     7     6     8    1
     8     8     9    3
     9     9    10    1
    10    10    11   ar
    11    11    12    1
    12    11    13   ar
    13    13    14   ar
    14    14    15    1
    15    14    16   ar
    16    16    17   ar
    17    17    18    1
    18     5    19   ar
    19    19    20   ar
    20    20    21    1
    21    21    22    1
    22    20    23   ar
    23    23    24    1
    24    24    25    1
    25    23     3   ar
    26    17    10   ar
    27     1    26    1
    28     1    27    1
    29     1    28    1
    30     4    29    1
    31     6    30    1
    32     7    31    1
    33    12    32    1
    34    12    33    1
    35    12    34    1
    36    15    35    1
    37    15    36    1
    38    18    37    1
    39    18    38    1
    40    19    39    1
    41    22    40    1
    42    22    41    1
    43    22    42    1
    44    25    43    1
    45    25    44    1
    46    25    45    1
