
     RDKit          3D

 69 73  0  0  0  0  0  0  0  0999 V2000
   -5.2293    4.0623   -0.9210 C   0  0  0  0  0  0  0  0  0  0  0  0
   -5.6069    2.7480   -0.6950 O   0  0  0  0  0  0  0  0  0  0  0  0
   -4.9188    2.1460    0.3296 C   0  0  0  0  0  0  0  0  0  0  0  0
   -5.8095    1.6213    1.4339 C   0  0  0  0  0  0  0  0  0  0  0  0
   -6.6783    0.6379    1.0158 O   0  0  0  0  0  0  0  0  0  0  0  0
   -5.9036   -0.4802    0.6729 C   0  0  0  0  0  0  0  0  0  0  0  0
   -5.1436   -0.0844   -0.5891 C   0  0  0  0  0  0  0  0  0  0  0  0
   -4.1459    0.9698   -0.2834 C   0  0  0  0  0  0  0  0  0  0  0  0
   -3.1045    0.6283    0.5940 N   0  0  0  0  0  0  0  0  0  0  0  0
   -2.2524   -0.4364    0.2273 C   0  0  2  0  0  0  0  0  0  0  0  0
   -1.2105   -0.6152    1.3411 C   0  0  0  0  0  0  0  0  0  0  0  0
   -0.0743   -1.3675    0.6486 C   0  0  1  0  0  0  0  0  0  0  0  0
   -0.3564   -2.8202    0.5838 C   0  0  0  0  0  0  0  0  0  0  0  0
   -0.1608   -3.2375   -0.8234 C   0  0  2  0  0  0  0  0  0  0  0  0
    0.8632   -4.3383   -0.9523 C   0  0  0  0  0  0  0  0  0  0  0  0
    1.1649   -4.8514   -2.2437 N   0  0  0  0  0  0  0  0  0  0  0  0
    1.4512   -4.8116    0.0300 O   0  0  0  0  0  0  0  0  0  0  0  0
    0.1678   -2.0299   -1.6156 C   0  0  0  0  0  0  0  0  0  0  0  0
   -0.0250   -0.8306   -0.7087 C   0  0  2  0  0  0  0  0  0  0  0  0
    1.0278    0.1787   -0.8887 C   0  0  0  0  0  0  0  0  0  0  0  0
    0.6218    1.3468   -1.2641 O   0  0  0  0  0  0  0  0  0  0  0  0
    2.4071    0.0503   -0.7111 N   0  0  0  0  0  0  0  0  0  0  0  0
    3.0291   -1.1623   -0.2844 C   0  0  0  0  0  0  0  0  0  0  0  0
    3.7247   -0.8375    1.0546 C   0  0  0  0  0  0  0  0  0  0  0  0
    4.8076    0.1357    0.6610 C   0  0  0  0  0  0  0  0  0  0  0  0
    6.0162    0.0963    1.2375 N   0  0  0  0  0  0  0  0  0  0  0  0
    7.0047    0.9535    0.8994 C   0  0  0  0  0  0  0  0  0  0  0  0
    6.8232    1.9239   -0.0655 C   0  0  0  0  0  0  0  0  0  0  0  0
    7.9114    2.8819   -0.4509 C   0  0  0  0  0  0  0  0  0  0  0  0
    9.1574    2.3905   -0.1091 F   0  0  0  0  0  0  0  0  0  0  0  0
    7.7660    4.0929    0.2183 F   0  0  0  0  0  0  0  0  0  0  0  0
    7.9276    3.0822   -1.8175 F   0  0  0  0  0  0  0  0  0  0  0  0
    5.5929    1.9855   -0.6720 C   0  0  0  0  0  0  0  0  0  0  0  0
    4.5785    1.0870   -0.3075 C   0  0  0  0  0  0  0  0  0  0  0  0
    3.2612    1.1863   -0.9804 C   0  0  0  0  0  0  0  0  0  0  0  0
   -1.3963   -0.2151   -0.9724 C   0  0  0  0  0  0  0  0  0  0  0  0
   -5.8689    4.4231   -1.7781 H   0  0  0  0  0  0  0  0  0  0  0  0
   -4.1830    4.1698   -1.2635 H   0  0  0  0  0  0  0  0  0  0  0  0
   -5.4815    4.7306   -0.0675 H   0  0  0  0  0  0  0  0  0  0  0  0
   -4.1659    2.8115    0.8160 H   0  0  0  0  0  0  0  0  0  0  0  0
   -6.3742    2.4421    1.8873 H   0  0  0  0  0  0  0  0  0  0  0  0
   -5.1454    1.2097    2.2221 H   0  0  0  0  0  0  0  0  0  0  0  0
   -6.5713   -1.3441    0.4756 H   0  0  0  0  0  0  0  0  0  0  0  0
   -5.2456   -0.6946    1.5173 H   0  0  0  0  0  0  0  0  0  0  0  0
   -4.7390   -0.9688   -1.1135 H   0  0  0  0  0  0  0  0  0  0  0  0
   -5.9110    0.3509   -1.2715 H   0  0  0  0  0  0  0  0  0  0  0  0
   -3.7343    1.3507   -1.2535 H   0  0  0  0  0  0  0  0  0  0  0  0
   -2.6837    1.3721    1.1515 H   0  0  0  0  0  0  0  0  0  0  0  0
   -2.7409   -1.4203    0.1279 H   0  0  0  0  0  0  0  0  0  0  0  0
   -1.6048   -1.1255    2.2165 H   0  0  0  0  0  0  0  0  0  0  0  0
   -0.7856    0.3558    1.6641 H   0  0  0  0  0  0  0  0  0  0  0  0
    0.8647   -1.1848    1.2400 H   0  0  0  0  0  0  0  0  0  0  0  0
    0.3714   -3.3583    1.2450 H   0  0  0  0  0  0  0  0  0  0  0  0
   -1.3942   -3.0333    0.9635 H   0  0  0  0  0  0  0  0  0  0  0  0
   -1.1127   -3.7410   -1.1748 H   0  0  0  0  0  0  0  0  0  0  0  0
    1.0267   -4.2364   -3.0750 H   0  0  0  0  0  0  0  0  0  0  0  0
    1.5204   -5.8151   -2.4208 H   0  0  0  0  0  0  0  0  0  0  0  0
    1.1267   -2.1146   -2.0977 H   0  0  0  0  0  0  0  0  0  0  0  0
   -0.5872   -1.9815   -2.4574 H   0  0  0  0  0  0  0  0  0  0  0  0
    3.9080   -1.3454   -0.9900 H   0  0  0  0  0  0  0  0  0  0  0  0
    2.4249   -2.0521   -0.2046 H   0  0  0  0  0  0  0  0  0  0  0  0
    3.0348   -0.3512    1.7473 H   0  0  0  0  0  0  0  0  0  0  0  0
    4.1505   -1.7975    1.4086 H   0  0  0  0  0  0  0  0  0  0  0  0
    7.9883    0.9164    1.3736 H   0  0  0  0  0  0  0  0  0  0  0  0
    5.3977    2.7292   -1.4364 H   0  0  0  0  0  0  0  0  0  0  0  0
    2.8023    2.1382   -0.6229 H   0  0  0  0  0  0  0  0  0  0  0  0
    3.4569    1.3044   -2.0738 H   0  0  0  0  0  0  0  0  0  0  0  0
   -1.7987   -0.6924   -1.8932 H   0  0  0  0  0  0  0  0  0  0  0  0
   -1.2333    0.8655   -1.1451 H   0  0  0  0  0  0  0  0  0  0  0  0
  1  2  1  0
  2  3  1  0
  3  4  1  0
  4  5  1  0
  5  6  1  0
  6  7  1  0
  7  8  1  0
  8  9  1  0
  9 10  1  0
 10 11  1  0
 11 12  1  0
 12 13  1  0
 13 14  1  0
 14 15  1  0
 15 16  1  0
 15 17  2  0
 14 18  1  0
 18 19  1  0
 19 20  1  1
 20 21  2  0
 20 22  1  0
 22 23  1  0
 23 24  1  0
 24 25  1  0
 25 26  2  0
 26 27  1  0
 27 28  2  0
 28 29  1  0
 29 30  1  0
 29 31  1  0
 29 32  1  0
 28 33  1  0
 33 34  2  0
 34 35  1  0
 19 36  1  0
  8  3  1  0
 36 10  1  0
 19 12  1  0
 35 22  1  0
 34 25  1  0
  1 37  1  0
  1 38  1  0
  1 39  1  0
  3 40  1  0
  4 41  1  0
  4 42  1  0
  6 43  1  0
  6 44  1  0
  7 45  1  0
  7 46  1  0
  8 47  1  0
  9 48  1  0
 10 49  1  6
 11 50  1  0
 11 51  1  0
 12 52  1  1
 13 53  1  0
 13 54  1  0
 14 55  1  6
 16 56  1  0
 16 57  1  0
 18 58  1  0
 18 59  1  0
 23 60  1  0
 23 61  1  0
 24 62  1  0
 24 63  1  0
 27 64  1  0
 33 65  1  0
 35 66  1  0
 35 67  1  0
 36 68  1  0
 36 69  1  0
M  END
$$$$
