@<TRIPOS>MOLECULE
*****
 69 73 0 0 0
SMALL
GASTEIGER

@<TRIPOS>ATOM
      1 C          -5.2293    4.0623   -0.9210 C.3     1  UNL1        0.0370
      2 O          -5.6069    2.7480   -0.6950 O.3     1  UNL1       -0.3760
      3 C          -4.9188    2.1460    0.3296 C.3     1  UNL1        0.0969
      4 C          -5.8095    1.6213    1.4339 C.3     1  UNL1        0.0753
      5 O          -6.6783    0.6379    1.0158 O.3     1  UNL1       -0.3771
      6 C          -5.9036   -0.4802    0.6729 C.3     1  UNL1        0.0493
      7 C          -5.1436   -0.0844   -0.5891 C.3     1  UNL1       -0.0115
      8 C          -4.1459    0.9698   -0.2834 C.3     1  UNL1        0.0383
      9 N          -3.1045    0.6283    0.5940 N.3     1  UNL1       -0.3079
     10 C          -2.2524   -0.4364    0.2273 C.3     1  UNL1        0.0092
     11 C          -1.2105   -0.6152    1.3411 C.3     1  UNL1       -0.0337
     12 C          -0.0743   -1.3675    0.6486 C.3     1  UNL1       -0.0249
     13 C          -0.3564   -2.8202    0.5838 C.3     1  UNL1       -0.0381
     14 C          -0.1608   -3.2375   -0.8234 C.3     1  UNL1        0.0366
     15 C           0.8632   -4.3383   -0.9523 C.2     1  UNL1        0.2136
     16 N           1.1649   -4.8514   -2.2437 N.am    1  UNL1       -0.3291
     17 O           1.4512   -4.8116    0.0300 O.2     1  UNL1       -0.2757
     18 C           0.1678   -2.0299   -1.6156 C.3     1  UNL1       -0.0276
     19 C          -0.0250   -0.8306   -0.7087 C.3     1  UNL1        0.0521
     20 C           1.0278    0.1787   -0.8887 C.2     1  UNL1        0.2224
     21 O           0.6218    1.3468   -1.2641 O.2     1  UNL1       -0.2750
     22 N           2.4071    0.0503   -0.7111 N.am    1  UNL1       -0.2963
     23 C           3.0291   -1.1623   -0.2844 C.3     1  UNL1        0.0204
     24 C           3.7247   -0.8375    1.0546 C.3     1  UNL1        0.0058
     25 C           4.8076    0.1357    0.6610 C.ar    1  UNL1        0.0474
     26 N           6.0162    0.0963    1.2375 N.ar    1  UNL1       -0.2590
     27 C           7.0047    0.9535    0.8994 C.ar    1  UNL1        0.0395
     28 C           6.8232    1.9239   -0.0655 C.ar    1  UNL1        0.0732
     29 C           7.9114    2.8819   -0.4509 C.3     1  UNL1        0.4188
     30 F           9.1574    2.3905   -0.1091 F       1  UNL1       -0.1658
     31 F           7.7660    4.0929    0.2183 F       1  UNL1       -0.1658
     32 F           7.9276    3.0822   -1.8175 F       1  UNL1       -0.1658
     33 C           5.5929    1.9855   -0.6720 C.ar    1  UNL1       -0.0423
     34 C           4.5785    1.0870   -0.3075 C.ar    1  UNL1       -0.0083
     35 C           3.2612    1.1863   -0.9804 C.3     1  UNL1        0.0414
     36 C          -1.3963   -0.2151   -0.9724 C.3     1  UNL1       -0.0233
     37 H          -5.8689    4.4231   -1.7781 H       1  UNL1        0.0524
     38 H          -4.1830    4.1698   -1.2635 H       1  UNL1        0.0524
     39 H          -5.4815    4.7306   -0.0675 H       1  UNL1        0.0524
     40 H          -4.1659    2.8115    0.8160 H       1  UNL1        0.0634
     41 H          -6.3742    2.4421    1.8873 H       1  UNL1        0.0586
     42 H          -5.1454    1.2097    2.2221 H       1  UNL1        0.0586
     43 H          -6.5713   -1.3441    0.4756 H       1  UNL1        0.0560
     44 H          -5.2456   -0.6946    1.5173 H       1  UNL1        0.0560
     45 H          -4.7390   -0.9688   -1.1135 H       1  UNL1        0.0303
     46 H          -5.9110    0.3509   -1.2715 H       1  UNL1        0.0303
     47 H          -3.7343    1.3507   -1.2535 H       1  UNL1        0.0487
     48 H          -2.6837    1.3721    1.1515 H       1  UNL1        0.1225
     49 H          -2.7409   -1.4203    0.1279 H       1  UNL1        0.0461
     50 H          -1.6048   -1.1255    2.2165 H       1  UNL1        0.0283
     51 H          -0.7856    0.3558    1.6641 H       1  UNL1        0.0283
     52 H           0.8647   -1.1848    1.2400 H       1  UNL1        0.0311
     53 H           0.3714   -3.3583    1.2450 H       1  UNL1        0.0275
     54 H          -1.3942   -3.0333    0.9635 H       1  UNL1        0.0275
     55 H          -1.1127   -3.7410   -1.1748 H       1  UNL1        0.0394
     56 H           1.0267   -4.2364   -3.0750 H       1  UNL1        0.1449
     57 H           1.5204   -5.8151   -2.4208 H       1  UNL1        0.1449
     58 H           1.1267   -2.1146   -2.0977 H       1  UNL1        0.0282
     59 H          -0.5872   -1.9815   -2.4574 H       1  UNL1        0.0282
     60 H           3.9080   -1.3454   -0.9900 H       1  UNL1        0.0468
     61 H           2.4249   -2.0521   -0.2046 H       1  UNL1        0.0468
     62 H           3.0348   -0.3512    1.7473 H       1  UNL1        0.0344
     63 H           4.1505   -1.7975    1.4086 H       1  UNL1        0.0344
     64 H           7.9883    0.9164    1.3736 H       1  UNL1        0.0835
     65 H           5.3977    2.7292   -1.4364 H       1  UNL1        0.0627
     66 H           2.8023    2.1382   -0.6229 H       1  UNL1        0.0514
     67 H           3.4569    1.3044   -2.0738 H       1  UNL1        0.0514
     68 H          -1.7987   -0.6924   -1.8932 H       1  UNL1        0.0290
     69 H          -1.2333    0.8655   -1.1451 H       1  UNL1        0.0290
@<TRIPOS>BOND
     1     1     2    1
     2     2     3    1
     3     3     4    1
     4     4     5    1
     5     5     6    1
     6     6     7    1
     7     7     8    1
     8     8     9    1
     9     9    10    1
    10    10    11    1
    11    11    12    1
    12    12    13    1
    13    13    14    1
    14    14    15    1
    15    15    16   am
    16    15    17    2
    17    14    18    1
    18    18    19    1
    19    19    20    1
    20    20    21    2
    21    20    22   am
    22    22    23    1
    23    23    24    1
    24    24    25    1
    25    25    26   ar
    26    26    27   ar
    27    27    28   ar
    28    28    29    1
    29    29    30    1
    30    29    31    1
    31    29    32    1
    32    28    33   ar
    33    33    34   ar
    34    34    35    1
    35    19    36    1
    36     8     3    1
    37    36    10    1
    38    19    12    1
    39    35    22    1
    40    34    25   ar
    41     1    37    1
    42     1    38    1
    43     1    39    1
    44     3    40    1
    45     4    41    1
    46     4    42    1
    47     6    43    1
    48     6    44    1
    49     7    45    1
    50     7    46    1
    51     8    47    1
    52     9    48    1
    53    10    49    1
    54    11    50    1
    55    11    51    1
    56    12    52    1
    57    13    53    1
    58    13    54    1
    59    14    55    1
    60    16    56    1
    61    16    57    1
    62    18    58    1
    63    18    59    1
    64    23    60    1
    65    23    61    1
    66    24    62    1
    67    24    63    1
    68    27    64    1
    69    33    65    1
    70    35    66    1
    71    35    67    1
    72    36    68    1
    73    36    69    1
