
     RDKit          3D

 92100  0  0  0  0  0  0  0  0999 V2000
  -10.3722   -4.0916   -0.7078 C   0  0  0  0  0  0  0  0  0  0  0  0
  -10.7655   -2.6962   -0.6990 N   0  0  0  0  0  0  0  0  0  0  0  0
   -9.7839   -1.9028   -1.4259 C   0  0  0  0  0  0  0  0  0  0  0  0
   -8.9056   -1.1546   -0.4115 C   0  0  0  0  0  0  0  0  0  0  0  0
   -9.7472   -0.1444    0.1614 N   0  0  0  0  0  0  0  0  0  0  0  0
   -9.1331    0.6524    1.1790 C   0  0  0  0  0  0  0  0  0  0  0  0
   -7.9329    1.3733    0.7060 C   0  0  0  0  0  0  0  0  0  0  0  0
   -7.8531    2.5853    0.1351 N   0  0  0  0  0  0  0  0  0  0  0  0
   -6.5918    2.8668   -0.1410 N   0  0  0  0  0  0  0  0  0  0  0  0
   -5.8582    1.8218    0.2583 C   0  0  0  0  0  0  0  0  0  0  0  0
   -4.4768    1.6467    0.1823 C   0  0  0  0  0  0  0  0  0  0  0  0
   -3.6323    2.5913   -0.3572 C   0  0  0  0  0  0  0  0  0  0  0  0
   -2.2470    2.3853   -0.4231 C   0  0  0  0  0  0  0  0  0  0  0  0
   -1.4020    3.4218   -0.9889 C   0  0  0  0  0  0  0  0  0  0  0  0
   -0.5884    3.2163   -2.0695 C   0  0  0  0  0  0  0  0  0  0  0  0
    0.1849    4.2634   -2.5555 C   0  0  0  0  0  0  0  0  0  0  0  0
    0.1695    5.5233   -1.9891 C   0  0  0  0  0  0  0  0  0  0  0  0
   -0.6530    5.7331   -0.8966 C   0  0  0  0  0  0  0  0  0  0  0  0
   -1.4178    4.6984   -0.4146 C   0  0  0  0  0  0  0  0  0  0  0  0
   -1.7921    1.1928    0.0801 C   0  0  0  0  0  0  0  0  0  0  0  0
   -0.3614    0.9037    0.0161 C   0  0  0  0  0  0  0  0  0  0  0  0
    0.5886    1.7447    0.5282 C   0  0  0  0  0  0  0  0  0  0  0  0
    1.9409    1.4068    0.4629 C   0  0  0  0  0  0  0  0  0  0  0  0
    2.3870    0.2437   -0.1025 C   0  0  0  0  0  0  0  0  0  0  0  0
    3.8259   -0.1643   -0.1891 C   0  0  0  0  0  0  0  0  0  0  0  0
    4.1228   -0.8962    1.0334 N   0  0  0  0  0  0  0  0  0  0  0  0
    4.8809   -2.1002    0.7543 C   0  0  0  0  0  0  0  0  0  0  0  0
    6.2588   -2.0654    1.3498 C   0  0  0  0  0  0  0  0  0  0  0  0
    6.9025   -0.7682    0.8232 C   0  0  0  0  0  0  0  0  0  0  0  0
    8.3470   -0.8462    1.1378 C   0  0  0  0  0  0  0  0  0  0  0  0
    8.9905   -0.6697    2.3028 N   0  0  0  0  0  0  0  0  0  0  0  0
   10.2975   -0.8673    2.1159 N   0  0  0  0  0  0  0  0  0  0  0  0
   10.5216   -1.1703    0.8484 C   0  0  0  0  0  0  0  0  0  0  0  0
   11.7752   -1.4830    0.1446 C   0  0  0  0  0  0  0  0  0  0  0  0
   12.9833   -1.4860    0.8250 C   0  0  0  0  0  0  0  0  0  0  0  0
   14.1432   -1.7844    0.1568 C   0  0  0  0  0  0  0  0  0  0  0  0
   14.1174   -2.0825   -1.1907 C   0  0  0  0  0  0  0  0  0  0  0  0
   12.9045   -2.0719   -1.8408 C   0  0  0  0  0  0  0  0  0  0  0  0
   11.8026   -1.7763   -1.1518 N   0  0  0  0  0  0  0  0  0  0  0  0
    9.3205   -1.1576    0.2415 N   0  0  0  0  0  0  0  0  0  0  0  0
    6.2106    0.3361    1.5454 C   0  0  0  0  0  0  0  0  0  0  0  0
    4.8183   -0.0529    1.9909 C   0  0  0  0  0  0  0  0  0  0  0  0
    1.4065   -0.6141   -0.6263 C   0  0  0  0  0  0  0  0  0  0  0  0
    0.0892   -0.2866   -0.5640 C   0  0  0  0  0  0  0  0  0  0  0  0
   -2.6535    0.2789    0.6075 N   0  0  0  0  0  0  0  0  0  0  0  0
   -3.9775    0.4625    0.6766 C   0  0  0  0  0  0  0  0  0  0  0  0
   -4.8286   -0.4934    1.2181 C   0  0  0  0  0  0  0  0  0  0  0  0
   -6.1818   -0.2770    1.2712 C   0  0  0  0  0  0  0  0  0  0  0  0
   -6.6646    0.8841    0.7861 N   0  0  0  0  0  0  0  0  0  0  0  0
  -10.9665   -0.7099    0.6442 C   0  0  0  0  0  0  0  0  0  0  0  0
  -11.0293   -2.2067    0.6249 C   0  0  0  0  0  0  0  0  0  0  0  0
   -9.3958   -4.1902   -1.2385 H   0  0  0  0  0  0  0  0  0  0  0  0
  -11.0870   -4.7452   -1.2338 H   0  0  0  0  0  0  0  0  0  0  0  0
  -10.2715   -4.4884    0.3317 H   0  0  0  0  0  0  0  0  0  0  0  0
  -10.2572   -1.1515   -2.0824 H   0  0  0  0  0  0  0  0  0  0  0  0
   -9.1073   -2.5927   -1.9583 H   0  0  0  0  0  0  0  0  0  0  0  0
   -8.0706   -0.7257   -0.9839 H   0  0  0  0  0  0  0  0  0  0  0  0
   -8.5916   -1.9417    0.3098 H   0  0  0  0  0  0  0  0  0  0  0  0
   -9.9014    1.3984    1.5201 H   0  0  0  0  0  0  0  0  0  0  0  0
   -8.8662    0.0775    2.0959 H   0  0  0  0  0  0  0  0  0  0  0  0
   -4.0240    3.5087   -0.7399 H   0  0  0  0  0  0  0  0  0  0  0  0
   -0.5358    2.2501   -2.5560 H   0  0  0  0  0  0  0  0  0  0  0  0
    0.8358    4.1408   -3.4025 H   0  0  0  0  0  0  0  0  0  0  0  0
    0.7817    6.3229   -2.3853 H   0  0  0  0  0  0  0  0  0  0  0  0
   -0.6815    6.7188   -0.4358 H   0  0  0  0  0  0  0  0  0  0  0  0
   -2.0676    4.8363    0.4376 H   0  0  0  0  0  0  0  0  0  0  0  0
    0.2628    2.6739    0.9826 H   0  0  0  0  0  0  0  0  0  0  0  0
    2.6467    2.1107    0.8776 H   0  0  0  0  0  0  0  0  0  0  0  0
    4.3971    0.7900   -0.2008 H   0  0  0  0  0  0  0  0  0  0  0  0
    4.0087   -0.7639   -1.0818 H   0  0  0  0  0  0  0  0  0  0  0  0
    4.9839   -2.1953   -0.3430 H   0  0  0  0  0  0  0  0  0  0  0  0
    4.3512   -2.9923    1.1207 H   0  0  0  0  0  0  0  0  0  0  0  0
    6.2758   -2.0004    2.4469 H   0  0  0  0  0  0  0  0  0  0  0  0
    6.8716   -2.8904    0.9352 H   0  0  0  0  0  0  0  0  0  0  0  0
    6.7977   -0.7376   -0.2821 H   0  0  0  0  0  0  0  0  0  0  0  0
   13.0319   -1.2537    1.8939 H   0  0  0  0  0  0  0  0  0  0  0  0
   15.0889   -1.7899    0.6703 H   0  0  0  0  0  0  0  0  0  0  0  0
   14.9835   -2.3261   -1.7770 H   0  0  0  0  0  0  0  0  0  0  0  0
   12.8483   -2.2996   -2.8966 H   0  0  0  0  0  0  0  0  0  0  0  0
    9.1382   -1.3530   -0.7628 H   0  0  0  0  0  0  0  0  0  0  0  0
    6.2310    1.2838    0.9910 H   0  0  0  0  0  0  0  0  0  0  0  0
    6.7898    0.5408    2.4926 H   0  0  0  0  0  0  0  0  0  0  0  0
    4.2364    0.8771    2.1015 H   0  0  0  0  0  0  0  0  0  0  0  0
    4.7971   -0.5432    2.9821 H   0  0  0  0  0  0  0  0  0  0  0  0
    1.7530   -1.5236   -1.0704 H   0  0  0  0  0  0  0  0  0  0  0  0
   -0.6985   -0.9341   -0.9630 H   0  0  0  0  0  0  0  0  0  0  0  0
   -4.3985   -1.4168    1.5988 H   0  0  0  0  0  0  0  0  0  0  0  0
   -6.8671   -1.0040    1.6869 H   0  0  0  0  0  0  0  0  0  0  0  0
  -11.7900   -0.3375   -0.0017 H   0  0  0  0  0  0  0  0  0  0  0  0
  -11.2314   -0.3746    1.6831 H   0  0  0  0  0  0  0  0  0  0  0  0
  -10.3660   -2.6791    1.3823 H   0  0  0  0  0  0  0  0  0  0  0  0
  -12.0752   -2.4923    0.8819 H   0  0  0  0  0  0  0  0  0  0  0  0
  1  2  1  0
  2  3  1  0
  3  4  1  0
  4  5  1  0
  5  6  1  0
  6  7  1  0
  7  8  2  0
  8  9  1  0
  9 10  2  0
 10 11  1  0
 11 12  2  0
 12 13  1  0
 13 14  1  0
 14 15  2  0
 15 16  1  0
 16 17  2  0
 17 18  1  0
 18 19  2  0
 13 20  2  0
 20 21  1  0
 21 22  2  0
 22 23  1  0
 23 24  2  0
 24 25  1  0
 25 26  1  0
 26 27  1  0
 27 28  1  0
 28 29  1  0
 29 30  1  0
 30 31  2  0
 31 32  1  0
 32 33  2  0
 33 34  1  0
 34 35  2  0
 35 36  1  0
 36 37  2  0
 37 38  1  0
 38 39  2  0
 33 40  1  0
 29 41  1  0
 41 42  1  0
 24 43  1  0
 43 44  2  0
 20 45  1  0
 45 46  2  0
 46 47  1  0
 47 48  2  0
 48 49  1  0
  5 50  1  0
 50 51  1  0
 51  2  1  0
 49  7  1  0
 49 10  1  0
 46 11  1  0
 19 14  1  0
 44 21  1  0
 42 26  1  0
 40 30  1  0
 39 34  1  0
  1 52  1  0
  1 53  1  0
  1 54  1  0
  3 55  1  0
  3 56  1  0
  4 57  1  0
  4 58  1  0
  6 59  1  0
  6 60  1  0
 12 61  1  0
 15 62  1  0
 16 63  1  0
 17 64  1  0
 18 65  1  0
 19 66  1  0
 22 67  1  0
 23 68  1  0
 25 69  1  0
 25 70  1  0
 27 71  1  0
 27 72  1  0
 28 73  1  0
 28 74  1  0
 29 75  1  0
 35 76  1  0
 36 77  1  0
 37 78  1  0
 38 79  1  0
 40 80  1  0
 41 81  1  0
 41 82  1  0
 42 83  1  0
 42 84  1  0
 43 85  1  0
 44 86  1  0
 47 87  1  0
 48 88  1  0
 50 89  1  0
 50 90  1  0
 51 91  1  0
 51 92  1  0
M  END
$$$$
