@<TRIPOS>MOLECULE
*****
 92 100 0 0 0
SMALL
GASTEIGER

@<TRIPOS>ATOM
      1 C         -10.3722   -4.0916   -0.7078 C.3     1  UNL1       -0.0127
      2 N         -10.7655   -2.6962   -0.6990 N.3     1  UNL1       -0.3029
      3 C          -9.7839   -1.9028   -1.4259 C.3     1  UNL1        0.0114
      4 C          -8.9056   -1.1546   -0.4115 C.3     1  UNL1        0.0121
      5 N          -9.7472   -0.1444    0.1614 N.3     1  UNL1       -0.2927
      6 C          -9.1331    0.6524    1.1790 C.3     1  UNL1        0.0594
      7 C          -7.9329    1.3733    0.7060 C.ar    1  UNL1        0.1519
      8 N          -7.8531    2.5853    0.1351 N.ar    1  UNL1       -0.1323
      9 N          -6.5918    2.8668   -0.1410 N.ar    1  UNL1       -0.1287
     10 C          -5.8582    1.8218    0.2583 C.ar    1  UNL1        0.1704
     11 C          -4.4768    1.6467    0.1823 C.ar    1  UNL1        0.0456
     12 C          -3.6323    2.5913   -0.3572 C.ar    1  UNL1       -0.0392
     13 C          -2.2470    2.3853   -0.4231 C.ar    1  UNL1        0.0088
     14 C          -1.4020    3.4218   -0.9889 C.ar    1  UNL1       -0.0158
     15 C          -0.5884    3.2163   -2.0695 C.ar    1  UNL1       -0.0540
     16 C           0.1849    4.2634   -2.5555 C.ar    1  UNL1       -0.0612
     17 C           0.1695    5.5233   -1.9891 C.ar    1  UNL1       -0.0617
     18 C          -0.6530    5.7331   -0.8966 C.ar    1  UNL1       -0.0612
     19 C          -1.4178    4.6984   -0.4146 C.ar    1  UNL1       -0.0540
     20 C          -1.7921    1.1928    0.0801 C.ar    1  UNL1        0.0794
     21 C          -0.3614    0.9037    0.0161 C.ar    1  UNL1        0.0010
     22 C           0.5886    1.7447    0.5282 C.ar    1  UNL1       -0.0522
     23 C           1.9409    1.4068    0.4629 C.ar    1  UNL1       -0.0567
     24 C           2.3870    0.2437   -0.1025 C.ar    1  UNL1       -0.0333
     25 C           3.8259   -0.1643   -0.1891 C.3     1  UNL1        0.0240
     26 N           4.1228   -0.8962    1.0334 N.3     1  UNL1       -0.2981
     27 C           4.8809   -2.1002    0.7543 C.3     1  UNL1       -0.0001
     28 C           6.2588   -2.0654    1.3498 C.3     1  UNL1       -0.0304
     29 C           6.9025   -0.7682    0.8232 C.3     1  UNL1        0.0212
     30 C           8.3470   -0.8462    1.1378 C.ar    1  UNL1        0.1344
     31 N           8.9905   -0.6697    2.3028 N.ar    1  UNL1       -0.1339
     32 N          10.2975   -0.8673    2.1159 N.ar    1  UNL1       -0.1278
     33 C          10.5216   -1.1703    0.8484 C.ar    1  UNL1        0.1800
     34 C          11.7752   -1.4830    0.1446 C.ar    1  UNL1        0.1077
     35 C          12.9833   -1.4860    0.8250 C.ar    1  UNL1       -0.0326
     36 C          14.1432   -1.7844    0.1568 C.ar    1  UNL1       -0.0582
     37 C          14.1174   -2.0825   -1.1907 C.ar    1  UNL1       -0.0436
     38 C          12.9045   -2.0719   -1.8408 C.ar    1  UNL1        0.0284
     39 N          11.8026   -1.7763   -1.1518 N.ar    1  UNL1       -0.2519
     40 N           9.3205   -1.1576    0.2415 N.ar    1  UNL1       -0.3237
     41 C           6.2106    0.3361    1.5454 C.3     1  UNL1       -0.0304
     42 C           4.8183   -0.0529    1.9909 C.3     1  UNL1       -0.0001
     43 C           1.4065   -0.6141   -0.6263 C.ar    1  UNL1       -0.0567
     44 C           0.0892   -0.2866   -0.5640 C.ar    1  UNL1       -0.0522
     45 N          -2.6535    0.2789    0.6075 N.ar    1  UNL1       -0.2459
     46 C          -3.9775    0.4625    0.6766 C.ar    1  UNL1        0.0766
     47 C          -4.8286   -0.4934    1.2181 C.ar    1  UNL1       -0.0190
     48 C          -6.1818   -0.2770    1.2712 C.ar    1  UNL1        0.0150
     49 N          -6.6646    0.8841    0.7861 N.ar    1  UNL1       -0.2847
     50 C         -10.9665   -0.7099    0.6442 C.3     1  UNL1        0.0121
     51 C         -11.0293   -2.2067    0.6249 C.3     1  UNL1        0.0114
     52 H          -9.3958   -4.1902   -1.2385 H       1  UNL1        0.0391
     53 H         -11.0870   -4.7452   -1.2338 H       1  UNL1        0.0391
     54 H         -10.2715   -4.4884    0.3317 H       1  UNL1        0.0391
     55 H         -10.2572   -1.1515   -2.0824 H       1  UNL1        0.0439
     56 H          -9.1073   -2.5927   -1.9583 H       1  UNL1        0.0439
     57 H          -8.0706   -0.7257   -0.9839 H       1  UNL1        0.0439
     58 H          -8.5916   -1.9417    0.3098 H       1  UNL1        0.0439
     59 H          -9.9014    1.3984    1.5201 H       1  UNL1        0.0507
     60 H          -8.8662    0.0775    2.0959 H       1  UNL1        0.0507
     61 H          -4.0240    3.5087   -0.7399 H       1  UNL1        0.0632
     62 H          -0.5358    2.2501   -2.5560 H       1  UNL1        0.0624
     63 H           0.8358    4.1408   -3.4025 H       1  UNL1        0.0618
     64 H           0.7817    6.3229   -2.3853 H       1  UNL1        0.0618
     65 H          -0.6815    6.7188   -0.4358 H       1  UNL1        0.0618
     66 H          -2.0676    4.8363    0.4376 H       1  UNL1        0.0624
     67 H           0.2628    2.6739    0.9826 H       1  UNL1        0.0624
     68 H           2.6467    2.1107    0.8776 H       1  UNL1        0.0621
     69 H           4.3971    0.7900   -0.2008 H       1  UNL1        0.0476
     70 H           4.0087   -0.7639   -1.0818 H       1  UNL1        0.0476
     71 H           4.9839   -2.1953   -0.3430 H       1  UNL1        0.0427
     72 H           4.3512   -2.9923    1.1207 H       1  UNL1        0.0427
     73 H           6.2758   -2.0004    2.4469 H       1  UNL1        0.0284
     74 H           6.8716   -2.8904    0.9352 H       1  UNL1        0.0284
     75 H           6.7977   -0.7376   -0.2821 H       1  UNL1        0.0380
     76 H          13.0319   -1.2537    1.8939 H       1  UNL1        0.0640
     77 H          15.0889   -1.7899    0.6703 H       1  UNL1        0.0619
     78 H          14.9835   -2.3261   -1.7770 H       1  UNL1        0.0633
     79 H          12.8483   -2.2996   -2.8966 H       1  UNL1        0.0830
     80 H           9.1382   -1.3530   -0.7628 H       1  UNL1        0.1686
     81 H           6.2310    1.2838    0.9910 H       1  UNL1        0.0284
     82 H           6.7898    0.5408    2.4926 H       1  UNL1        0.0284
     83 H           4.2364    0.8771    2.1015 H       1  UNL1        0.0427
     84 H           4.7971   -0.5432    2.9821 H       1  UNL1        0.0427
     85 H           1.7530   -1.5236   -1.0704 H       1  UNL1        0.0621
     86 H          -0.6985   -0.9341   -0.9630 H       1  UNL1        0.0624
     87 H          -4.3985   -1.4168    1.5988 H       1  UNL1        0.0654
     88 H          -6.8671   -1.0040    1.6869 H       1  UNL1        0.0814
     89 H         -11.7900   -0.3375   -0.0017 H       1  UNL1        0.0439
     90 H         -11.2314   -0.3746    1.6831 H       1  UNL1        0.0439
     91 H         -10.3660   -2.6791    1.3823 H       1  UNL1        0.0439
     92 H         -12.0752   -2.4923    0.8819 H       1  UNL1        0.0439
@<TRIPOS>BOND
     1     1     2    1
     2     2     3    1
     3     3     4    1
     4     4     5    1
     5     5     6    1
     6     6     7    1
     7     7     8   ar
     8     8     9   ar
     9     9    10   ar
    10    10    11   ar
    11    11    12   ar
    12    12    13   ar
    13    13    14    1
    14    14    15   ar
    15    15    16   ar
    16    16    17   ar
    17    17    18   ar
    18    18    19   ar
    19    13    20   ar
    20    20    21    1
    21    21    22   ar
    22    22    23   ar
    23    23    24   ar
    24    24    25    1
    25    25    26    1
    26    26    27    1
    27    27    28    1
    28    28    29    1
    29    29    30    1
    30    30    31   ar
    31    31    32   ar
    32    32    33   ar
    33    33    34    1
    34    34    35   ar
    35    35    36   ar
    36    36    37   ar
    37    37    38   ar
    38    38    39   ar
    39    33    40   ar
    40    29    41    1
    41    41    42    1
    42    24    43   ar
    43    43    44   ar
    44    20    45   ar
    45    45    46   ar
    46    46    47   ar
    47    47    48   ar
    48    48    49   ar
    49     5    50    1
    50    50    51    1
    51    51     2    1
    52    49     7   ar
    53    49    10   ar
    54    46    11   ar
    55    19    14   ar
    56    44    21   ar
    57    42    26    1
    58    40    30   ar
    59    39    34   ar
    60     1    52    1
    61     1    53    1
    62     1    54    1
    63     3    55    1
    64     3    56    1
    65     4    57    1
    66     4    58    1
    67     6    59    1
    68     6    60    1
    69    12    61    1
    70    15    62    1
    71    16    63    1
    72    17    64    1
    73    18    65    1
    74    19    66    1
    75    22    67    1
    76    23    68    1
    77    25    69    1
    78    25    70    1
    79    27    71    1
    80    27    72    1
    81    28    73    1
    82    28    74    1
    83    29    75    1
    84    35    76    1
    85    36    77    1
    86    37    78    1
    87    38    79    1
    88    40    80    1
    89    41    81    1
    90    41    82    1
    91    42    83    1
    92    42    84    1
    93    43    85    1
    94    44    86    1
    95    47    87    1
    96    48    88    1
    97    50    89    1
    98    50    90    1
    99    51    91    1
   100    51    92    1
