@<TRIPOS>MOLECULE
*****
 54 58 0 0 0
SMALL
GASTEIGER

@<TRIPOS>ATOM
      1 C          -7.0936    0.6851    1.1513 C.3     1  UNL1        0.0788
      2 O          -7.1845   -0.0230   -0.0650 O.3     1  UNL1       -0.4950
      3 C          -6.0128   -0.3769   -0.7153 C.ar    1  UNL1        0.1234
      4 C          -6.0450   -1.0759   -1.9181 C.ar    1  UNL1        0.0190
      5 C          -4.8638   -1.3930   -2.5039 C.ar    1  UNL1        0.1692
      6 F          -4.8742   -2.0846   -3.6941 F       1  UNL1       -0.2015
      7 C          -3.6358   -1.0292   -1.9191 C.ar    1  UNL1        0.1695
      8 C          -3.5700   -0.3470   -0.7498 C.ar    1  UNL1        0.0331
      9 C          -4.8055   -0.0276   -0.1558 C.ar    1  UNL1       -0.0105
     10 C          -2.3237    0.0855   -0.0922 C.3     1  UNL1        0.1217
     11 C          -2.2518    1.5831    0.0151 C.3     1  UNL1       -0.0096
     12 C          -2.5392    2.2465    1.3017 C.3     1  UNL1        0.0037
     13 S          -1.6436    1.3958    2.6298 S.3     1  UNL1       -0.0910
     14 C          -1.9896   -0.3417    2.3205 C.2     1  UNL1        0.1478
     15 N          -1.9678   -1.2841    3.3955 N.pl3   1  UNL1       -0.3380
     16 N          -2.2425   -0.6507    1.1298 N.2     1  UNL1       -0.2472
     17 C          -1.1264   -0.3963   -0.8888 C.ar    1  UNL1        0.0285
     18 C           0.1263   -0.0889   -0.3802 C.ar    1  UNL1       -0.0312
     19 C           1.2637   -0.4801   -1.0702 C.ar    1  UNL1        0.0343
     20 N           2.5163   -0.1397   -0.5049 N.am    1  UNL1       -0.2802
     21 C           3.8032   -0.4172   -1.0016 C.2     1  UNL1        0.2681
     22 O           3.9283   -1.0398   -2.0731 O.2     1  UNL1       -0.2681
     23 C           5.0155    0.0265   -0.2581 C.ar    1  UNL1        0.1439
     24 C           6.2507   -0.2593   -0.7684 C.ar    1  UNL1        0.0619
     25 N           7.3602    0.1256   -0.1243 N.ar    1  UNL1       -0.2178
     26 C           7.3008    0.8001    1.0353 C.ar    1  UNL1        0.2332
     27 O           8.4767    1.1731    1.6579 O.3     1  UNL1       -0.4786
     28 C           9.7413    0.8652    1.1092 C.3     1  UNL1        0.0805
     29 C           6.0613    1.0921    1.5562 C.ar    1  UNL1        0.0899
     30 N           4.9312    0.6984    0.8974 N.ar    1  UNL1       -0.2435
     31 C           1.1286   -1.1675   -2.2490 C.ar    1  UNL1       -0.0370
     32 C          -0.1240   -1.4581   -2.7282 C.ar    1  UNL1       -0.0172
     33 C          -1.2919   -1.0712   -2.0443 C.ar    1  UNL1        0.1345
     34 O          -2.5104   -1.4267   -2.6290 O.3     1  UNL1       -0.4524
     35 H          -8.0708    1.0365    1.5141 H       1  UNL1        0.0660
     36 H          -6.4682    1.5951    1.0001 H       1  UNL1        0.0660
     37 H          -6.6275    0.0583    1.9658 H       1  UNL1        0.0660
     38 H          -7.0237   -1.3208   -2.3071 H       1  UNL1        0.0684
     39 H          -4.7537    0.4989    0.7715 H       1  UNL1        0.0659
     40 H          -1.2333    1.9621   -0.3148 H       1  UNL1        0.0303
     41 H          -2.9420    2.0094   -0.7680 H       1  UNL1        0.0303
     42 H          -2.1338    3.2998    1.2388 H       1  UNL1        0.0381
     43 H          -3.5972    2.2776    1.6300 H       1  UNL1        0.0381
     44 H          -1.3477   -1.1017    4.1908 H       1  UNL1        0.1442
     45 H          -2.5713   -2.1097    3.3368 H       1  UNL1        0.1442
     46 H           0.1714    0.4473    0.5381 H       1  UNL1        0.0641
     47 H           2.4889    0.3977    0.4189 H       1  UNL1        0.1552
     48 H           6.3240   -0.7969   -1.6930 H       1  UNL1        0.0854
     49 H          10.5451    0.8858    1.8541 H       1  UNL1        0.0660
     50 H           9.6927   -0.1999    0.7365 H       1  UNL1        0.0660
     51 H           9.9598    1.4692    0.2050 H       1  UNL1        0.0660
     52 H           6.0045    1.6351    2.4900 H       1  UNL1        0.0884
     53 H           2.0030   -1.4893   -2.8162 H       1  UNL1        0.0637
     54 H          -0.2284   -2.0000   -3.6575 H       1  UNL1        0.0655
@<TRIPOS>BOND
     1     1     2    1
     2     2     3    1
     3     3     4   ar
     4     4     5   ar
     5     5     6    1
     6     5     7   ar
     7     7     8   ar
     8     8     9   ar
     9     8    10    1
    10    10    11    1
    11    11    12    1
    12    12    13    1
    13    13    14    1
    14    14    15    1
    15    14    16    2
    16    10    17    1
    17    17    18   ar
    18    18    19   ar
    19    19    20    1
    20    20    21   am
    21    21    22    2
    22    21    23    1
    23    23    24   ar
    24    24    25   ar
    25    25    26   ar
    26    26    27    1
    27    27    28    1
    28    26    29   ar
    29    29    30   ar
    30    19    31   ar
    31    31    32   ar
    32    32    33   ar
    33    33    34    1
    34     9     3   ar
    35    16    10    1
    36    33    17   ar
    37    34     7    1
    38    30    23   ar
    39     1    35    1
    40     1    36    1
    41     1    37    1
    42     4    38    1
    43     9    39    1
    44    11    40    1
    45    11    41    1
    46    12    42    1
    47    12    43    1
    48    15    44    1
    49    15    45    1
    50    18    46    1
    51    20    47    1
    52    24    48    1
    53    28    49    1
    54    28    50    1
    55    28    51    1
    56    29    52    1
    57    31    53    1
    58    32    54    1
