@<TRIPOS>MOLECULE
*****
 48 51 0 0 0
SMALL
GASTEIGER

@<TRIPOS>ATOM
      1 C           0.5084   -0.2783    0.2427 C.3     1  UNL1        0.0124
      2 C          -0.3050    0.4748    1.2565 C.3     1  UNL1       -0.0367
      3 C          -1.6745   -0.1583    1.4060 C.3     1  UNL1       -0.0433
      4 C          -2.3244   -0.0418    0.0370 C.3     1  UNL1        0.0022
      5 C          -3.7912   -0.1863    0.0983 C.ar    1  UNL1       -0.0048
      6 C          -4.4731   -1.3801   -0.0145 C.ar    1  UNL1        0.1298
      7 F          -3.7662   -2.5042   -0.1936 F       1  UNL1       -0.2051
      8 C          -5.8399   -1.5110    0.0431 C.ar    1  UNL1        0.0119
      9 C          -6.5996   -0.3576    0.2288 C.ar    1  UNL1        0.1611
     10 F          -7.9539   -0.5033    0.2838 F       1  UNL1       -0.2024
     11 C          -5.9717    0.8498    0.3462 C.ar    1  UNL1        0.1588
     12 F          -6.7519    1.9274    0.5234 F       1  UNL1       -0.2025
     13 C          -4.5954    0.9332    0.2821 C.ar    1  UNL1       -0.0174
     14 C          -1.6384   -1.0926   -0.7999 C.3     1  UNL1        0.0132
     15 N          -2.2676   -1.3136   -2.0584 N.3     1  UNL1       -0.3266
     16 C          -0.2240   -0.5560   -1.0527 C.3     1  UNL1       -0.0215
     17 N           1.7664    0.2338   -0.0496 N.3     1  UNL1       -0.2905
     18 C           2.5942   -0.4128   -0.9913 C.3     1  UNL1        0.0177
     19 C           3.8702    0.3259   -1.2449 C.3     1  UNL1        0.0391
     20 N           4.3604    0.8288    0.0249 N.ar    1  UNL1       -0.3053
     21 C           3.5466    1.4639    0.8875 C.ar    1  UNL1        0.1479
     22 C           2.1567    1.5296    0.3063 C.3     1  UNL1        0.0593
     23 N           4.2630    1.8086    1.9519 N.ar    1  UNL1       -0.1327
     24 N           5.5054    1.3836    1.7338 N.ar    1  UNL1       -0.1250
     25 C           5.6030    0.7718    0.5496 C.ar    1  UNL1        0.2376
     26 C           6.8626    0.1842    0.0125 C.3     1  UNL1        0.4524
     27 F           7.9711    0.8665    0.4160 F       1  UNL1       -0.1632
     28 F           6.8416    0.1802   -1.3592 F       1  UNL1       -0.1632
     29 F           6.8921   -1.1417    0.4291 F       1  UNL1       -0.1632
     30 H           0.6545   -1.3019    0.6997 H       1  UNL1        0.0463
     31 H          -0.5048    1.5262    0.9852 H       1  UNL1        0.0280
     32 H           0.2100    0.3569    2.2320 H       1  UNL1        0.0280
     33 H          -1.6245   -1.1961    1.7613 H       1  UNL1        0.0272
     34 H          -2.2864    0.4817    2.0843 H       1  UNL1        0.0272
     35 H          -2.0249    0.9412   -0.3781 H       1  UNL1        0.0365
     36 H          -6.3159   -2.4764   -0.0522 H       1  UNL1        0.0676
     37 H          -4.1691    1.9226    0.3831 H       1  UNL1        0.0651
     38 H          -1.5292   -1.9964   -0.1664 H       1  UNL1        0.0465
     39 H          -1.9375   -2.2159   -2.4633 H       1  UNL1        0.1185
     40 H          -2.0972   -0.4888   -2.6578 H       1  UNL1        0.1185
     41 H          -0.3205    0.3424   -1.6847 H       1  UNL1        0.0295
     42 H           0.3059   -1.4006   -1.5483 H       1  UNL1        0.0295
     43 H           2.1021   -0.5535   -1.9883 H       1  UNL1        0.0444
     44 H           2.8718   -1.4159   -0.6149 H       1  UNL1        0.0444
     45 H           4.6036   -0.3159   -1.7435 H       1  UNL1        0.0505
     46 H           3.7330    1.2228   -1.8875 H       1  UNL1        0.0505
     47 H           1.4706    2.1207    0.8960 H       1  UNL1        0.0507
     48 H           2.2937    2.1224   -0.6480 H       1  UNL1        0.0507
@<TRIPOS>BOND
     1     1     2    1
     2     2     3    1
     3     3     4    1
     4     4     5    1
     5     5     6   ar
     6     6     7    1
     7     6     8   ar
     8     8     9   ar
     9     9    10    1
    10     9    11   ar
    11    11    12    1
    12    11    13   ar
    13     4    14    1
    14    14    15    1
    15    14    16    1
    16     1    17    1
    17    17    18    1
    18    18    19    1
    19    19    20    1
    20    20    21   ar
    21    21    22    1
    22    21    23   ar
    23    23    24   ar
    24    24    25   ar
    25    25    26    1
    26    26    27    1
    27    26    28    1
    28    26    29    1
    29    16     1    1
    30    22    17    1
    31    13     5   ar
    32    25    20   ar
    33     1    30    1
    34     2    31    1
    35     2    32    1
    36     3    33    1
    37     3    34    1
    38     4    35    1
    39     8    36    1
    40    13    37    1
    41    14    38    1
    42    15    39    1
    43    15    40    1
    44    16    41    1
    45    16    42    1
    46    18    43    1
    47    18    44    1
    48    19    45    1
    49    19    46    1
    50    22    47    1
    51    22    48    1
