
     RDKit          3D

 48 51  0  0  0  0  0  0  0  0999 V2000
    0.5084   -0.2783    0.2427 C   0  0  1  0  0  0  0  0  0  0  0  0
   -0.3050    0.4748    1.2565 C   0  0  0  0  0  0  0  0  0  0  0  0
   -1.6745   -0.1583    1.4060 C   0  0  0  0  0  0  0  0  0  0  0  0
   -2.3244   -0.0418    0.0370 C   0  0  2  0  0  0  0  0  0  0  0  0
   -3.7912   -0.1863    0.0983 C   0  0  0  0  0  0  0  0  0  0  0  0
   -4.4731   -1.3801   -0.0145 C   0  0  0  0  0  0  0  0  0  0  0  0
   -3.7662   -2.5042   -0.1936 F   0  0  0  0  0  0  0  0  0  0  0  0
   -5.8399   -1.5110    0.0431 C   0  0  0  0  0  0  0  0  0  0  0  0
   -6.5996   -0.3576    0.2288 C   0  0  0  0  0  0  0  0  0  0  0  0
   -7.9539   -0.5033    0.2838 F   0  0  0  0  0  0  0  0  0  0  0  0
   -5.9717    0.8498    0.3462 C   0  0  0  0  0  0  0  0  0  0  0  0
   -6.7519    1.9274    0.5234 F   0  0  0  0  0  0  0  0  0  0  0  0
   -4.5954    0.9332    0.2821 C   0  0  0  0  0  0  0  0  0  0  0  0
   -1.6384   -1.0926   -0.7999 C   0  0  1  0  0  0  0  0  0  0  0  0
   -2.2676   -1.3136   -2.0584 N   0  0  0  0  0  0  0  0  0  0  0  0
   -0.2240   -0.5560   -1.0527 C   0  0  0  0  0  0  0  0  0  0  0  0
    1.7664    0.2338   -0.0496 N   0  0  0  0  0  0  0  0  0  0  0  0
    2.5942   -0.4128   -0.9913 C   0  0  0  0  0  0  0  0  0  0  0  0
    3.8702    0.3259   -1.2449 C   0  0  0  0  0  0  0  0  0  0  0  0
    4.3604    0.8288    0.0249 N   0  0  0  0  0  0  0  0  0  0  0  0
    3.5466    1.4639    0.8875 C   0  0  0  0  0  0  0  0  0  0  0  0
    2.1567    1.5296    0.3063 C   0  0  0  0  0  0  0  0  0  0  0  0
    4.2630    1.8086    1.9519 N   0  0  0  0  0  0  0  0  0  0  0  0
    5.5054    1.3836    1.7338 N   0  0  0  0  0  0  0  0  0  0  0  0
    5.6030    0.7718    0.5496 C   0  0  0  0  0  0  0  0  0  0  0  0
    6.8626    0.1842    0.0125 C   0  0  0  0  0  0  0  0  0  0  0  0
    7.9711    0.8665    0.4160 F   0  0  0  0  0  0  0  0  0  0  0  0
    6.8416    0.1802   -1.3592 F   0  0  0  0  0  0  0  0  0  0  0  0
    6.8921   -1.1417    0.4291 F   0  0  0  0  0  0  0  0  0  0  0  0
    0.6545   -1.3019    0.6997 H   0  0  0  0  0  0  0  0  0  0  0  0
   -0.5048    1.5262    0.9852 H   0  0  0  0  0  0  0  0  0  0  0  0
    0.2100    0.3569    2.2320 H   0  0  0  0  0  0  0  0  0  0  0  0
   -1.6245   -1.1961    1.7613 H   0  0  0  0  0  0  0  0  0  0  0  0
   -2.2864    0.4817    2.0843 H   0  0  0  0  0  0  0  0  0  0  0  0
   -2.0249    0.9412   -0.3781 H   0  0  0  0  0  0  0  0  0  0  0  0
   -6.3159   -2.4764   -0.0522 H   0  0  0  0  0  0  0  0  0  0  0  0
   -4.1691    1.9226    0.3831 H   0  0  0  0  0  0  0  0  0  0  0  0
   -1.5292   -1.9964   -0.1664 H   0  0  0  0  0  0  0  0  0  0  0  0
   -1.9375   -2.2159   -2.4633 H   0  0  0  0  0  0  0  0  0  0  0  0
   -2.0972   -0.4888   -2.6578 H   0  0  0  0  0  0  0  0  0  0  0  0
   -0.3205    0.3424   -1.6847 H   0  0  0  0  0  0  0  0  0  0  0  0
    0.3059   -1.4006   -1.5483 H   0  0  0  0  0  0  0  0  0  0  0  0
    2.1021   -0.5535   -1.9883 H   0  0  0  0  0  0  0  0  0  0  0  0
    2.8718   -1.4159   -0.6149 H   0  0  0  0  0  0  0  0  0  0  0  0
    4.6036   -0.3159   -1.7435 H   0  0  0  0  0  0  0  0  0  0  0  0
    3.7330    1.2228   -1.8875 H   0  0  0  0  0  0  0  0  0  0  0  0
    1.4706    2.1207    0.8960 H   0  0  0  0  0  0  0  0  0  0  0  0
    2.2937    2.1224   -0.6480 H   0  0  0  0  0  0  0  0  0  0  0  0
  1  2  1  0
  2  3  1  0
  3  4  1  0
  4  5  1  0
  5  6  2  0
  6  7  1  0
  6  8  1  0
  8  9  2  0
  9 10  1  0
  9 11  1  0
 11 12  1  0
 11 13  2  0
  4 14  1  0
 14 15  1  0
 14 16  1  0
  1 17  1  0
 17 18  1  0
 18 19  1  0
 19 20  1  0
 20 21  1  0
 21 22  1  0
 21 23  2  0
 23 24  1  0
 24 25  2  0
 25 26  1  0
 26 27  1  0
 26 28  1  0
 26 29  1  0
 16  1  1  0
 22 17  1  0
 13  5  1  0
 25 20  1  0
  1 30  1  1
  2 31  1  0
  2 32  1  0
  3 33  1  0
  3 34  1  0
  4 35  1  6
  8 36  1  0
 13 37  1  0
 14 38  1  1
 15 39  1  0
 15 40  1  0
 16 41  1  0
 16 42  1  0
 18 43  1  0
 18 44  1  0
 19 45  1  0
 19 46  1  0
 22 47  1  0
 22 48  1  0
M  END
$$$$
