@<TRIPOS>MOLECULE
*****
 67 70 0 0 0
SMALL
GASTEIGER

@<TRIPOS>ATOM
      1 C         -11.2247   -1.1947   -0.3889 C.3     1  UNL1       -0.0022
      2 C         -10.2767   -0.8813   -1.4763 C.1     1  UNL1       -0.1003
      3 C          -9.4969   -0.6010   -2.3846 C.1     1  UNL1       -0.0659
      4 C          -8.5775   -0.2901   -3.4239 C.ar    1  UNL1        0.0359
      5 C          -9.0451   -0.0508   -4.7289 C.ar    1  UNL1       -0.0455
      6 C          -8.2225    0.2875   -5.7622 C.ar    1  UNL1       -0.0571
      7 C          -6.8702    0.4053   -5.5376 C.ar    1  UNL1       -0.0187
      8 C          -6.3808    0.1800   -4.2876 C.ar    1  UNL1        0.1373
      9 O          -5.1335    0.2303   -3.8281 O.2     1  UNL1       -0.4499
     10 C          -5.1278   -0.0627   -2.5521 C.ar    1  UNL1        0.1937
     11 C          -3.8702   -0.0801   -1.7818 C.2     1  UNL1        0.2839
     12 O          -3.8842   -0.6437   -0.6685 O.2     1  UNL1       -0.2665
     13 N          -2.6910    0.5050   -2.2495 N.am    1  UNL1       -0.2790
     14 C          -1.4401    0.5396   -1.5956 C.ar    1  UNL1        0.0338
     15 C          -0.3901   -0.2917   -1.8082 C.ar    1  UNL1       -0.0399
     16 C           0.7904   -0.1677   -1.0975 C.ar    1  UNL1       -0.0523
     17 C           0.9719    0.7952   -0.1400 C.ar    1  UNL1       -0.0178
     18 C           2.2141    0.9859    0.6070 C.ar    1  UNL1       -0.0178
     19 C           3.4511    0.7488    0.0690 C.ar    1  UNL1       -0.0522
     20 C           4.5834    0.9753    0.8502 C.ar    1  UNL1       -0.0348
     21 C           4.5322    1.4300    2.1513 C.ar    1  UNL1        0.1053
     22 S           5.9334    1.7591    3.1304 S.O2    1  UNL1        0.0591
     23 O           5.4699    2.6769    4.2598 O.2     1  UNL1       -0.1530
     24 O           6.9106    2.4947    2.2511 O.2     1  UNL1       -0.1530
     25 N           6.6377    0.4041    3.8604 N.3     1  UNL1       -0.1759
     26 C           7.1398   -0.6024    2.9852 C.3     1  UNL1        0.1276
     27 C           6.5390   -1.9483    3.2955 C.2     1  UNL1        0.3238
     28 O           5.7323   -2.0577    4.2702 O.2     1  UNL1       -0.2492
     29 O           6.8482   -3.0615    2.5412 O.3     1  UNL1       -0.4795
     30 C           8.6518   -0.7746    3.1288 C.3     1  UNL1       -0.0194
     31 C           9.3676    0.5328    2.7991 C.3     1  UNL1       -0.0607
     32 C           9.0960   -1.7746    2.0911 C.3     1  UNL1       -0.0607
     33 C           3.2666    1.6544    2.6559 C.ar    1  UNL1       -0.0348
     34 C           2.1257    1.4401    1.9079 C.ar    1  UNL1       -0.0522
     35 C          -0.1004    1.6599    0.0939 C.ar    1  UNL1       -0.0523
     36 C          -1.2694    1.5343   -0.6136 C.ar    1  UNL1       -0.0399
     37 C          -6.4131   -0.3153   -2.1493 C.ar    1  UNL1        0.0088
     38 C          -6.8290   -0.6643   -0.7802 C.3     1  UNL1       -0.0353
     39 C          -7.2200   -0.1640   -3.2415 C.ar    1  UNL1        0.0392
     40 H         -11.9917   -0.3873   -0.3216 H       1  UNL1        0.0362
     41 H         -10.7051   -1.3854    0.5537 H       1  UNL1        0.0362
     42 H         -11.8131   -2.1181   -0.6340 H       1  UNL1        0.0362
     43 H         -10.1336   -0.1597   -4.8484 H       1  UNL1        0.0630
     44 H          -8.6151    0.4641   -6.7505 H       1  UNL1        0.0619
     45 H          -6.1689    0.6733   -6.3270 H       1  UNL1        0.0654
     46 H          -2.7397    0.9767   -3.2021 H       1  UNL1        0.1552
     47 H          -0.4917   -1.0697   -2.5570 H       1  UNL1        0.0636
     48 H           1.6254   -0.8464   -1.2838 H       1  UNL1        0.0624
     49 H           3.5184    0.3925   -0.9497 H       1  UNL1        0.0624
     50 H           5.5442    0.7858    0.4122 H       1  UNL1        0.0637
     51 H           6.2377    0.0437    4.7175 H       1  UNL1        0.1489
     52 H           6.9743   -0.3452    1.9339 H       1  UNL1        0.0595
     53 H           6.1433   -3.7517    2.3406 H       1  UNL1        0.2951
     54 H           8.9205   -1.1401    4.1374 H       1  UNL1        0.0316
     55 H           9.0983    0.8510    1.7710 H       1  UNL1        0.0233
     56 H          10.4586    0.2973    2.7885 H       1  UNL1        0.0233
     57 H           9.1859    1.3072    3.5617 H       1  UNL1        0.0233
     58 H          10.1003   -1.5139    1.6908 H       1  UNL1        0.0233
     59 H           9.1336   -2.7752    2.5736 H       1  UNL1        0.0233
     60 H           8.3646   -1.7873    1.2644 H       1  UNL1        0.0233
     61 H           3.1259    2.0108    3.6688 H       1  UNL1        0.0637
     62 H           1.1495    1.6198    2.3238 H       1  UNL1        0.0624
     63 H           0.0248    2.4308    0.8535 H       1  UNL1        0.0624
     64 H          -2.0996    2.2134   -0.4277 H       1  UNL1        0.0636
     65 H          -7.8210   -0.3424   -0.4800 H       1  UNL1        0.0279
     66 H          -6.7695   -1.7798   -0.6870 H       1  UNL1        0.0279
     67 H          -6.0551   -0.2770   -0.0528 H       1  UNL1        0.0279
@<TRIPOS>BOND
     1     1     2    1
     2     2     3    3
     3     3     4    1
     4     4     5   ar
     5     5     6   ar
     6     6     7   ar
     7     7     8   ar
     8     8     9   ar
     9     9    10   ar
    10    10    11    1
    11    11    12    2
    12    11    13   am
    13    13    14    1
    14    14    15   ar
    15    15    16   ar
    16    16    17   ar
    17    17    18    1
    18    18    19   ar
    19    19    20   ar
    20    20    21   ar
    21    21    22    1
    22    22    23    2
    23    22    24    2
    24    22    25    1
    25    25    26    1
    26    26    27    1
    27    27    28    2
    28    27    29    1
    29    26    30    1
    30    30    31    1
    31    30    32    1
    32    21    33   ar
    33    33    34   ar
    34    17    35   ar
    35    35    36   ar
    36    10    37   ar
    37    37    38    1
    38    37    39   ar
    39    39     4   ar
    40    39     8   ar
    41    36    14   ar
    42    34    18   ar
    43     1    40    1
    44     1    41    1
    45     1    42    1
    46     5    43    1
    47     6    44    1
    48     7    45    1
    49    13    46    1
    50    15    47    1
    51    16    48    1
    52    19    49    1
    53    20    50    1
    54    25    51    1
    55    26    52    1
    56    29    53    1
    57    30    54    1
    58    31    55    1
    59    31    56    1
    60    31    57    1
    61    32    58    1
    62    32    59    1
    63    32    60    1
    64    33    61    1
    65    34    62    1
    66    35    63    1
    67    36    64    1
    68    38    65    1
    69    38    66    1
    70    38    67    1
