
     RDKit          3D

 52 54  0  0  0  0  0  0  0  0999 V2000
    7.4471    2.1310   -1.4906 C   0  0  0  0  0  0  0  0  0  0  0  0
    6.3049    1.2792   -1.5084 O   0  0  0  0  0  0  0  0  0  0  0  0
    5.8671    0.6664   -0.3107 C   0  0  0  0  0  0  0  0  0  0  0  0
    6.5346    0.9252    0.7046 O   0  0  0  0  0  0  0  0  0  0  0  0
    4.7474   -0.1761   -0.2958 N   0  0  0  0  0  0  0  0  0  0  0  0
    4.0852   -0.4383   -1.5907 C   0  0  0  0  0  0  0  0  0  0  0  0
    4.7089   -1.6385   -2.2051 C   0  0  0  0  0  0  0  0  0  0  0  0
    4.3433   -2.0931   -3.3169 O   0  0  0  0  0  0  0  0  0  0  0  0
    5.7351   -2.3002   -1.5470 O   0  0  0  0  0  0  0  0  0  0  0  0
    4.1336   -0.8024    0.8332 C   0  0  0  0  0  0  0  0  0  0  0  0
    3.0472    0.0309    1.3760 C   0  0  0  0  0  0  0  0  0  0  0  0
    1.7234   -0.2867    1.0031 C   0  0  0  0  0  0  0  0  0  0  0  0
    0.6316    0.4197    1.4224 C   0  0  0  0  0  0  0  0  0  0  0  0
   -0.6375    0.0539    1.0191 O   0  0  0  0  0  0  0  0  0  0  0  0
   -1.7236    0.8176    1.4825 C   0  0  0  0  0  0  0  0  0  0  0  0
   -3.0183    0.3197    0.9817 C   0  0  0  0  0  0  0  0  0  0  0  0
   -3.8441    0.7753    0.0239 N   0  0  0  0  0  0  0  0  0  0  0  0
   -4.9091   -0.0281   -0.0600 C   0  0  0  0  0  0  0  0  0  0  0  0
   -6.0665    0.0713   -0.9558 C   0  0  0  0  0  0  0  0  0  0  0  0
   -6.1840    1.0840   -1.8802 C   0  0  0  0  0  0  0  0  0  0  0  0
   -7.3012    1.1474   -2.7176 C   0  0  0  0  0  0  0  0  0  0  0  0
   -8.2937    0.2109   -2.6362 C   0  0  0  0  0  0  0  0  0  0  0  0
   -9.7260    0.2521   -3.6744 Cl  0  0  0  0  0  0  0  0  0  0  0  0
   -8.1956   -0.8171   -1.7128 C   0  0  0  0  0  0  0  0  0  0  0  0
   -7.0895   -0.8525   -0.9065 C   0  0  0  0  0  0  0  0  0  0  0  0
   -4.7417   -0.9554    0.8250 O   0  0  0  0  0  0  0  0  0  0  0  0
   -3.6224   -0.8105    1.4921 C   0  0  0  0  0  0  0  0  0  0  0  0
   -3.0982   -1.6959    2.5932 C   0  0  0  0  0  0  0  0  0  0  0  0
    0.8796    1.4974    2.2565 C   0  0  0  0  0  0  0  0  0  0  0  0
    2.1453    1.8402    2.6433 C   0  0  0  0  0  0  0  0  0  0  0  0
    3.2390    1.0973    2.1975 C   0  0  0  0  0  0  0  0  0  0  0  0
    4.4756    1.4500    2.6251 F   0  0  0  0  0  0  0  0  0  0  0  0
    7.3261    2.8530   -0.6501 H   0  0  0  0  0  0  0  0  0  0  0  0
    8.3447    1.5100   -1.3233 H   0  0  0  0  0  0  0  0  0  0  0  0
    7.5007    2.6613   -2.4461 H   0  0  0  0  0  0  0  0  0  0  0  0
    3.0110   -0.5700   -1.4575 H   0  0  0  0  0  0  0  0  0  0  0  0
    4.3113    0.4098   -2.2526 H   0  0  0  0  0  0  0  0  0  0  0  0
    6.3407   -2.9777   -2.0111 H   0  0  0  0  0  0  0  0  0  0  0  0
    3.7207   -1.8058    0.5422 H   0  0  0  0  0  0  0  0  0  0  0  0
    4.8976   -0.9918    1.6410 H   0  0  0  0  0  0  0  0  0  0  0  0
    1.6005   -1.1410    0.3576 H   0  0  0  0  0  0  0  0  0  0  0  0
   -1.5446    1.8738    1.1983 H   0  0  0  0  0  0  0  0  0  0  0  0
   -1.7340    0.7509    2.5917 H   0  0  0  0  0  0  0  0  0  0  0  0
   -5.4317    1.8403   -1.9798 H   0  0  0  0  0  0  0  0  0  0  0  0
   -7.4213    1.9344   -3.4559 H   0  0  0  0  0  0  0  0  0  0  0  0
   -8.9922   -1.5643   -1.6505 H   0  0  0  0  0  0  0  0  0  0  0  0
   -6.9895   -1.6416   -0.1804 H   0  0  0  0  0  0  0  0  0  0  0  0
   -2.8084   -1.0935    3.4810 H   0  0  0  0  0  0  0  0  0  0  0  0
   -3.8951   -2.4043    2.8482 H   0  0  0  0  0  0  0  0  0  0  0  0
   -2.1886   -2.1816    2.2017 H   0  0  0  0  0  0  0  0  0  0  0  0
    0.0146    2.0597    2.5892 H   0  0  0  0  0  0  0  0  0  0  0  0
    2.3397    2.6690    3.2860 H   0  0  0  0  0  0  0  0  0  0  0  0
  1  2  1  0
  2  3  1  0
  3  4  2  0
  3  5  1  0
  5  6  1  0
  6  7  1  0
  7  8  2  0
  7  9  1  0
  5 10  1  0
 10 11  1  0
 11 12  2  0
 12 13  1  0
 13 14  1  0
 14 15  1  0
 15 16  1  0
 16 17  1  0
 17 18  2  0
 18 19  1  0
 19 20  2  0
 20 21  1  0
 21 22  2  0
 22 23  1  0
 22 24  1  0
 24 25  2  0
 18 26  1  0
 26 27  1  0
 27 28  1  0
 13 29  2  0
 29 30  1  0
 30 31  2  0
 31 32  1  0
 31 11  1  0
 27 16  2  0
 25 19  1  0
  1 33  1  0
  1 34  1  0
  1 35  1  0
  6 36  1  0
  6 37  1  0
  9 38  1  0
 10 39  1  0
 10 40  1  0
 12 41  1  0
 15 42  1  0
 15 43  1  0
 20 44  1  0
 21 45  1  0
 24 46  1  0
 25 47  1  0
 28 48  1  0
 28 49  1  0
 28 50  1  0
 29 51  1  0
 30 52  1  0
M  END
$$$$
