@<TRIPOS>MOLECULE
*****
 52 54 0 0 0
SMALL
GASTEIGER

@<TRIPOS>ATOM
      1 C           7.4471    2.1310   -1.4906 C.3     1  UNL1        0.0833
      2 O           6.3049    1.2792   -1.5084 O.3     1  UNL1       -0.4535
      3 C           5.8671    0.6664   -0.3107 C.2     1  UNL1        0.4034
      4 O           6.5346    0.9252    0.7046 O.2     1  UNL1       -0.2262
      5 N           4.7474   -0.1761   -0.2958 N.am    1  UNL1       -0.2523
      6 C           4.0852   -0.4383   -1.5907 C.3     1  UNL1        0.1151
      7 C           4.7089   -1.6385   -2.2051 C.2     1  UNL1        0.3224
      8 O           4.3433   -2.0931   -3.3169 O.2     1  UNL1       -0.2492
      9 O           5.7351   -2.3002   -1.5470 O.3     1  UNL1       -0.4795
     10 C           4.1336   -0.8024    0.8332 C.3     1  UNL1        0.0463
     11 C           3.0472    0.0309    1.3760 C.ar    1  UNL1        0.0086
     12 C           1.7234   -0.2867    1.0031 C.ar    1  UNL1       -0.0125
     13 C           0.6316    0.4197    1.4224 C.ar    1  UNL1        0.1215
     14 O          -0.6375    0.0539    1.0191 O.3     1  UNL1       -0.4857
     15 C          -1.7236    0.8176    1.4825 C.3     1  UNL1        0.1347
     16 C          -3.0183    0.3197    0.9817 C.ar    1  UNL1        0.1198
     17 N          -3.8441    0.7753    0.0239 N.ar    1  UNL1       -0.2103
     18 C          -4.9091   -0.0281   -0.0600 C.ar    1  UNL1        0.2278
     19 C          -6.0665    0.0713   -0.9558 C.ar    1  UNL1        0.0370
     20 C          -6.1840    1.0840   -1.8802 C.ar    1  UNL1       -0.0481
     21 C          -7.3012    1.1474   -2.7176 C.ar    1  UNL1       -0.0427
     22 C          -8.2937    0.2109   -2.6362 C.ar    1  UNL1        0.0410
     23 CL         -9.7260    0.2521   -3.6744 Cl      1  UNL1       -0.0835
     24 C          -8.1956   -0.8171   -1.7128 C.ar    1  UNL1       -0.0427
     25 C          -7.0895   -0.8525   -0.9065 C.ar    1  UNL1       -0.0481
     26 O          -4.7417   -0.9554    0.8250 O.2     1  UNL1       -0.4401
     27 C          -3.6224   -0.8105    1.4921 C.ar    1  UNL1        0.1291
     28 C          -3.0982   -1.6959    2.5932 C.3     1  UNL1       -0.0044
     29 C           0.8796    1.4974    2.2565 C.ar    1  UNL1       -0.0172
     30 C           2.1453    1.8402    2.6433 C.ar    1  UNL1       -0.0227
     31 C           3.2390    1.0973    2.1975 C.ar    1  UNL1        0.1283
     32 F           4.4756    1.4500    2.6251 F       1  UNL1       -0.2051
     33 H           7.3261    2.8530   -0.6501 H       1  UNL1        0.0661
     34 H           8.3447    1.5100   -1.3233 H       1  UNL1        0.0661
     35 H           7.5007    2.6613   -2.4461 H       1  UNL1        0.0661
     36 H           3.0110   -0.5700   -1.4575 H       1  UNL1        0.0581
     37 H           4.3113    0.4098   -2.2526 H       1  UNL1        0.0581
     38 H           6.3407   -2.9777   -2.0111 H       1  UNL1        0.2951
     39 H           3.7207   -1.8058    0.5422 H       1  UNL1        0.0516
     40 H           4.8976   -0.9918    1.6410 H       1  UNL1        0.0516
     41 H           1.6005   -1.1410    0.3576 H       1  UNL1        0.0658
     42 H          -1.5446    1.8738    1.1983 H       1  UNL1        0.0764
     43 H          -1.7340    0.7509    2.5917 H       1  UNL1        0.0764
     44 H          -5.4317    1.8403   -1.9798 H       1  UNL1        0.0626
     45 H          -7.4213    1.9344   -3.4559 H       1  UNL1        0.0632
     46 H          -8.9922   -1.5643   -1.6505 H       1  UNL1        0.0632
     47 H          -6.9895   -1.6416   -0.1804 H       1  UNL1        0.0626
     48 H          -2.8084   -1.0935    3.4810 H       1  UNL1        0.0308
     49 H          -3.8951   -2.4043    2.8482 H       1  UNL1        0.0308
     50 H          -2.1886   -2.1816    2.2017 H       1  UNL1        0.0308
     51 H           0.0146    2.0597    2.5892 H       1  UNL1        0.0655
     52 H           2.3397    2.6690    3.2860 H       1  UNL1        0.0647
@<TRIPOS>BOND
     1     1     2    1
     2     2     3    1
     3     3     4    2
     4     3     5   am
     5     5     6    1
     6     6     7    1
     7     7     8    2
     8     7     9    1
     9     5    10    1
    10    10    11    1
    11    11    12   ar
    12    12    13   ar
    13    13    14    1
    14    14    15    1
    15    15    16    1
    16    16    17   ar
    17    17    18   ar
    18    18    19    1
    19    19    20   ar
    20    20    21   ar
    21    21    22   ar
    22    22    23    1
    23    22    24   ar
    24    24    25   ar
    25    18    26   ar
    26    26    27   ar
    27    27    28    1
    28    13    29   ar
    29    29    30   ar
    30    30    31   ar
    31    31    32    1
    32    31    11   ar
    33    27    16   ar
    34    25    19   ar
    35     1    33    1
    36     1    34    1
    37     1    35    1
    38     6    36    1
    39     6    37    1
    40     9    38    1
    41    10    39    1
    42    10    40    1
    43    12    41    1
    44    15    42    1
    45    15    43    1
    46    20    44    1
    47    21    45    1
    48    24    46    1
    49    25    47    1
    50    28    48    1
    51    28    49    1
    52    28    50    1
    53    29    51    1
    54    30    52    1
