@<TRIPOS>MOLECULE
*****
 9 8 0 0 0
SMALL
GASTEIGER

@<TRIPOS>ATOM
      1 C           0.8745    0.0295   -0.0450 C.3     1  UNL1       -0.0423
      2 C          -0.5387   -0.5444   -0.0256 C.3     1  UNL1        0.0783
      3 N          -1.3784    0.5479    0.4172 N.2     1  UNL1       -0.0694
      4 O          -1.1517    1.6327   -0.0467 O.2     1  UNL1       -0.1490
      5 H           0.9628    0.5336    0.9508 H       1  UNL1        0.0248
      6 H           0.9977    0.8208   -0.7964 H       1  UNL1        0.0248
      7 H           1.6441   -0.7533   -0.1110 H       1  UNL1        0.0248
      8 H          -0.5442   -1.3881    0.6758 H       1  UNL1        0.0540
      9 H          -0.8660   -0.8787   -1.0192 H       1  UNL1        0.0540
@<TRIPOS>BOND
     1     1     2    1
     2     2     3    1
     3     3     4    2
     4     1     5    1
     5     1     6    1
     6     1     7    1
     7     2     8    1
     8     2     9    1
