@<TRIPOS>MOLECULE
*****
 76 81 0 0 0
SMALL
GASTEIGER

@<TRIPOS>ATOM
      1 C          -3.2866   -1.4700    7.1861 C.3     1  UNL1        0.0804
      2 O          -2.4366   -0.9397    6.1885 O.3     1  UNL1       -0.4795
      3 C          -2.4395   -1.4129    4.9017 C.ar    1  UNL1        0.2191
      4 C          -1.6446   -0.9389    3.9018 C.ar    1  UNL1        0.0404
      5 C          -1.6735   -1.4438    2.6060 C.ar    1  UNL1        0.1364
      6 N          -0.8537   -0.9502    1.5757 N.am    1  UNL1       -0.2240
      7 C           0.4695   -1.3364    1.1615 C.2     1  UNL1        0.3219
      8 O           0.8927   -2.4995    1.3686 O.2     1  UNL1       -0.2512
      9 N           1.0935   -0.2146    0.5406 N.am    1  UNL1       -0.1920
     10 C           2.3864   -0.1515   -0.0064 C.ar    1  UNL1        0.0455
     11 C           3.2112   -1.2477    0.0266 C.ar    1  UNL1       -0.0392
     12 C           4.4990   -1.2033   -0.5131 C.ar    1  UNL1       -0.0523
     13 C           4.9752   -0.0674   -1.0898 C.ar    1  UNL1       -0.0175
     14 C           6.3105   -0.0449   -1.6498 C.ar    1  UNL1       -0.0149
     15 C           6.6521   -1.1004   -2.4861 C.ar    1  UNL1       -0.0530
     16 C           7.9005   -1.1046   -3.0362 C.ar    1  UNL1       -0.0472
     17 C           8.7917   -0.1011   -2.7741 C.ar    1  UNL1        0.0591
     18 C          10.1125   -0.1234   -3.3678 C.2     1  UNL1        0.3368
     19 O          10.9451    0.7995   -3.1326 O.2     1  UNL1       -0.2451
     20 O          10.4696   -1.1661   -4.2028 O.3     1  UNL1       -0.4771
     21 C           8.4475    0.9489   -1.9400 C.ar    1  UNL1       -0.0443
     22 C           7.1838    0.9563   -1.3810 C.ar    1  UNL1       -0.0420
     23 C           6.8366    2.0809   -0.4868 C.3     1  UNL1       -0.0391
     24 C           4.1445    1.0280   -1.1204 C.ar    1  UNL1       -0.0523
     25 C           2.8629    0.9961   -0.5872 C.ar    1  UNL1       -0.0392
     26 C           0.1058    0.8405    0.5999 C.2     1  UNL1        0.2516
     27 O           0.3589    2.0576    0.6065 O.2     1  UNL1       -0.2724
     28 C          -1.1998    0.1317    0.6477 C.3     1  UNL1        0.1240
     29 C          -2.3422    0.9573    1.1053 C.3     1  UNL1       -0.0095
     30 C          -3.3764    1.2739    0.0792 C.3     1  UNL1        0.0017
     31 N          -3.7816    0.1965   -0.7524 N.3     1  UNL1       -0.2965
     32 C          -5.1160   -0.2762   -0.5719 C.3     1  UNL1        0.0415
     33 C          -6.1742    0.7075   -0.8106 C.ar    1  UNL1        0.0581
     34 N          -6.8043    1.2570    0.2408 N.ar    1  UNL1       -0.2583
     35 C          -7.7752    2.1560    0.0860 C.ar    1  UNL1        0.0279
     36 C          -8.1608    2.5482   -1.1675 C.ar    1  UNL1       -0.0433
     37 C          -7.5298    1.9992   -2.2592 C.ar    1  UNL1       -0.0557
     38 C          -6.5223    1.0657   -2.0779 C.ar    1  UNL1       -0.0279
     39 C          -5.8409    0.4722   -3.2354 C.3     1  UNL1       -0.0380
     40 C          -2.8361   -0.8445   -0.9525 C.3     1  UNL1        0.0017
     41 C          -1.4158   -0.4588   -0.7280 C.3     1  UNL1       -0.0095
     42 N          -2.5355   -2.4405    2.3712 N.ar    1  UNL1       -0.2200
     43 C          -3.3253   -2.9189    3.3433 C.ar    1  UNL1        0.1219
     44 N          -3.2889   -2.4235    4.5917 N.ar    1  UNL1       -0.2013
     45 H          -4.0461   -0.6855    7.4017 H       1  UNL1        0.0660
     46 H          -2.6897   -1.6589    8.1242 H       1  UNL1        0.0660
     47 H          -3.8364   -2.3684    6.8646 H       1  UNL1        0.0660
     48 H          -0.9517   -0.1312    4.1081 H       1  UNL1        0.0705
     49 H           2.9451   -2.1923    0.4533 H       1  UNL1        0.0636
     50 H           5.1559   -2.0759   -0.4868 H       1  UNL1        0.0624
     51 H           5.9637   -1.8899   -2.6980 H       1  UNL1        0.0624
     52 H           8.1936   -1.9223   -3.6963 H       1  UNL1        0.0626
     53 H          11.1597   -0.9982   -4.9301 H       1  UNL1        0.2954
     54 H           9.1493    1.7297   -1.7399 H       1  UNL1        0.0628
     55 H           6.0573    1.8015    0.2277 H       1  UNL1        0.0278
     56 H           6.6083    2.9588   -1.1093 H       1  UNL1        0.0278
     57 H           7.7321    2.3683    0.1157 H       1  UNL1        0.0278
     58 H           4.5043    1.9387   -1.5789 H       1  UNL1        0.0624
     59 H           2.2975    1.8954   -0.6604 H       1  UNL1        0.0636
     60 H          -1.9314    1.9417    1.4728 H       1  UNL1        0.0303
     61 H          -2.8047    0.4826    1.9945 H       1  UNL1        0.0303
     62 H          -4.2937    1.6292    0.6350 H       1  UNL1        0.0427
     63 H          -3.0766    2.1695   -0.5332 H       1  UNL1        0.0427
     64 H          -5.2500   -0.7922    0.4226 H       1  UNL1        0.0491
     65 H          -5.2665   -1.1040   -1.3211 H       1  UNL1        0.0491
     66 H          -8.2840    2.5994    0.9401 H       1  UNL1        0.0829
     67 H          -8.9491    3.2791   -1.3367 H       1  UNL1        0.0633
     68 H          -7.7961    2.2742   -3.2628 H       1  UNL1        0.0621
     69 H          -4.7388    0.6011   -3.2100 H       1  UNL1        0.0278
     70 H          -6.1065   -0.6044   -3.3269 H       1  UNL1        0.0278
     71 H          -6.1768    0.9477   -4.1918 H       1  UNL1        0.0278
     72 H          -3.0883   -1.7215   -0.3167 H       1  UNL1        0.0427
     73 H          -2.9228   -1.1692   -2.0308 H       1  UNL1        0.0427
     74 H          -0.7929   -1.3869   -0.7764 H       1  UNL1        0.0303
     75 H          -1.0267    0.2154   -1.5187 H       1  UNL1        0.0303
     76 H          -4.0278   -3.7258    3.1652 H       1  UNL1        0.1049
@<TRIPOS>BOND
     1     1     2    1
     2     2     3    1
     3     3     4   ar
     4     4     5   ar
     5     5     6    1
     6     6     7   am
     7     7     8    2
     8     7     9   am
     9     9    10    1
    10    10    11   ar
    11    11    12   ar
    12    12    13   ar
    13    13    14    1
    14    14    15   ar
    15    15    16   ar
    16    16    17   ar
    17    17    18    1
    18    18    19    2
    19    18    20    1
    20    17    21   ar
    21    21    22   ar
    22    22    23    1
    23    13    24   ar
    24    24    25   ar
    25     9    26   am
    26    26    27    2
    27    26    28    1
    28    28    29    1
    29    29    30    1
    30    30    31    1
    31    31    32    1
    32    32    33    1
    33    33    34   ar
    34    34    35   ar
    35    35    36   ar
    36    36    37   ar
    37    37    38   ar
    38    38    39    1
    39    31    40    1
    40    40    41    1
    41     5    42   ar
    42    42    43   ar
    43    43    44   ar
    44    44     3   ar
    45    28     6    1
    46    38    33   ar
    47    25    10   ar
    48    41    28    1
    49    22    14   ar
    50     1    45    1
    51     1    46    1
    52     1    47    1
    53     4    48    1
    54    11    49    1
    55    12    50    1
    56    15    51    1
    57    16    52    1
    58    20    53    1
    59    21    54    1
    60    23    55    1
    61    23    56    1
    62    23    57    1
    63    24    58    1
    64    25    59    1
    65    29    60    1
    66    29    61    1
    67    30    62    1
    68    30    63    1
    69    32    64    1
    70    32    65    1
    71    35    66    1
    72    36    67    1
    73    37    68    1
    74    39    69    1
    75    39    70    1
    76    39    71    1
    77    40    72    1
    78    40    73    1
    79    41    74    1
    80    41    75    1
    81    43    76    1
