
     RDKit          3D

 76 81  0  0  0  0  0  0  0  0999 V2000
   -3.2866   -1.4700    7.1861 C   0  0  0  0  0  0  0  0  0  0  0  0
   -2.4366   -0.9397    6.1885 O   0  0  0  0  0  0  0  0  0  0  0  0
   -2.4395   -1.4129    4.9017 C   0  0  0  0  0  0  0  0  0  0  0  0
   -1.6446   -0.9389    3.9018 C   0  0  0  0  0  0  0  0  0  0  0  0
   -1.6735   -1.4438    2.6060 C   0  0  0  0  0  0  0  0  0  0  0  0
   -0.8537   -0.9502    1.5757 N   0  0  0  0  0  0  0  0  0  0  0  0
    0.4695   -1.3364    1.1615 C   0  0  0  0  0  0  0  0  0  0  0  0
    0.8927   -2.4995    1.3686 O   0  0  0  0  0  0  0  0  0  0  0  0
    1.0935   -0.2146    0.5406 N   0  0  0  0  0  0  0  0  0  0  0  0
    2.3864   -0.1515   -0.0064 C   0  0  0  0  0  0  0  0  0  0  0  0
    3.2112   -1.2477    0.0266 C   0  0  0  0  0  0  0  0  0  0  0  0
    4.4990   -1.2033   -0.5131 C   0  0  0  0  0  0  0  0  0  0  0  0
    4.9752   -0.0674   -1.0898 C   0  0  0  0  0  0  0  0  0  0  0  0
    6.3105   -0.0449   -1.6498 C   0  0  0  0  0  0  0  0  0  0  0  0
    6.6521   -1.1004   -2.4861 C   0  0  0  0  0  0  0  0  0  0  0  0
    7.9005   -1.1046   -3.0362 C   0  0  0  0  0  0  0  0  0  0  0  0
    8.7917   -0.1011   -2.7741 C   0  0  0  0  0  0  0  0  0  0  0  0
   10.1125   -0.1234   -3.3678 C   0  0  0  0  0  0  0  0  0  0  0  0
   10.9451    0.7995   -3.1326 O   0  0  0  0  0  0  0  0  0  0  0  0
   10.4696   -1.1661   -4.2028 O   0  0  0  0  0  0  0  0  0  0  0  0
    8.4475    0.9489   -1.9400 C   0  0  0  0  0  0  0  0  0  0  0  0
    7.1838    0.9563   -1.3810 C   0  0  0  0  0  0  0  0  0  0  0  0
    6.8366    2.0809   -0.4868 C   0  0  0  0  0  0  0  0  0  0  0  0
    4.1445    1.0280   -1.1204 C   0  0  0  0  0  0  0  0  0  0  0  0
    2.8629    0.9961   -0.5872 C   0  0  0  0  0  0  0  0  0  0  0  0
    0.1058    0.8405    0.5999 C   0  0  0  0  0  0  0  0  0  0  0  0
    0.3589    2.0576    0.6065 O   0  0  0  0  0  0  0  0  0  0  0  0
   -1.1998    0.1317    0.6477 C   0  0  0  0  0  0  0  0  0  0  0  0
   -2.3422    0.9573    1.1053 C   0  0  0  0  0  0  0  0  0  0  0  0
   -3.3764    1.2739    0.0792 C   0  0  0  0  0  0  0  0  0  0  0  0
   -3.7816    0.1965   -0.7524 N   0  0  0  0  0  0  0  0  0  0  0  0
   -5.1160   -0.2762   -0.5719 C   0  0  0  0  0  0  0  0  0  0  0  0
   -6.1742    0.7075   -0.8106 C   0  0  0  0  0  0  0  0  0  0  0  0
   -6.8043    1.2570    0.2408 N   0  0  0  0  0  0  0  0  0  0  0  0
   -7.7752    2.1560    0.0860 C   0  0  0  0  0  0  0  0  0  0  0  0
   -8.1608    2.5482   -1.1675 C   0  0  0  0  0  0  0  0  0  0  0  0
   -7.5298    1.9992   -2.2592 C   0  0  0  0  0  0  0  0  0  0  0  0
   -6.5223    1.0657   -2.0779 C   0  0  0  0  0  0  0  0  0  0  0  0
   -5.8409    0.4722   -3.2354 C   0  0  0  0  0  0  0  0  0  0  0  0
   -2.8361   -0.8445   -0.9525 C   0  0  0  0  0  0  0  0  0  0  0  0
   -1.4158   -0.4588   -0.7280 C   0  0  0  0  0  0  0  0  0  0  0  0
   -2.5355   -2.4405    2.3712 N   0  0  0  0  0  0  0  0  0  0  0  0
   -3.3253   -2.9189    3.3433 C   0  0  0  0  0  0  0  0  0  0  0  0
   -3.2889   -2.4235    4.5917 N   0  0  0  0  0  0  0  0  0  0  0  0
   -4.0461   -0.6855    7.4017 H   0  0  0  0  0  0  0  0  0  0  0  0
   -2.6897   -1.6589    8.1242 H   0  0  0  0  0  0  0  0  0  0  0  0
   -3.8364   -2.3684    6.8646 H   0  0  0  0  0  0  0  0  0  0  0  0
   -0.9517   -0.1312    4.1081 H   0  0  0  0  0  0  0  0  0  0  0  0
    2.9451   -2.1923    0.4533 H   0  0  0  0  0  0  0  0  0  0  0  0
    5.1559   -2.0759   -0.4868 H   0  0  0  0  0  0  0  0  0  0  0  0
    5.9637   -1.8899   -2.6980 H   0  0  0  0  0  0  0  0  0  0  0  0
    8.1936   -1.9223   -3.6963 H   0  0  0  0  0  0  0  0  0  0  0  0
   11.1597   -0.9982   -4.9301 H   0  0  0  0  0  0  0  0  0  0  0  0
    9.1493    1.7297   -1.7399 H   0  0  0  0  0  0  0  0  0  0  0  0
    6.0573    1.8015    0.2277 H   0  0  0  0  0  0  0  0  0  0  0  0
    6.6083    2.9588   -1.1093 H   0  0  0  0  0  0  0  0  0  0  0  0
    7.7321    2.3683    0.1157 H   0  0  0  0  0  0  0  0  0  0  0  0
    4.5043    1.9387   -1.5789 H   0  0  0  0  0  0  0  0  0  0  0  0
    2.2975    1.8954   -0.6604 H   0  0  0  0  0  0  0  0  0  0  0  0
   -1.9314    1.9417    1.4728 H   0  0  0  0  0  0  0  0  0  0  0  0
   -2.8047    0.4826    1.9945 H   0  0  0  0  0  0  0  0  0  0  0  0
   -4.2937    1.6292    0.6350 H   0  0  0  0  0  0  0  0  0  0  0  0
   -3.0766    2.1695   -0.5332 H   0  0  0  0  0  0  0  0  0  0  0  0
   -5.2500   -0.7922    0.4226 H   0  0  0  0  0  0  0  0  0  0  0  0
   -5.2665   -1.1040   -1.3211 H   0  0  0  0  0  0  0  0  0  0  0  0
   -8.2840    2.5994    0.9401 H   0  0  0  0  0  0  0  0  0  0  0  0
   -8.9491    3.2791   -1.3367 H   0  0  0  0  0  0  0  0  0  0  0  0
   -7.7961    2.2742   -3.2628 H   0  0  0  0  0  0  0  0  0  0  0  0
   -4.7388    0.6011   -3.2100 H   0  0  0  0  0  0  0  0  0  0  0  0
   -6.1065   -0.6044   -3.3269 H   0  0  0  0  0  0  0  0  0  0  0  0
   -6.1768    0.9477   -4.1918 H   0  0  0  0  0  0  0  0  0  0  0  0
   -3.0883   -1.7215   -0.3167 H   0  0  0  0  0  0  0  0  0  0  0  0
   -2.9228   -1.1692   -2.0308 H   0  0  0  0  0  0  0  0  0  0  0  0
   -0.7929   -1.3869   -0.7764 H   0  0  0  0  0  0  0  0  0  0  0  0
   -1.0267    0.2154   -1.5187 H   0  0  0  0  0  0  0  0  0  0  0  0
   -4.0278   -3.7258    3.1652 H   0  0  0  0  0  0  0  0  0  0  0  0
  1  2  1  0
  2  3  1  0
  3  4  2  0
  4  5  1  0
  5  6  1  0
  6  7  1  0
  7  8  2  0
  7  9  1  0
  9 10  1  0
 10 11  2  0
 11 12  1  0
 12 13  2  0
 13 14  1  0
 14 15  2  0
 15 16  1  0
 16 17  2  0
 17 18  1  0
 18 19  2  0
 18 20  1  0
 17 21  1  0
 21 22  2  0
 22 23  1  0
 13 24  1  0
 24 25  2  0
  9 26  1  0
 26 27  2  0
 26 28  1  0
 28 29  1  0
 29 30  1  0
 30 31  1  0
 31 32  1  0
 32 33  1  0
 33 34  2  0
 34 35  1  0
 35 36  2  0
 36 37  1  0
 37 38  2  0
 38 39  1  0
 31 40  1  0
 40 41  1  0
  5 42  2  0
 42 43  1  0
 43 44  2  0
 44  3  1  0
 28  6  1  0
 38 33  1  0
 25 10  1  0
 41 28  1  0
 22 14  1  0
  1 45  1  0
  1 46  1  0
  1 47  1  0
  4 48  1  0
 11 49  1  0
 12 50  1  0
 15 51  1  0
 16 52  1  0
 20 53  1  0
 21 54  1  0
 23 55  1  0
 23 56  1  0
 23 57  1  0
 24 58  1  0
 25 59  1  0
 29 60  1  0
 29 61  1  0
 30 62  1  0
 30 63  1  0
 32 64  1  0
 32 65  1  0
 35 66  1  0
 36 67  1  0
 37 68  1  0
 39 69  1  0
 39 70  1  0
 39 71  1  0
 40 72  1  0
 40 73  1  0
 41 74  1  0
 41 75  1  0
 43 76  1  0
M  END
$$$$
