@<TRIPOS>MOLECULE
*****
 32 33 0 0 0
SMALL
GASTEIGER

@<TRIPOS>ATOM
      1 C          -4.7036   -0.5576   -0.9084 C.3     1  UNL1       -0.0332
      2 C          -3.5169    0.1875   -0.4720 C.ar    1  UNL1        0.0302
      3 C          -2.2481   -0.3122   -0.6830 C.ar    1  UNL1        0.0199
      4 N          -1.0612    0.2654   -0.3342 N.ar    1  UNL1       -0.2737
      5 C           0.1836   -0.3675   -0.6158 C.3     1  UNL1        0.1420
      6 C           1.2619    0.5065   -1.1583 C.3     1  UNL1        0.0244
      7 C           2.3795    0.2360   -0.1426 C.3     1  UNL1        0.1617
      8 N           3.6897    0.4461   -0.6968 N.2     1  UNL1        0.0825
      9 N           4.3833    1.3812   -0.2425 N.2     1  UNL1       -0.0144
     10 N           4.8885    2.5075   -0.0596 N.2     1  UNL1       -0.3282
     11 C           2.0669   -1.2245    0.1377 C.3     1  UNL1        0.1131
     12 C           2.8603   -1.7687    1.2805 C.3     1  UNL1        0.0727
     13 O           4.1993   -1.8619    0.8544 O.3     1  UNL1       -0.3924
     14 O           0.6963   -1.0890    0.4597 O.3     1  UNL1       -0.3486
     15 C          -1.2216    1.4524    0.2799 C.ar    1  UNL1        0.3313
     16 O          -0.1852    2.0666    0.6420 O.2     1  UNL1       -0.2464
     17 N          -2.4289    2.0181    0.5278 N.ar    1  UNL1       -0.2747
     18 C          -3.5707    1.4101    0.1649 C.ar    1  UNL1        0.2568
     19 O          -4.6979    1.9153    0.3844 O.2     1  UNL1       -0.2674
     20 H          -5.3643   -0.8746   -0.0806 H       1  UNL1        0.0280
     21 H          -4.3919   -1.4399   -1.4801 H       1  UNL1        0.0280
     22 H          -5.2805    0.0948   -1.5898 H       1  UNL1        0.0280
     23 H          -2.1769   -1.2861   -1.1892 H       1  UNL1        0.0816
     24 H          -0.0119   -1.1528   -1.4047 H       1  UNL1        0.0840
     25 H           1.0356    1.5594   -1.2856 H       1  UNL1        0.0332
     26 H           1.6811    0.1497   -2.1257 H       1  UNL1        0.0332
     27 H           2.2448    0.7879    0.7888 H       1  UNL1        0.0643
     28 H           2.2157   -1.8376   -0.7520 H       1  UNL1        0.0643
     29 H           2.7948   -1.1666    2.1925 H       1  UNL1        0.0584
     30 H           2.5294   -2.8162    1.4355 H       1  UNL1        0.0584
     31 H           4.2747   -2.1684   -0.0679 H       1  UNL1        0.2095
     32 H          -2.5256    2.9392    1.0054 H       1  UNL1        0.1734
@<TRIPOS>UNITY_ATOM_ATTR
9 1
charge 1
10 1
charge -1
@<TRIPOS>BOND
     1     1     2    1
     2     2     3   ar
     3     3     4   ar
     4     4     5    1
     5     5     6    1
     6     6     7    1
     7     7     8    1
     8     8     9    2
     9     9    10    2
    10     7    11    1
    11    11    12    1
    12    12    13    1
    13    11    14    1
    14     4    15   ar
    15    15    16    2
    16    15    17   ar
    17    17    18   ar
    18    18    19    2
    19    18     2   ar
    20    14     5    1
    21     1    20    1
    22     1    21    1
    23     1    22    1
    24     3    23    1
    25     5    24    1
    26     6    25    1
    27     6    26    1
    28     7    27    1
    29    11    28    1
    30    12    29    1
    31    12    30    1
    32    13    31    1
    33    17    32    1
