
     RDKit          3D

 70 70  0  0  0  0  0  0  0  0999 V2000
    0.0000    0.0000    0.0000 Na  0  0  0  0  0 15  0  0  0  0  0  0
    0.0000    0.0000    0.0000 Na  0  0  0  0  0 15  0  0  0  0  0  0
    3.8550   -0.4778   -1.5495 N   0  0  0  0  0  0  0  0  0  0  0  0
    4.2817   -0.1863   -0.1935 C   0  0  1  0  0  0  0  0  0  0  0  0
    3.7558    1.1460    0.2780 C   0  0  0  0  0  0  0  0  0  0  0  0
    2.2770    1.2088    0.2740 C   0  0  0  0  0  0  0  0  0  0  0  0
    1.5910    0.8191    1.4295 C   0  0  0  0  0  0  0  0  0  0  0  0
    0.2074    0.8475    1.5092 C   0  0  0  0  0  0  0  0  0  0  0  0
   -0.6722    0.2288    3.3196 I   0  0  0  0  0  0  0  0  0  0  0  0
   -0.5401    1.2749    0.4140 C   0  0  0  0  0  0  0  0  0  0  0  0
   -1.9209    1.2794    0.5598 O   0  0  0  0  0  0  0  0  0  0  0  0
   -2.7665    0.2455    0.2693 C   0  0  0  0  0  0  0  0  0  0  0  0
   -4.1078    0.5398    0.5172 C   0  0  0  0  0  0  0  0  0  0  0  0
   -5.1236   -0.3651    0.2917 C   0  0  0  0  0  0  0  0  0  0  0  0
   -7.1444    0.0936    0.6708 I   0  0  0  0  0  0  0  0  0  0  0  0
   -4.7967   -1.6183   -0.2015 C   0  0  0  0  0  0  0  0  0  0  0  0
   -5.7463   -2.6013   -0.4625 O   0  0  0  0  0  0  0  0  0  0  0  0
   -3.4758   -1.9263   -0.4523 C   0  0  0  0  0  0  0  0  0  0  0  0
   -2.4548   -1.0248   -0.2287 C   0  0  0  0  0  0  0  0  0  0  0  0
    0.1479    1.6518   -0.7063 C   0  0  0  0  0  0  0  0  0  0  0  0
   -1.0159    2.2929   -2.3444 I   0  0  0  0  0  0  0  0  0  0  0  0
    1.5231    1.6243   -0.7877 C   0  0  0  0  0  0  0  0  0  0  0  0
    3.9694   -1.2877    0.7227 C   0  0  0  0  0  0  0  0  0  0  0  0
    2.9993   -2.2280    0.3665 O   0  0  0  0  0  1  0  0  0  0  0  0
    4.6618   -1.2213    1.7576 O   0  0  0  0  0  0  0  0  0  0  0  0
   -4.3710    1.0280   -0.2267 N   0  0  0  0  0  0  0  0  0  0  0  0
   -4.4552   -0.3700    0.1521 C   0  0  1  0  0  0  0  0  0  0  0  0
   -3.3579   -0.6484    1.1492 C   0  0  0  0  0  0  0  0  0  0  0  0
   -2.0483   -0.3500    0.4861 C   0  0  0  0  0  0  0  0  0  0  0  0
   -1.5351    0.9250    0.5834 C   0  0  0  0  0  0  0  0  0  0  0  0
   -0.3359    1.2802    0.0016 C   0  0  0  0  0  0  0  0  0  0  0  0
    0.5276    3.1968    0.0947 I   0  0  0  0  0  0  0  0  0  0  0  0
    0.3826    0.3151   -0.7102 C   0  0  0  0  0  0  0  0  0  0  0  0
    1.5916    0.4927   -1.3525 O   0  0  0  0  0  0  0  0  0  0  0  0
    2.8361    0.3183   -0.8263 C   0  0  0  0  0  0  0  0  0  0  0  0
    3.2213   -0.0732    0.4586 C   0  0  0  0  0  0  0  0  0  0  0  0
    4.5375   -0.1908    0.7927 C   0  0  0  0  0  0  0  0  0  0  0  0
    5.0021   -0.7885    2.7598 I   0  0  0  0  0  0  0  0  0  0  0  0
    5.5437    0.0717   -0.1230 C   0  0  0  0  0  0  0  0  0  0  0  0
    6.8807   -0.0498    0.2230 O   0  0  0  0  0  0  0  0  0  0  0  0
    5.1893    0.4618   -1.4047 C   0  0  0  0  0  0  0  0  0  0  0  0
    6.7448    0.8526   -2.7708 I   0  0  0  0  0  0  0  0  0  0  0  0
    3.8515    0.5761   -1.7271 C   0  0  0  0  0  0  0  0  0  0  0  0
   -0.1451   -0.9564   -0.7980 C   0  0  0  0  0  0  0  0  0  0  0  0
    0.8413   -2.5050   -1.8441 I   0  0  0  0  0  0  0  0  0  0  0  0
   -1.3507   -1.3353   -0.2198 C   0  0  0  0  0  0  0  0  0  0  0  0
   -5.7483   -0.6957    0.7645 C   0  0  0  0  0  0  0  0  0  0  0  0
   -6.7791   -0.8463   -0.1375 O   0  0  0  0  0  1  0  0  0  0  0  0
   -6.0360   -0.8539    1.9945 O   0  0  0  0  0  0  0  0  0  0  0  0
    3.7738    0.3464   -2.1487 H   0  0  0  0  0  0  0  0  0  0  0  0
    4.5599   -1.1314   -1.9554 H   0  0  0  0  0  0  0  0  0  0  0  0
    5.3893   -0.1150   -0.2263 H   0  0  0  0  0  0  0  0  0  0  0  0
    4.2198    1.9543   -0.3205 H   0  0  0  0  0  0  0  0  0  0  0  0
    4.1202    1.3089    1.3132 H   0  0  0  0  0  0  0  0  0  0  0  0
    2.1771    0.4882    2.2764 H   0  0  0  0  0  0  0  0  0  0  0  0
   -4.4607    1.5049    0.9076 H   0  0  0  0  0  0  0  0  0  0  0  0
   -6.7193   -2.5207   -0.2135 H   0  0  0  0  0  0  0  0  0  0  0  0
   -3.1783   -2.9030   -0.8412 H   0  0  0  0  0  0  0  0  0  0  0  0
   -1.4019   -1.1783   -0.3949 H   0  0  0  0  0  0  0  0  0  0  0  0
    2.0154    1.9305   -1.6904 H   0  0  0  0  0  0  0  0  0  0  0  0
   -4.3441    1.6635    0.5932 H   0  0  0  0  0  0  0  0  0  0  0  0
   -5.0874    1.3011   -0.9334 H   0  0  0  0  0  0  0  0  0  0  0  0
   -4.2496   -0.9968   -0.7267 H   0  0  0  0  0  0  0  0  0  0  0  0
   -3.3149   -1.7214    1.4324 H   0  0  0  0  0  0  0  0  0  0  0  0
   -3.4484   -0.0515    2.0803 H   0  0  0  0  0  0  0  0  0  0  0  0
   -1.9995    1.7371    1.1015 H   0  0  0  0  0  0  0  0  0  0  0  0
    2.3635   -0.2577    1.1086 H   0  0  0  0  0  0  0  0  0  0  0  0
    7.1599   -0.5290    1.0610 H   0  0  0  0  0  0  0  0  0  0  0  0
    3.7036    0.8881   -2.7579 H   0  0  0  0  0  0  0  0  0  0  0  0
   -1.7708   -2.3108   -0.2784 H   0  0  0  0  0  0  0  0  0  0  0  0
  3  4  1  0
  4  5  1  0
  5  6  1  0
  6  7  2  0
  7  8  1  0
  8  9  1  0
  8 10  2  0
 10 11  1  0
 11 12  1  0
 12 13  2  0
 13 14  1  0
 14 15  1  0
 14 16  2  0
 16 17  1  0
 16 18  1  0
 18 19  2  0
 10 20  1  0
 20 21  1  0
 20 22  2  0
  4 23  1  0
 23 24  1  0
 23 25  2  0
 26 27  1  0
 27 28  1  0
 28 29  1  0
 29 30  2  0
 30 31  1  0
 31 32  1  0
 31 33  2  0
 33 34  1  0
 34 35  1  0
 35 36  2  0
 36 37  1  0
 37 38  1  0
 37 39  2  0
 39 40  1  0
 39 41  1  0
 41 42  1  0
 41 43  2  0
 33 44  1  0
 44 45  1  0
 44 46  2  0
 27 47  1  0
 47 48  1  0
 47 49  2  0
 22  6  1  0
 46 29  1  0
 19 12  1  0
 43 35  1  0
  3 50  1  0
  3 51  1  0
  4 52  1  6
  5 53  1  0
  5 54  1  0
  7 55  1  0
 13 56  1  0
 17 57  1  0
 18 58  1  0
 19 59  1  0
 22 60  1  0
 26 61  1  0
 26 62  1  0
 27 63  1  6
 28 64  1  0
 28 65  1  0
 30 66  1  0
 36 67  1  0
 40 68  1  0
 43 69  1  0
 46 70  1  0
M  CHG  4   1   1   2   1  24  -1  48  -1
M  END
$$$$
