@<TRIPOS>MOLECULE
*****
 53 54 0 0 0
SMALL
GASTEIGER

@<TRIPOS>ATOM
      1 C          -6.0457    0.2000    0.0312 C.3     1  UNL1        0.0000
      2 C          -5.1989   -0.2436    1.1773 C.3     1  UNL1        0.0000
      3 C          -5.1758   -1.7602    1.2364 C.3     1  UNL1        0.0000
      4 C          -3.8346    0.3310    1.0958 C.3     1  UNL1        0.0000
      5 C          -3.0677   -0.0584   -0.1410 C.3     1  UNL1        0.0000
      6 N          -1.7540    0.6086   -0.0014 N.am    1  UNL1        0.0000
      7 C          -0.5696   -0.1236    0.1190 C.2     1  UNL1        0.0000
      8 O          -0.3208   -1.3579    0.1399 O.2     1  UNL1        0.0000
      9 C           0.7734    0.4914    0.2614 C.3     1  UNL1        0.0000
     10 C           0.9795    1.3304   -0.9996 C.3     1  UNL1        0.0000
     11 C           2.2835    2.0175   -1.0165 C.ar    1  UNL1        0.0000
     12 C           2.4858    3.2900   -0.4940 C.ar    1  UNL1        0.0000
     13 C           3.7360    3.8885   -0.5375 C.ar    1  UNL1        0.0000
     14 C           4.8198    3.2413   -1.1003 C.ar    1  UNL1        0.0000
     15 C           4.5614    1.9841   -1.6019 C.ar    1  UNL1        0.0000
     16 C           3.3446    1.3199   -1.5965 C.ar    1  UNL1        0.0000
     17 N           1.7726   -0.5490    0.3613 N.am    1  UNL1        0.0000
     18 C           2.7461   -0.8350    1.3678 C.2     1  UNL1        0.0000
     19 O           2.7877   -0.0812    2.3681 O.2     1  UNL1        0.0000
     20 C           3.6149   -1.9892    1.1427 C.ar    1  UNL1        0.0000
     21 C           4.5409   -2.2403    2.1262 C.ar    1  UNL1        0.0000
     22 N           5.3804   -3.2751    2.0092 N.ar    1  UNL1        0.0000
     23 C           5.3721   -4.1085    0.9560 C.ar    1  UNL1        0.0000
     24 C           4.4328   -3.8471   -0.0332 C.ar    1  UNL1        0.0000
     25 N           3.5863   -2.8132    0.0728 N.ar    1  UNL1        0.0000
     26 B          -3.7502    0.4115   -1.4879 B       1  UNL1        0.0000
     27 O          -3.8812   -0.5751   -2.5631 O.3     1  UNL1        0.0000
     28 O          -3.6127    1.8424   -1.8308 O.3     1  UNL1        0.0000
     29 H          -7.1133    0.1410    0.3886 H       1  UNL1        0.0000
     30 H          -5.7947    1.2295   -0.2809 H       1  UNL1        0.0000
     31 H          -5.9960   -0.4850   -0.8143 H       1  UNL1        0.0000
     32 H          -5.6571    0.0978    2.1407 H       1  UNL1        0.0000
     33 H          -5.1175   -2.2102    0.2369 H       1  UNL1        0.0000
     34 H          -4.3112   -2.0887    1.8548 H       1  UNL1        0.0000
     35 H          -6.1185   -2.0924    1.7479 H       1  UNL1        0.0000
     36 H          -3.9334    1.4416    1.0953 H       1  UNL1        0.0000
     37 H          -3.2710    0.0524    2.0264 H       1  UNL1        0.0000
     38 H          -2.8877   -1.1534   -0.1266 H       1  UNL1        0.0000
     39 H          -1.6773    1.6399    0.0108 H       1  UNL1        0.0000
     40 H           0.7837    1.1772    1.1332 H       1  UNL1        0.0000
     41 H           0.7980    0.7227   -1.8993 H       1  UNL1        0.0000
     42 H           0.1952    2.1252   -0.9765 H       1  UNL1        0.0000
     43 H           1.6419    3.8134   -0.0469 H       1  UNL1        0.0000
     44 H           3.9188    4.8806   -0.1363 H       1  UNL1        0.0000
     45 H           5.8249    3.6435   -1.1708 H       1  UNL1        0.0000
     46 H           5.3913    1.4334   -2.0578 H       1  UNL1        0.0000
     47 H           3.2543    0.3323   -2.0187 H       1  UNL1        0.0000
     48 H           1.6849   -1.1472   -0.5092 H       1  UNL1        0.0000
     49 H           4.6792   -1.6739    3.0277 H       1  UNL1        0.0000
     50 H           6.0755   -4.9438    0.8977 H       1  UNL1        0.0000
     51 H           4.3867   -4.4788   -0.8872 H       1  UNL1        0.0000
     52 H          -3.8855   -1.4709   -2.1897 H       1  UNL1        0.0000
     53 H          -2.8775    1.9146   -2.5071 H       1  UNL1        0.0000
@<TRIPOS>BOND
     1     1     2    1
     2     2     3    1
     3     2     4    1
     4     4     5    1
     5     5     6    1
     6     6     7   am
     7     7     8    2
     8     7     9    1
     9     9    10    1
    10    10    11    1
    11    11    12   ar
    12    12    13   ar
    13    13    14   ar
    14    14    15   ar
    15    15    16   ar
    16     9    17    1
    17    17    18   am
    18    18    19    2
    19    18    20    1
    20    20    21   ar
    21    21    22   ar
    22    22    23   ar
    23    23    24   ar
    24    24    25   ar
    25     5    26    1
    26    26    27    1
    27    26    28    1
    28    16    11   ar
    29    25    20   ar
    30     1    29    1
    31     1    30    1
    32     1    31    1
    33     2    32    1
    34     3    33    1
    35     3    34    1
    36     3    35    1
    37     4    36    1
    38     4    37    1
    39     5    38    1
    40     6    39    1
    41     9    40    1
    42    10    41    1
    43    10    42    1
    44    12    43    1
    45    13    44    1
    46    14    45    1
    47    15    46    1
    48    16    47    1
    49    17    48    1
    50    21    49    1
    51    23    50    1
    52    24    51    1
    53    27    52    1
    54    28    53    1
