
     RDKit          3D

 55 59  0  0  0  0  0  0  0  0999 V2000
    4.8683   -2.6978    1.1432 O   0  0  0  0  0  0  0  0  0  0  0  0
    4.5207   -1.4974    0.9791 C   0  0  0  0  0  0  0  0  0  0  0  0
    3.3339   -1.2039    0.3287 C   0  0  0  0  0  0  0  0  0  0  0  0
    2.9667    0.1136    0.1563 C   0  0  0  0  0  0  0  0  0  0  0  0
    1.7399    0.5020   -0.5149 C   0  0  0  0  0  0  0  0  0  0  0  0
    1.5663    1.6523   -1.2476 C   0  0  0  0  0  0  0  0  0  0  0  0
    0.4144    2.0117   -1.8750 C   0  0  0  0  0  0  0  0  0  0  0  0
   -0.7187    1.1734   -1.7984 C   0  0  0  0  0  0  0  0  0  0  0  0
   -1.8885    1.3485   -2.3255 N   0  0  0  0  0  0  0  0  0  0  0  0
   -2.8576    0.6560   -2.2747 C   0  0  0  0  0  0  0  0  0  0  0  0
   -4.2052    0.5660   -2.7306 N   0  0  0  0  0  0  0  0  0  0  0  0
   -5.1049   -0.4809   -2.3691 C   0  0  0  0  0  0  0  0  0  0  0  0
   -5.4172   -0.4137   -0.9066 C   0  0  0  0  0  0  0  0  0  0  0  0
   -6.0656    0.9199   -0.5431 C   0  0  0  0  0  0  0  0  0  0  0  0
   -5.6744    1.1751    0.9178 C   0  0  0  0  0  0  0  0  0  0  0  0
   -6.5273   -0.0947    1.8611 S   0  0  0  0  0  6  0  0  0  0  0  0
   -7.9879    0.2078    1.9272 O   0  0  0  0  0  0  0  0  0  0  0  0
   -5.8696   -0.1743    3.1880 O   0  0  0  0  0  0  0  0  0  0  0  0
   -6.2893   -1.6510    1.0255 C   0  0  0  0  0  0  0  0  0  0  0  0
   -6.3834   -1.4978   -0.4729 C   0  0  0  0  0  0  0  0  0  0  0  0
   -2.1704   -0.7395   -1.2125 S   0  0  0  0  0  0  0  0  0  0  0  0
   -0.5479    0.0244   -1.0675 C   0  0  0  0  0  0  0  0  0  0  0  0
    0.6113   -0.3287   -0.4410 C   0  0  0  0  0  0  0  0  0  0  0  0
    3.8296    1.0627    0.6570 C   0  0  0  0  0  0  0  0  0  0  0  0
    5.0214    0.7335    1.3096 C   0  0  0  0  0  0  0  0  0  0  0  0
    5.3468   -0.5417    1.4592 N   0  0  0  0  0  0  0  0  0  0  0  0
    6.5597   -0.9399    2.1361 C   0  0  0  0  0  0  0  0  0  0  0  0
    7.6536   -1.1059    1.1435 C   0  0  0  0  0  0  0  0  0  0  0  0
    8.0398    0.0986    0.3253 C   0  0  0  0  0  0  0  0  0  0  0  0
    9.0130   -0.5368    1.3164 C   0  0  0  0  0  0  0  0  0  0  0  0
    2.7080   -1.9985   -0.0367 H   0  0  0  0  0  0  0  0  0  0  0  0
    2.4715    2.2909   -1.2910 H   0  0  0  0  0  0  0  0  0  0  0  0
    0.4077    2.9412   -2.4185 H   0  0  0  0  0  0  0  0  0  0  0  0
   -4.5126    1.3158   -3.3549 H   0  0  0  0  0  0  0  0  0  0  0  0
   -6.0631   -0.3763   -2.9114 H   0  0  0  0  0  0  0  0  0  0  0  0
   -4.7109   -1.4821   -2.6638 H   0  0  0  0  0  0  0  0  0  0  0  0
   -4.4996   -0.5516   -0.3299 H   0  0  0  0  0  0  0  0  0  0  0  0
   -5.7251    1.7403   -1.1940 H   0  0  0  0  0  0  0  0  0  0  0  0
   -7.1720    0.7878   -0.5538 H   0  0  0  0  0  0  0  0  0  0  0  0
   -5.9343    2.1791    1.2489 H   0  0  0  0  0  0  0  0  0  0  0  0
   -4.5935    0.9428    0.9819 H   0  0  0  0  0  0  0  0  0  0  0  0
   -5.3192   -2.0856    1.3192 H   0  0  0  0  0  0  0  0  0  0  0  0
   -7.0874   -2.3730    1.3572 H   0  0  0  0  0  0  0  0  0  0  0  0
   -6.1021   -2.4795   -0.9100 H   0  0  0  0  0  0  0  0  0  0  0  0
   -7.4380   -1.2520   -0.7169 H   0  0  0  0  0  0  0  0  0  0  0  0
    0.6391   -1.2407    0.1003 H   0  0  0  0  0  0  0  0  0  0  0  0
    3.6027    2.1144    0.5562 H   0  0  0  0  0  0  0  0  0  0  0  0
    5.6484    1.5113    1.6846 H   0  0  0  0  0  0  0  0  0  0  0  0
    6.8463   -0.1470    2.8744 H   0  0  0  0  0  0  0  0  0  0  0  0
    6.4193   -1.8791    2.7220 H   0  0  0  0  0  0  0  0  0  0  0  0
    7.5649   -2.0456    0.5454 H   0  0  0  0  0  0  0  0  0  0  0  0
    7.6831    1.1122    0.5774 H   0  0  0  0  0  0  0  0  0  0  0  0
    8.2714   -0.0622   -0.7688 H   0  0  0  0  0  0  0  0  0  0  0  0
    9.8478   -1.1123    0.8493 H   0  0  0  0  0  0  0  0  0  0  0  0
    9.2698    0.0340    2.2382 H   0  0  0  0  0  0  0  0  0  0  0  0
  1  2  2  0
  2  3  1  0
  3  4  2  0
  4  5  1  0
  5  6  2  0
  6  7  1  0
  7  8  2  0
  8  9  1  0
  9 10  2  0
 10 11  1  0
 11 12  1  0
 12 13  1  0
 13 14  1  0
 14 15  1  0
 15 16  1  0
 16 17  2  0
 16 18  2  0
 16 19  1  0
 19 20  1  0
 10 21  1  0
 21 22  1  0
 22 23  2  0
  4 24  1  0
 24 25  2  0
 25 26  1  0
 26 27  1  0
 27 28  1  0
 28 29  1  0
 29 30  1  0
 26  2  1  0
 30 28  1  0
 23  5  1  0
 22  8  1  0
 20 13  1  0
  3 31  1  0
  6 32  1  0
  7 33  1  0
 11 34  1  0
 12 35  1  0
 12 36  1  0
 13 37  1  0
 14 38  1  0
 14 39  1  0
 15 40  1  0
 15 41  1  0
 19 42  1  0
 19 43  1  0
 20 44  1  0
 20 45  1  0
 23 46  1  0
 24 47  1  0
 25 48  1  0
 27 49  1  0
 27 50  1  0
 28 51  1  0
 29 52  1  0
 29 53  1  0
 30 54  1  0
 30 55  1  0
M  END
$$$$
