@<TRIPOS>MOLECULE
*****
 55 59 0 0 0
SMALL
GASTEIGER

@<TRIPOS>ATOM
      1 O           4.8683   -2.6978    1.1432 O.2     1  UNL1       -0.2677
      2 C           4.5207   -1.4974    0.9791 C.ar    1  UNL1        0.2519
      3 C           3.3339   -1.2039    0.3287 C.ar    1  UNL1        0.0107
      4 C           2.9667    0.1136    0.1563 C.ar    1  UNL1       -0.0114
      5 C           1.7399    0.5020   -0.5149 C.ar    1  UNL1       -0.0165
      6 C           1.5663    1.6523   -1.2476 C.ar    1  UNL1       -0.0520
      7 C           0.4144    2.0117   -1.8750 C.ar    1  UNL1       -0.0346
      8 C          -0.7187    1.1734   -1.7984 C.ar    1  UNL1        0.0803
      9 N          -1.8885    1.3485   -2.3255 N.ar    1  UNL1       -0.2249
     10 C          -2.8576    0.6560   -2.2747 C.ar    1  UNL1        0.1592
     11 N          -4.2052    0.5660   -2.7306 N.pl3   1  UNL1       -0.3232
     12 C          -5.1049   -0.4809   -2.3691 C.3     1  UNL1        0.0138
     13 C          -5.4172   -0.4137   -0.9066 C.3     1  UNL1       -0.0225
     14 C          -6.0656    0.9199   -0.5431 C.3     1  UNL1       -0.0293
     15 C          -5.6744    1.1751    0.9178 C.3     1  UNL1        0.0661
     16 S          -6.5273   -0.0947    1.8611 S.O2    1  UNL1       -0.0310
     17 O          -7.9879    0.2078    1.9272 O.2     1  UNL1       -0.1744
     18 O          -5.8696   -0.1743    3.1880 O.2     1  UNL1       -0.1744
     19 C          -6.2893   -1.6510    1.0255 C.3     1  UNL1        0.0661
     20 C          -6.3834   -1.4978   -0.4729 C.3     1  UNL1       -0.0293
     21 S          -2.1704   -0.7395   -1.2125 S.2     1  UNL1       -0.0524
     22 C          -0.5479    0.0244   -1.0675 C.ar    1  UNL1        0.0413
     23 C           0.6113   -0.3287   -0.4410 C.ar    1  UNL1       -0.0381
     24 C           3.8296    1.0627    0.6570 C.ar    1  UNL1       -0.0376
     25 C           5.0214    0.7335    1.3096 C.ar    1  UNL1        0.0085
     26 N           5.3468   -0.5417    1.4592 N.ar    1  UNL1       -0.3149
     27 C           6.5597   -0.9399    2.1361 C.3     1  UNL1        0.0289
     28 C           7.6536   -1.1059    1.1435 C.3     1  UNL1       -0.0229
     29 C           8.0398    0.0986    0.3253 C.3     1  UNL1       -0.0483
     30 C           9.0130   -0.5368    1.3164 C.3     1  UNL1       -0.0483
     31 H           2.7080   -1.9985   -0.0367 H       1  UNL1        0.0678
     32 H           2.4715    2.2909   -1.2910 H       1  UNL1        0.0624
     33 H           0.4077    2.9412   -2.4185 H       1  UNL1        0.0639
     34 H          -4.5126    1.3158   -3.3549 H       1  UNL1        0.1480
     35 H          -6.0631   -0.3763   -2.9114 H       1  UNL1        0.0464
     36 H          -4.7109   -1.4821   -2.6638 H       1  UNL1        0.0464
     37 H          -4.4996   -0.5516   -0.3299 H       1  UNL1        0.0317
     38 H          -5.7251    1.7403   -1.1940 H       1  UNL1        0.0284
     39 H          -7.1720    0.7878   -0.5538 H       1  UNL1        0.0284
     40 H          -5.9343    2.1791    1.2489 H       1  UNL1        0.0500
     41 H          -4.5935    0.9428    0.9819 H       1  UNL1        0.0500
     42 H          -5.3192   -2.0856    1.3192 H       1  UNL1        0.0500
     43 H          -7.0874   -2.3730    1.3572 H       1  UNL1        0.0500
     44 H          -6.1021   -2.4795   -0.9100 H       1  UNL1        0.0284
     45 H          -7.4380   -1.2520   -0.7169 H       1  UNL1        0.0284
     46 H           0.6391   -1.2407    0.1003 H       1  UNL1        0.0635
     47 H           3.6027    2.1144    0.5562 H       1  UNL1        0.0638
     48 H           5.6484    1.5113    1.6846 H       1  UNL1        0.0810
     49 H           6.8463   -0.1470    2.8744 H       1  UNL1        0.0495
     50 H           6.4193   -1.8791    2.7220 H       1  UNL1        0.0495
     51 H           7.5649   -2.0456    0.5454 H       1  UNL1        0.0318
     52 H           7.6831    1.1122    0.5774 H       1  UNL1        0.0269
     53 H           8.2714   -0.0622   -0.7688 H       1  UNL1        0.0269
     54 H           9.8478   -1.1123    0.8493 H       1  UNL1        0.0269
     55 H           9.2698    0.0340    2.2382 H       1  UNL1        0.0269
@<TRIPOS>BOND
     1     1     2    2
     2     2     3   ar
     3     3     4   ar
     4     4     5    1
     5     5     6   ar
     6     6     7   ar
     7     7     8   ar
     8     8     9   ar
     9     9    10   ar
    10    10    11    1
    11    11    12    1
    12    12    13    1
    13    13    14    1
    14    14    15    1
    15    15    16    1
    16    16    17    2
    17    16    18    2
    18    16    19    1
    19    19    20    1
    20    10    21   ar
    21    21    22   ar
    22    22    23   ar
    23     4    24   ar
    24    24    25   ar
    25    25    26   ar
    26    26    27    1
    27    27    28    1
    28    28    29    1
    29    29    30    1
    30    26     2   ar
    31    30    28    1
    32    23     5   ar
    33    22     8   ar
    34    20    13    1
    35     3    31    1
    36     6    32    1
    37     7    33    1
    38    11    34    1
    39    12    35    1
    40    12    36    1
    41    13    37    1
    42    14    38    1
    43    14    39    1
    44    15    40    1
    45    15    41    1
    46    19    42    1
    47    19    43    1
    48    20    44    1
    49    20    45    1
    50    23    46    1
    51    24    47    1
    52    25    48    1
    53    27    49    1
    54    27    50    1
    55    28    51    1
    56    29    52    1
    57    29    53    1
    58    30    54    1
    59    30    55    1
