
     RDKit          3D

 55 57  0  0  0  0  0  0  0  0999 V2000
    2.9873    3.4080   -1.2252 C   0  0  0  0  0  0  0  0  0  0  0  0
    3.6577    2.3258   -0.5809 N   0  0  0  0  0  0  0  0  0  0  0  0
    3.1232    1.1533   -0.0556 C   0  0  0  0  0  0  0  0  0  0  0  0
    1.7378    0.9588   -0.1967 C   0  0  0  0  0  0  0  0  0  0  0  0
    1.2097   -0.2371    0.3227 C   0  0  0  0  0  0  0  0  0  0  0  0
   -0.1771   -0.3786    0.1312 N   0  0  0  0  0  0  0  0  0  0  0  0
   -1.0166   -1.4551    0.5053 C   0  0  0  0  0  0  0  0  0  0  0  0
   -0.7001   -2.4563    1.3220 C   0  0  0  0  0  0  0  0  0  0  0  0
   -1.4958   -3.5319    1.6514 N   0  0  0  0  0  0  0  0  0  0  0  0
   -2.7089   -3.5569    1.0788 C   0  0  0  0  0  0  0  0  0  0  0  0
   -3.6732   -4.6410    1.4290 C   0  0  0  0  0  0  0  0  0  0  0  0
   -4.3771   -5.4402    1.6896 N   0  0  0  0  0  0  0  0  0  0  0  0
   -3.0821   -2.5786    0.2453 C   0  0  0  0  0  0  0  0  0  0  0  0
   -4.3520   -2.6718   -0.3233 O   0  0  0  0  0  0  0  0  0  0  0  0
   -5.1005   -1.8127   -1.0834 C   0  0  2  0  0  0  0  0  0  0  0  0
   -5.4415   -2.4071   -2.4168 C   0  0  0  0  0  0  0  0  0  0  0  0
   -4.3292   -0.4905   -1.2699 C   0  0  0  0  0  0  0  0  0  0  0  0
   -5.1140    0.4444   -2.0556 N   0  0  0  0  0  0  0  0  0  0  0  0
   -4.3931    1.7272   -2.1077 C   0  0  0  0  0  0  0  0  0  0  0  0
   -6.4570    0.6332   -1.6214 C   0  0  0  0  0  0  0  0  0  0  0  0
   -2.2999   -1.4923   -0.0917 N   0  0  0  0  0  0  0  0  0  0  0  0
    1.9715   -1.0886    0.8938 N   0  0  0  0  0  0  0  0  0  0  0  0
    3.3390   -0.9285    1.0504 C   0  0  0  0  0  0  0  0  0  0  0  0
    3.9194    0.2177    0.5613 C   0  0  0  0  0  0  0  0  0  0  0  0
    5.3549    0.4133    0.7419 C   0  0  0  0  0  0  0  0  0  0  0  0
    6.4139   -0.4457    0.3836 C   0  0  0  0  0  0  0  0  0  0  0  0
    7.5682    0.1392    0.7351 N   0  0  0  0  0  0  0  0  0  0  0  0
    7.3300    1.3508    1.3140 N   0  0  0  0  0  0  0  0  0  0  0  0
    8.2845    2.3047    1.8325 C   0  0  0  0  0  0  0  0  0  0  0  0
    5.9929    1.4754    1.2966 C   0  0  0  0  0  0  0  0  0  0  0  0
    1.9086    3.3304   -1.1475 H   0  0  0  0  0  0  0  0  0  0  0  0
    3.3539    3.6070   -2.2676 H   0  0  0  0  0  0  0  0  0  0  0  0
    3.2316    4.3911   -0.6992 H   0  0  0  0  0  0  0  0  0  0  0  0
    4.7185    2.4559   -0.4988 H   0  0  0  0  0  0  0  0  0  0  0  0
    1.1636    1.6788   -0.6740 H   0  0  0  0  0  0  0  0  0  0  0  0
   -0.7080    0.4249   -0.3483 H   0  0  0  0  0  0  0  0  0  0  0  0
    0.3051   -2.4321    1.7850 H   0  0  0  0  0  0  0  0  0  0  0  0
   -6.0659   -1.5064   -0.5471 H   0  0  0  0  0  0  0  0  0  0  0  0
   -4.6330   -2.1309   -3.1453 H   0  0  0  0  0  0  0  0  0  0  0  0
   -5.5830   -3.5139   -2.3697 H   0  0  0  0  0  0  0  0  0  0  0  0
   -6.3715   -1.9989   -2.8816 H   0  0  0  0  0  0  0  0  0  0  0  0
   -3.4326   -0.7312   -1.8660 H   0  0  0  0  0  0  0  0  0  0  0  0
   -4.0942   -0.0523   -0.3000 H   0  0  0  0  0  0  0  0  0  0  0  0
   -4.4528    2.2090   -1.0900 H   0  0  0  0  0  0  0  0  0  0  0  0
   -3.3218    1.6084   -2.3450 H   0  0  0  0  0  0  0  0  0  0  0  0
   -4.8932    2.4098   -2.8383 H   0  0  0  0  0  0  0  0  0  0  0  0
   -7.1588    0.1847   -2.3398 H   0  0  0  0  0  0  0  0  0  0  0  0
   -6.6871    0.3647   -0.5824 H   0  0  0  0  0  0  0  0  0  0  0  0
   -6.6590    1.7449   -1.6877 H   0  0  0  0  0  0  0  0  0  0  0  0
    3.8972   -1.6853    1.5411 H   0  0  0  0  0  0  0  0  0  0  0  0
    6.2653   -1.4112   -0.0963 H   0  0  0  0  0  0  0  0  0  0  0  0
    9.2237    1.8071    2.0837 H   0  0  0  0  0  0  0  0  0  0  0  0
    7.9182    2.7424    2.8131 H   0  0  0  0  0  0  0  0  0  0  0  0
    8.4142    3.1895    1.1644 H   0  0  0  0  0  0  0  0  0  0  0  0
    5.4889    2.3746    1.6982 H   0  0  0  0  0  0  0  0  0  0  0  0
  1  2  1  0
  2  3  1  0
  3  4  2  0
  4  5  1  0
  5  6  1  0
  6  7  1  0
  7  8  2  0
  8  9  1  0
  9 10  2  0
 10 11  1  0
 11 12  3  0
 10 13  1  0
 13 14  1  0
 14 15  1  0
 15 16  1  0
 15 17  1  0
 17 18  1  0
 18 19  1  0
 18 20  1  0
 13 21  2  0
  5 22  2  0
 22 23  1  0
 23 24  2  0
 24 25  1  0
 25 26  1  0
 26 27  2  0
 27 28  1  0
 28 29  1  0
 28 30  1  0
 24  3  1  0
 30 25  2  0
 21  7  1  0
  1 31  1  0
  1 32  1  0
  1 33  1  0
  2 34  1  0
  4 35  1  0
  6 36  1  0
  8 37  1  0
 15 38  1  1
 16 39  1  0
 16 40  1  0
 16 41  1  0
 17 42  1  0
 17 43  1  0
 19 44  1  0
 19 45  1  0
 19 46  1  0
 20 47  1  0
 20 48  1  0
 20 49  1  0
 23 50  1  0
 26 51  1  0
 29 52  1  0
 29 53  1  0
 29 54  1  0
 30 55  1  0
M  END
$$$$
