@<TRIPOS>MOLECULE
*****
 55 57 0 0 0
SMALL
GASTEIGER

@<TRIPOS>ATOM
      1 C           2.9873    3.4080   -1.2252 C.3     1  UNL1       -0.0024
      2 N           3.6577    2.3258   -0.5809 N.pl3   1  UNL1       -0.3463
      3 C           3.1232    1.1533   -0.0556 C.ar    1  UNL1        0.0395
      4 C           1.7378    0.9588   -0.1967 C.ar    1  UNL1       -0.0001
      5 C           1.2097   -0.2371    0.3227 C.ar    1  UNL1        0.1257
      6 N          -0.1771   -0.3786    0.1312 N.pl3   1  UNL1       -0.2830
      7 C          -1.0166   -1.4551    0.5053 C.ar    1  UNL1        0.1461
      8 C          -0.7001   -2.4563    1.3220 C.ar    1  UNL1        0.0693
      9 N          -1.4958   -3.5319    1.6514 N.ar    1  UNL1       -0.2364
     10 C          -2.7089   -3.5569    1.0788 C.ar    1  UNL1        0.2019
     11 C          -3.6732   -4.6410    1.4290 C.1     1  UNL1        0.1246
     12 N          -4.3771   -5.4402    1.6896 N.1     1  UNL1       -0.1891
     13 C          -3.0821   -2.5786    0.2453 C.ar    1  UNL1        0.2538
     14 O          -4.3520   -2.6718   -0.3233 O.3     1  UNL1       -0.4701
     15 C          -5.1005   -1.8127   -1.0834 C.3     1  UNL1        0.1117
     16 C          -5.4415   -2.4071   -2.4168 C.3     1  UNL1       -0.0265
     17 C          -4.3292   -0.4905   -1.2699 C.3     1  UNL1        0.0352
     18 N          -5.1140    0.4444   -2.0556 N.3     1  UNL1       -0.3049
     19 C          -4.3931    1.7272   -2.1077 C.3     1  UNL1       -0.0129
     20 C          -6.4570    0.6332   -1.6214 C.3     1  UNL1       -0.0129
     21 N          -2.2999   -1.4923   -0.0917 N.ar    1  UNL1       -0.1938
     22 N           1.9715   -1.0886    0.8938 N.ar    1  UNL1       -0.2394
     23 C           3.3390   -0.9285    1.0504 C.ar    1  UNL1        0.0393
     24 C           3.9194    0.2177    0.5613 C.ar    1  UNL1        0.0241
     25 C           5.3549    0.4133    0.7419 C.ar    1  UNL1        0.0228
     26 C           6.4139   -0.4457    0.3836 C.ar    1  UNL1        0.0572
     27 N           7.5682    0.1392    0.7351 N.ar    1  UNL1       -0.1793
     28 N           7.3300    1.3508    1.3140 N.ar    1  UNL1       -0.2739
     29 C           8.2845    2.3047    1.8325 C.3     1  UNL1        0.0302
     30 C           5.9929    1.4754    1.2966 C.ar    1  UNL1        0.0330
     31 H           1.9086    3.3304   -1.1475 H       1  UNL1        0.0425
     32 H           3.3539    3.6070   -2.2676 H       1  UNL1        0.0425
     33 H           3.2316    4.3911   -0.6992 H       1  UNL1        0.0425
     34 H           4.7185    2.4559   -0.4988 H       1  UNL1        0.1458
     35 H           1.1636    1.6788   -0.6740 H       1  UNL1        0.0671
     36 H          -0.7080    0.4249   -0.3483 H       1  UNL1        0.1550
     37 H           0.3051   -2.4321    1.7850 H       1  UNL1        0.0865
     38 H          -6.0659   -1.5064   -0.5471 H       1  UNL1        0.0743
     39 H          -4.6330   -2.1309   -3.1453 H       1  UNL1        0.0266
     40 H          -5.5830   -3.5139   -2.3697 H       1  UNL1        0.0266
     41 H          -6.3715   -1.9989   -2.8816 H       1  UNL1        0.0266
     42 H          -3.4326   -0.7312   -1.8660 H       1  UNL1        0.0462
     43 H          -4.0942   -0.0523   -0.3000 H       1  UNL1        0.0462
     44 H          -4.4528    2.2090   -1.0900 H       1  UNL1        0.0391
     45 H          -3.3218    1.6084   -2.3450 H       1  UNL1        0.0391
     46 H          -4.8932    2.4098   -2.8383 H       1  UNL1        0.0391
     47 H          -7.1588    0.1847   -2.3398 H       1  UNL1        0.0391
     48 H          -6.6871    0.3647   -0.5824 H       1  UNL1        0.0391
     49 H          -6.6590    1.7449   -1.6877 H       1  UNL1        0.0391
     50 H           3.8972   -1.6853    1.5411 H       1  UNL1        0.0837
     51 H           6.2653   -1.4112   -0.0963 H       1  UNL1        0.0854
     52 H           9.2237    1.8071    2.0837 H       1  UNL1        0.0473
     53 H           7.9182    2.7424    2.8131 H       1  UNL1        0.0473
     54 H           8.4142    3.1895    1.1644 H       1  UNL1        0.0473
     55 H           5.4889    2.3746    1.6982 H       1  UNL1        0.0832
@<TRIPOS>BOND
     1     1     2    1
     2     2     3    1
     3     3     4   ar
     4     4     5   ar
     5     5     6    1
     6     6     7    1
     7     7     8   ar
     8     8     9   ar
     9     9    10   ar
    10    10    11    1
    11    11    12    3
    12    10    13   ar
    13    13    14    1
    14    14    15    1
    15    15    16    1
    16    15    17    1
    17    17    18    1
    18    18    19    1
    19    18    20    1
    20    13    21   ar
    21     5    22   ar
    22    22    23   ar
    23    23    24   ar
    24    24    25    1
    25    25    26   ar
    26    26    27   ar
    27    27    28   ar
    28    28    29    1
    29    28    30   ar
    30    24     3   ar
    31    30    25   ar
    32    21     7   ar
    33     1    31    1
    34     1    32    1
    35     1    33    1
    36     2    34    1
    37     4    35    1
    38     6    36    1
    39     8    37    1
    40    15    38    1
    41    16    39    1
    42    16    40    1
    43    16    41    1
    44    17    42    1
    45    17    43    1
    46    19    44    1
    47    19    45    1
    48    19    46    1
    49    20    47    1
    50    20    48    1
    51    20    49    1
    52    23    50    1
    53    26    51    1
    54    29    52    1
    55    29    53    1
    56    29    54    1
    57    30    55    1
