@<TRIPOS>MOLECULE
*****
 84 88 0 0 0
SMALL
GASTEIGER

@<TRIPOS>ATOM
      1 C           3.0421   -1.8218    0.0166 C.3     1  UNL1       -0.0387
      2 C           3.6808   -0.7981   -0.8583 C.2     1  UNL1       -0.0346
      3 C           3.7234    0.4818   -0.6393 C.2     1  UNL1        0.0221
      4 C           3.2200    1.3155    0.4189 C.2     1  UNL1        0.2412
      5 O           3.4735    2.5826    0.3303 O.2     1  UNL1       -0.2705
      6 N           2.4751    0.9442    1.5588 N.am    1  UNL1       -0.3005
      7 C           2.0397    1.9257    2.5499 C.3     1  UNL1        0.0969
      8 C           2.6523    1.5302    3.8707 C.3     1  UNL1       -0.0381
      9 C           0.5976    2.0669    2.6685 C.2     1  UNL1        0.2337
     10 O           0.1521    2.7331    3.6456 O.2     1  UNL1       -0.2738
     11 N          -0.3956    1.5273    1.7886 N.am    1  UNL1       -0.3022
     12 C          -1.7986    1.7243    2.0516 C.3     1  UNL1        0.1034
     13 C          -2.4177    2.8444    1.2195 C.3     1  UNL1        0.0013
     14 C          -1.7975    4.1534    1.4296 C.ar    1  UNL1       -0.0201
     15 C          -2.2707    5.1452    2.2767 C.ar    1  UNL1        0.0060
     16 N          -1.4297    6.1770    2.2139 N.ar    1  UNL1       -0.3604
     17 C          -0.4299    5.8676    1.3458 C.ar    1  UNL1        0.0467
     18 C           0.6444    6.6446    0.9716 C.ar    1  UNL1       -0.0378
     19 C           1.5197    6.0999    0.0546 C.ar    1  UNL1       -0.0598
     20 C           1.3246    4.8328   -0.4627 C.ar    1  UNL1       -0.0611
     21 C           0.2498    4.0582   -0.0862 C.ar    1  UNL1       -0.0523
     22 C          -0.6198    4.6015    0.8264 C.ar    1  UNL1        0.0029
     23 C          -2.5595    0.4733    1.8024 C.2     1  UNL1        0.2341
     24 O          -3.7659    0.3837    2.1844 O.2     1  UNL1       -0.2738
     25 N          -2.0398   -0.6626    1.1487 N.am    1  UNL1       -0.3072
     26 C          -2.8379   -1.8770    0.9319 C.3     1  UNL1        0.0470
     27 C          -1.9775   -3.0023    0.5869 C.2     1  UNL1       -0.0461
     28 C          -1.0889   -2.9536   -0.4194 C.2     1  UNL1        0.0495
     29 S          -0.0443   -4.2813   -0.8579 S.O2    1  UNL1       -0.0127
     30 C          -0.8901   -5.5225   -1.8021 C.3     1  UNL1        0.0589
     31 O           1.0388   -3.6993   -1.7713 O.2     1  UNL1       -0.1702
     32 O           0.6354   -4.8227    0.3413 O.2     1  UNL1       -0.1702
     33 C          -3.7379   -1.5393   -0.2841 C.3     1  UNL1       -0.0055
     34 C          -4.6241   -2.6593   -0.6373 C.ar    1  UNL1       -0.0453
     35 C          -4.2500   -3.5729   -1.5906 C.ar    1  UNL1       -0.0585
     36 C          -5.0885   -4.6344   -1.9036 C.ar    1  UNL1       -0.0615
     37 C          -6.3055   -4.7393   -1.2276 C.ar    1  UNL1       -0.0617
     38 C          -6.6980   -3.8326   -0.2685 C.ar    1  UNL1       -0.0615
     39 C          -5.8521   -2.7908    0.0250 C.ar    1  UNL1       -0.0585
     40 C           4.4690    1.1071   -1.7971 C.3     1  UNL1        0.0033
     41 C           4.8233   -0.0080   -2.6863 C.ar    1  UNL1       -0.0355
     42 C           5.4822   -0.1162   -3.8844 C.ar    1  UNL1       -0.0577
     43 C           5.6921   -1.2860   -4.5364 C.ar    1  UNL1       -0.0615
     44 C           5.2063   -2.4534   -3.9495 C.ar    1  UNL1       -0.0612
     45 C           4.5434   -2.3780   -2.7524 C.ar    1  UNL1       -0.0541
     46 C           4.3441   -1.1606   -2.1084 C.ar    1  UNL1       -0.0182
     47 H           1.9674   -1.6229    0.0701 H       1  UNL1        0.0278
     48 H           3.5040   -1.7968    1.0300 H       1  UNL1        0.0278
     49 H           3.2358   -2.8373   -0.4408 H       1  UNL1        0.0278
     50 H           2.2368   -0.0584    1.6744 H       1  UNL1        0.1498
     51 H           2.4420    2.9261    2.2122 H       1  UNL1        0.0592
     52 H           3.5573    2.1454    4.1235 H       1  UNL1        0.0252
     53 H           1.9044    1.7825    4.6690 H       1  UNL1        0.0252
     54 H           2.8252    0.4536    3.9263 H       1  UNL1        0.0252
     55 H          -0.0301    1.0045    0.9718 H       1  UNL1        0.1495
     56 H          -1.9621    2.0533    3.0991 H       1  UNL1        0.0598
     57 H          -2.5207    2.5538    0.1456 H       1  UNL1        0.0337
     58 H          -3.4783    2.9038    1.6023 H       1  UNL1        0.0337
     59 H          -3.1872    5.0362    2.8716 H       1  UNL1        0.0810
     60 H          -1.5191    7.0914    2.7521 H       1  UNL1        0.1653
     61 H           0.8087    7.6422    1.3715 H       1  UNL1        0.0638
     62 H           2.3649    6.6899   -0.2501 H       1  UNL1        0.0618
     63 H           2.0192    4.4169   -1.1826 H       1  UNL1        0.0618
     64 H           0.0682    3.0683   -0.4725 H       1  UNL1        0.0624
     65 H          -1.0674   -0.6735    0.8031 H       1  UNL1        0.1493
     66 H          -3.5615   -2.0422    1.7441 H       1  UNL1        0.0546
     67 H          -2.0028   -3.9465    1.1255 H       1  UNL1        0.0603
     68 H          -1.0706   -1.9919   -0.9596 H       1  UNL1        0.0816
     69 H          -0.1578   -6.2916   -2.0507 H       1  UNL1        0.0468
     70 H          -1.2827   -5.0109   -2.7172 H       1  UNL1        0.0468
     71 H          -1.7398   -5.8792   -1.2023 H       1  UNL1        0.0468
     72 H          -4.3353   -0.6724    0.0767 H       1  UNL1        0.0334
     73 H          -3.1019   -1.3106   -1.1543 H       1  UNL1        0.0334
     74 H          -3.2983   -3.5107   -2.1453 H       1  UNL1        0.0620
     75 H          -4.7903   -5.3558   -2.6557 H       1  UNL1        0.0618
     76 H          -6.9528   -5.5747   -1.4819 H       1  UNL1        0.0618
     77 H          -7.6638   -3.9463    0.2463 H       1  UNL1        0.0618
     78 H          -6.1516   -2.0624    0.7895 H       1  UNL1        0.0620
     79 H           5.3807    1.6248   -1.3977 H       1  UNL1        0.0363
     80 H           3.8290    1.8543   -2.3153 H       1  UNL1        0.0363
     81 H           5.8645    0.7953   -4.3479 H       1  UNL1        0.0621
     82 H           6.2097   -1.3765   -5.4800 H       1  UNL1        0.0618
     83 H           5.3679   -3.3867   -4.4626 H       1  UNL1        0.0618
     84 H           4.1787   -3.3031   -2.3228 H       1  UNL1        0.0624
@<TRIPOS>BOND
     1     1     2    1
     2     2     3    2
     3     3     4    1
     4     4     5    2
     5     4     6   am
     6     6     7    1
     7     7     8    1
     8     7     9    1
     9     9    10    2
    10     9    11   am
    11    11    12    1
    12    12    13    1
    13    13    14    1
    14    14    15   ar
    15    15    16   ar
    16    16    17   ar
    17    17    18   ar
    18    18    19   ar
    19    19    20   ar
    20    20    21   ar
    21    21    22   ar
    22    12    23    1
    23    23    24    2
    24    23    25   am
    25    25    26    1
    26    26    27    1
    27    27    28    2
    28    28    29    1
    29    29    30    1
    30    29    31    2
    31    29    32    2
    32    26    33    1
    33    33    34    1
    34    34    35   ar
    35    35    36   ar
    36    36    37   ar
    37    37    38   ar
    38    38    39   ar
    39     3    40    1
    40    40    41    1
    41    41    42   ar
    42    42    43   ar
    43    43    44   ar
    44    44    45   ar
    45    45    46   ar
    46    46     2    1
    47    22    14   ar
    48    39    34   ar
    49    46    41   ar
    50    22    17   ar
    51     1    47    1
    52     1    48    1
    53     1    49    1
    54     6    50    1
    55     7    51    1
    56     8    52    1
    57     8    53    1
    58     8    54    1
    59    11    55    1
    60    12    56    1
    61    13    57    1
    62    13    58    1
    63    15    59    1
    64    16    60    1
    65    18    61    1
    66    19    62    1
    67    20    63    1
    68    21    64    1
    69    25    65    1
    70    26    66    1
    71    27    67    1
    72    28    68    1
    73    30    69    1
    74    30    70    1
    75    30    71    1
    76    33    72    1
    77    33    73    1
    78    35    74    1
    79    36    75    1
    80    37    76    1
    81    38    77    1
    82    39    78    1
    83    40    79    1
    84    40    80    1
    85    42    81    1
    86    43    82    1
    87    44    83    1
    88    45    84    1
