
     RDKit          3D

 84 88  0  0  0  0  0  0  0  0999 V2000
    3.0421   -1.8218    0.0166 C   0  0  0  0  0  0  0  0  0  0  0  0
    3.6808   -0.7981   -0.8583 C   0  0  0  0  0  0  0  0  0  0  0  0
    3.7234    0.4818   -0.6393 C   0  0  0  0  0  0  0  0  0  0  0  0
    3.2200    1.3155    0.4189 C   0  0  0  0  0  0  0  0  0  0  0  0
    3.4735    2.5826    0.3303 O   0  0  0  0  0  0  0  0  0  0  0  0
    2.4751    0.9442    1.5588 N   0  0  0  0  0  0  0  0  0  0  0  0
    2.0397    1.9257    2.5499 C   0  0  2  0  0  0  0  0  0  0  0  0
    2.6523    1.5302    3.8707 C   0  0  0  0  0  0  0  0  0  0  0  0
    0.5976    2.0669    2.6685 C   0  0  0  0  0  0  0  0  0  0  0  0
    0.1521    2.7331    3.6456 O   0  0  0  0  0  0  0  0  0  0  0  0
   -0.3956    1.5273    1.7886 N   0  0  0  0  0  0  0  0  0  0  0  0
   -1.7986    1.7243    2.0516 C   0  0  1  0  0  0  0  0  0  0  0  0
   -2.4177    2.8444    1.2195 C   0  0  0  0  0  0  0  0  0  0  0  0
   -1.7975    4.1534    1.4296 C   0  0  0  0  0  0  0  0  0  0  0  0
   -2.2707    5.1452    2.2767 C   0  0  0  0  0  0  0  0  0  0  0  0
   -1.4297    6.1770    2.2139 N   0  0  0  0  0  0  0  0  0  0  0  0
   -0.4299    5.8676    1.3458 C   0  0  0  0  0  0  0  0  0  0  0  0
    0.6444    6.6446    0.9716 C   0  0  0  0  0  0  0  0  0  0  0  0
    1.5197    6.0999    0.0546 C   0  0  0  0  0  0  0  0  0  0  0  0
    1.3246    4.8328   -0.4627 C   0  0  0  0  0  0  0  0  0  0  0  0
    0.2498    4.0582   -0.0862 C   0  0  0  0  0  0  0  0  0  0  0  0
   -0.6198    4.6015    0.8264 C   0  0  0  0  0  0  0  0  0  0  0  0
   -2.5595    0.4733    1.8024 C   0  0  0  0  0  0  0  0  0  0  0  0
   -3.7659    0.3837    2.1844 O   0  0  0  0  0  0  0  0  0  0  0  0
   -2.0398   -0.6626    1.1487 N   0  0  0  0  0  0  0  0  0  0  0  0
   -2.8379   -1.8770    0.9319 C   0  0  2  0  0  0  0  0  0  0  0  0
   -1.9775   -3.0023    0.5869 C   0  0  0  0  0  0  0  0  0  0  0  0
   -1.0889   -2.9536   -0.4194 C   0  0  0  0  0  0  0  0  0  0  0  0
   -0.0443   -4.2813   -0.8579 S   0  0  0  0  0  6  0  0  0  0  0  0
   -0.8901   -5.5225   -1.8021 C   0  0  0  0  0  0  0  0  0  0  0  0
    1.0388   -3.6993   -1.7713 O   0  0  0  0  0  0  0  0  0  0  0  0
    0.6354   -4.8227    0.3413 O   0  0  0  0  0  0  0  0  0  0  0  0
   -3.7379   -1.5393   -0.2841 C   0  0  0  0  0  0  0  0  0  0  0  0
   -4.6241   -2.6593   -0.6373 C   0  0  0  0  0  0  0  0  0  0  0  0
   -4.2500   -3.5729   -1.5906 C   0  0  0  0  0  0  0  0  0  0  0  0
   -5.0885   -4.6344   -1.9036 C   0  0  0  0  0  0  0  0  0  0  0  0
   -6.3055   -4.7393   -1.2276 C   0  0  0  0  0  0  0  0  0  0  0  0
   -6.6980   -3.8326   -0.2685 C   0  0  0  0  0  0  0  0  0  0  0  0
   -5.8521   -2.7908    0.0250 C   0  0  0  0  0  0  0  0  0  0  0  0
    4.4690    1.1071   -1.7971 C   0  0  0  0  0  0  0  0  0  0  0  0
    4.8233   -0.0080   -2.6863 C   0  0  0  0  0  0  0  0  0  0  0  0
    5.4822   -0.1162   -3.8844 C   0  0  0  0  0  0  0  0  0  0  0  0
    5.6921   -1.2860   -4.5364 C   0  0  0  0  0  0  0  0  0  0  0  0
    5.2063   -2.4534   -3.9495 C   0  0  0  0  0  0  0  0  0  0  0  0
    4.5434   -2.3780   -2.7524 C   0  0  0  0  0  0  0  0  0  0  0  0
    4.3441   -1.1606   -2.1084 C   0  0  0  0  0  0  0  0  0  0  0  0
    1.9674   -1.6229    0.0701 H   0  0  0  0  0  0  0  0  0  0  0  0
    3.5040   -1.7968    1.0300 H   0  0  0  0  0  0  0  0  0  0  0  0
    3.2358   -2.8373   -0.4408 H   0  0  0  0  0  0  0  0  0  0  0  0
    2.2368   -0.0584    1.6744 H   0  0  0  0  0  0  0  0  0  0  0  0
    2.4420    2.9261    2.2122 H   0  0  0  0  0  0  0  0  0  0  0  0
    3.5573    2.1454    4.1235 H   0  0  0  0  0  0  0  0  0  0  0  0
    1.9044    1.7825    4.6690 H   0  0  0  0  0  0  0  0  0  0  0  0
    2.8252    0.4536    3.9263 H   0  0  0  0  0  0  0  0  0  0  0  0
   -0.0301    1.0045    0.9718 H   0  0  0  0  0  0  0  0  0  0  0  0
   -1.9621    2.0533    3.0991 H   0  0  0  0  0  0  0  0  0  0  0  0
   -2.5207    2.5538    0.1456 H   0  0  0  0  0  0  0  0  0  0  0  0
   -3.4783    2.9038    1.6023 H   0  0  0  0  0  0  0  0  0  0  0  0
   -3.1872    5.0362    2.8716 H   0  0  0  0  0  0  0  0  0  0  0  0
   -1.5191    7.0914    2.7521 H   0  0  0  0  0  0  0  0  0  0  0  0
    0.8087    7.6422    1.3715 H   0  0  0  0  0  0  0  0  0  0  0  0
    2.3649    6.6899   -0.2501 H   0  0  0  0  0  0  0  0  0  0  0  0
    2.0192    4.4169   -1.1826 H   0  0  0  0  0  0  0  0  0  0  0  0
    0.0682    3.0683   -0.4725 H   0  0  0  0  0  0  0  0  0  0  0  0
   -1.0674   -0.6735    0.8031 H   0  0  0  0  0  0  0  0  0  0  0  0
   -3.5615   -2.0422    1.7441 H   0  0  0  0  0  0  0  0  0  0  0  0
   -2.0028   -3.9465    1.1255 H   0  0  0  0  0  0  0  0  0  0  0  0
   -1.0706   -1.9919   -0.9596 H   0  0  0  0  0  0  0  0  0  0  0  0
   -0.1578   -6.2916   -2.0507 H   0  0  0  0  0  0  0  0  0  0  0  0
   -1.2827   -5.0109   -2.7172 H   0  0  0  0  0  0  0  0  0  0  0  0
   -1.7398   -5.8792   -1.2023 H   0  0  0  0  0  0  0  0  0  0  0  0
   -4.3353   -0.6724    0.0767 H   0  0  0  0  0  0  0  0  0  0  0  0
   -3.1019   -1.3106   -1.1543 H   0  0  0  0  0  0  0  0  0  0  0  0
   -3.2983   -3.5107   -2.1453 H   0  0  0  0  0  0  0  0  0  0  0  0
   -4.7903   -5.3558   -2.6557 H   0  0  0  0  0  0  0  0  0  0  0  0
   -6.9528   -5.5747   -1.4819 H   0  0  0  0  0  0  0  0  0  0  0  0
   -7.6638   -3.9463    0.2463 H   0  0  0  0  0  0  0  0  0  0  0  0
   -6.1516   -2.0624    0.7895 H   0  0  0  0  0  0  0  0  0  0  0  0
    5.3807    1.6248   -1.3977 H   0  0  0  0  0  0  0  0  0  0  0  0
    3.8290    1.8543   -2.3153 H   0  0  0  0  0  0  0  0  0  0  0  0
    5.8645    0.7953   -4.3479 H   0  0  0  0  0  0  0  0  0  0  0  0
    6.2097   -1.3765   -5.4800 H   0  0  0  0  0  0  0  0  0  0  0  0
    5.3679   -3.3867   -4.4626 H   0  0  0  0  0  0  0  0  0  0  0  0
    4.1787   -3.3031   -2.3228 H   0  0  0  0  0  0  0  0  0  0  0  0
  1  2  1  0
  2  3  2  0
  3  4  1  0
  4  5  2  0
  4  6  1  0
  6  7  1  0
  7  8  1  0
  7  9  1  0
  9 10  2  0
  9 11  1  0
 11 12  1  0
 12 13  1  0
 13 14  1  0
 14 15  2  0
 15 16  1  0
 16 17  1  0
 17 18  2  0
 18 19  1  0
 19 20  2  0
 20 21  1  0
 21 22  2  0
 12 23  1  0
 23 24  2  0
 23 25  1  0
 25 26  1  0
 26 27  1  0
 27 28  2  0
 28 29  1  0
 29 30  1  0
 29 31  2  0
 29 32  2  0
 26 33  1  0
 33 34  1  0
 34 35  2  0
 35 36  1  0
 36 37  2  0
 37 38  1  0
 38 39  2  0
  3 40  1  0
 40 41  1  0
 41 42  2  0
 42 43  1  0
 43 44  2  0
 44 45  1  0
 45 46  2  0
 46  2  1  0
 22 14  1  0
 39 34  1  0
 46 41  1  0
 22 17  1  0
  1 47  1  0
  1 48  1  0
  1 49  1  0
  6 50  1  0
  7 51  1  6
  8 52  1  0
  8 53  1  0
  8 54  1  0
 11 55  1  0
 12 56  1  1
 13 57  1  0
 13 58  1  0
 15 59  1  0
 16 60  1  0
 18 61  1  0
 19 62  1  0
 20 63  1  0
 21 64  1  0
 25 65  1  0
 26 66  1  1
 27 67  1  0
 28 68  1  0
 30 69  1  0
 30 70  1  0
 30 71  1  0
 33 72  1  0
 33 73  1  0
 35 74  1  0
 36 75  1  0
 37 76  1  0
 38 77  1  0
 39 78  1  0
 40 79  1  0
 40 80  1  0
 42 81  1  0
 43 82  1  0
 44 83  1  0
 45 84  1  0
M  END
$$$$
