@<TRIPOS>MOLECULE
*****
 48 51 0 0 0
SMALL
GASTEIGER

@<TRIPOS>ATOM
      1 C           2.4432   -2.0510   -1.2991 C.3     1  UNL1       -0.0368
      2 C           2.3322   -1.0318   -0.2062 C.3     1  UNL1        0.0940
      3 N           1.1315   -0.2565   -0.2374 N.2     1  UNL1       -0.1778
      4 N          -0.0199   -0.6380   -0.5160 N.2     1  UNL1       -0.1321
      5 C          -1.0968    0.3069   -0.4892 C.ar    1  UNL1        0.1966
      6 N          -0.8100    1.5928   -0.1992 N.ar    1  UNL1       -0.2233
      7 C          -1.7229    2.5421   -0.1571 C.ar    1  UNL1        0.0916
      8 C          -1.4305    3.8747    0.1431 C.ar    1  UNL1       -0.0342
      9 C          -2.3922    4.8518    0.1834 C.ar    1  UNL1       -0.0596
     10 C          -3.6987    4.4920   -0.0852 C.ar    1  UNL1       -0.0596
     11 C          -4.0002    3.1812   -0.3825 C.ar    1  UNL1       -0.0342
     12 C          -3.0410    2.1919   -0.4257 C.ar    1  UNL1        0.0896
     13 N          -3.3294    0.9065   -0.7157 N.ar    1  UNL1       -0.2460
     14 C          -2.3895   -0.0484   -0.7546 C.ar    1  UNL1        0.0920
     15 C          -2.7471   -1.4219   -1.0601 C.3     1  UNL1        0.0185
     16 C          -2.8375   -2.3563    0.0579 C.ar    1  UNL1       -0.0415
     17 C          -1.7881   -3.1989    0.3320 C.ar    1  UNL1       -0.0582
     18 C          -1.8239   -4.1031    1.3974 C.ar    1  UNL1       -0.0615
     19 C          -2.9512   -4.1419    2.1896 C.ar    1  UNL1       -0.0617
     20 C          -4.0145   -3.3178    1.9453 C.ar    1  UNL1       -0.0615
     21 C          -3.9361   -2.4501    0.8940 C.ar    1  UNL1       -0.0582
     22 C           3.5258   -0.1305   -0.1616 C.ar    1  UNL1       -0.0214
     23 C           3.6300    0.9901   -0.9734 C.ar    1  UNL1       -0.0531
     24 C           4.7319    1.8180   -0.9308 C.ar    1  UNL1       -0.0199
     25 C           5.7674    1.5456   -0.0687 C.ar    1  UNL1        0.1169
     26 O           6.8848    2.3332    0.0151 O.3     1  UNL1       -0.5068
     27 C           5.6954    0.4313    0.7583 C.ar    1  UNL1       -0.0199
     28 C           4.5866   -0.3666    0.6879 C.ar    1  UNL1       -0.0531
     29 H           3.4607   -2.5229   -1.1856 H       1  UNL1        0.0254
     30 H           1.7195   -2.8688   -1.0798 H       1  UNL1        0.0254
     31 H           2.3353   -1.6325   -2.3140 H       1  UNL1        0.0254
     32 H           2.3334   -1.6017    0.7627 H       1  UNL1        0.0610
     33 H          -0.3838    4.0865    0.3438 H       1  UNL1        0.0639
     34 H          -2.1539    5.8770    0.4161 H       1  UNL1        0.0618
     35 H          -4.4634    5.2545   -0.0557 H       1  UNL1        0.0618
     36 H          -5.0280    2.9204   -0.5895 H       1  UNL1        0.0639
     37 H          -3.6683   -1.4282   -1.7023 H       1  UNL1        0.0378
     38 H          -1.9532   -1.8134   -1.7649 H       1  UNL1        0.0378
     39 H          -0.8673   -3.2345   -0.2519 H       1  UNL1        0.0620
     40 H          -0.9809   -4.7564    1.5915 H       1  UNL1        0.0618
     41 H          -2.9417   -4.8674    3.0190 H       1  UNL1        0.0618
     42 H          -4.8905   -3.3791    2.5964 H       1  UNL1        0.0618
     43 H          -4.7653   -1.7940    0.6881 H       1  UNL1        0.0620
     44 H           2.8321    1.2292   -1.6604 H       1  UNL1        0.0622
     45 H           4.7739    2.6725   -1.5729 H       1  UNL1        0.0654
     46 H           6.9158    3.3328    0.0574 H       1  UNL1        0.2921
     47 H           6.5227    0.2264    1.4372 H       1  UNL1        0.0654
     48 H           4.5038   -1.2454    1.3235 H       1  UNL1        0.0622
@<TRIPOS>BOND
     1     1     2    1
     2     2     3    1
     3     3     4    2
     4     4     5    1
     5     5     6   ar
     6     6     7   ar
     7     7     8   ar
     8     8     9   ar
     9     9    10   ar
    10    10    11   ar
    11    11    12   ar
    12    12    13   ar
    13    13    14   ar
    14    14    15    1
    15    15    16    1
    16    16    17   ar
    17    17    18   ar
    18    18    19   ar
    19    19    20   ar
    20    20    21   ar
    21     2    22    1
    22    22    23   ar
    23    23    24   ar
    24    24    25   ar
    25    25    26    1
    26    25    27   ar
    27    27    28   ar
    28    14     5   ar
    29    21    16   ar
    30    28    22   ar
    31    12     7   ar
    32     1    29    1
    33     1    30    1
    34     1    31    1
    35     2    32    1
    36     8    33    1
    37     9    34    1
    38    10    35    1
    39    11    36    1
    40    15    37    1
    41    15    38    1
    42    17    39    1
    43    18    40    1
    44    19    41    1
    45    20    42    1
    46    21    43    1
    47    23    44    1
    48    24    45    1
    49    26    46    1
    50    27    47    1
    51    28    48    1
