
     RDKit          3D

 48 51  0  0  0  0  0  0  0  0999 V2000
    2.4432   -2.0510   -1.2991 C   0  0  0  0  0  0  0  0  0  0  0  0
    2.3322   -1.0318   -0.2062 C   0  0  0  0  0  0  0  0  0  0  0  0
    1.1315   -0.2565   -0.2374 N   0  0  0  0  0  0  0  0  0  0  0  0
   -0.0199   -0.6380   -0.5160 N   0  0  0  0  0  0  0  0  0  0  0  0
   -1.0968    0.3069   -0.4892 C   0  0  0  0  0  0  0  0  0  0  0  0
   -0.8100    1.5928   -0.1992 N   0  0  0  0  0  0  0  0  0  0  0  0
   -1.7229    2.5421   -0.1571 C   0  0  0  0  0  0  0  0  0  0  0  0
   -1.4305    3.8747    0.1431 C   0  0  0  0  0  0  0  0  0  0  0  0
   -2.3922    4.8518    0.1834 C   0  0  0  0  0  0  0  0  0  0  0  0
   -3.6987    4.4920   -0.0852 C   0  0  0  0  0  0  0  0  0  0  0  0
   -4.0002    3.1812   -0.3825 C   0  0  0  0  0  0  0  0  0  0  0  0
   -3.0410    2.1919   -0.4257 C   0  0  0  0  0  0  0  0  0  0  0  0
   -3.3294    0.9065   -0.7157 N   0  0  0  0  0  0  0  0  0  0  0  0
   -2.3895   -0.0484   -0.7546 C   0  0  0  0  0  0  0  0  0  0  0  0
   -2.7471   -1.4219   -1.0601 C   0  0  0  0  0  0  0  0  0  0  0  0
   -2.8375   -2.3563    0.0579 C   0  0  0  0  0  0  0  0  0  0  0  0
   -1.7881   -3.1989    0.3320 C   0  0  0  0  0  0  0  0  0  0  0  0
   -1.8239   -4.1031    1.3974 C   0  0  0  0  0  0  0  0  0  0  0  0
   -2.9512   -4.1419    2.1896 C   0  0  0  0  0  0  0  0  0  0  0  0
   -4.0145   -3.3178    1.9453 C   0  0  0  0  0  0  0  0  0  0  0  0
   -3.9361   -2.4501    0.8940 C   0  0  0  0  0  0  0  0  0  0  0  0
    3.5258   -0.1305   -0.1616 C   0  0  0  0  0  0  0  0  0  0  0  0
    3.6300    0.9901   -0.9734 C   0  0  0  0  0  0  0  0  0  0  0  0
    4.7319    1.8180   -0.9308 C   0  0  0  0  0  0  0  0  0  0  0  0
    5.7674    1.5456   -0.0687 C   0  0  0  0  0  0  0  0  0  0  0  0
    6.8848    2.3332    0.0151 O   0  0  0  0  0  0  0  0  0  0  0  0
    5.6954    0.4313    0.7583 C   0  0  0  0  0  0  0  0  0  0  0  0
    4.5866   -0.3666    0.6879 C   0  0  0  0  0  0  0  0  0  0  0  0
    3.4607   -2.5229   -1.1856 H   0  0  0  0  0  0  0  0  0  0  0  0
    1.7195   -2.8688   -1.0798 H   0  0  0  0  0  0  0  0  0  0  0  0
    2.3353   -1.6325   -2.3140 H   0  0  0  0  0  0  0  0  0  0  0  0
    2.3334   -1.6017    0.7627 H   0  0  0  0  0  0  0  0  0  0  0  0
   -0.3838    4.0865    0.3438 H   0  0  0  0  0  0  0  0  0  0  0  0
   -2.1539    5.8770    0.4161 H   0  0  0  0  0  0  0  0  0  0  0  0
   -4.4634    5.2545   -0.0557 H   0  0  0  0  0  0  0  0  0  0  0  0
   -5.0280    2.9204   -0.5895 H   0  0  0  0  0  0  0  0  0  0  0  0
   -3.6683   -1.4282   -1.7023 H   0  0  0  0  0  0  0  0  0  0  0  0
   -1.9532   -1.8134   -1.7649 H   0  0  0  0  0  0  0  0  0  0  0  0
   -0.8673   -3.2345   -0.2519 H   0  0  0  0  0  0  0  0  0  0  0  0
   -0.9809   -4.7564    1.5915 H   0  0  0  0  0  0  0  0  0  0  0  0
   -2.9417   -4.8674    3.0190 H   0  0  0  0  0  0  0  0  0  0  0  0
   -4.8905   -3.3791    2.5964 H   0  0  0  0  0  0  0  0  0  0  0  0
   -4.7653   -1.7940    0.6881 H   0  0  0  0  0  0  0  0  0  0  0  0
    2.8321    1.2292   -1.6604 H   0  0  0  0  0  0  0  0  0  0  0  0
    4.7739    2.6725   -1.5729 H   0  0  0  0  0  0  0  0  0  0  0  0
    6.9158    3.3328    0.0574 H   0  0  0  0  0  0  0  0  0  0  0  0
    6.5227    0.2264    1.4372 H   0  0  0  0  0  0  0  0  0  0  0  0
    4.5038   -1.2454    1.3235 H   0  0  0  0  0  0  0  0  0  0  0  0
  1  2  1  0
  2  3  1  0
  3  4  2  3
  4  5  1  0
  5  6  2  0
  6  7  1  0
  7  8  2  0
  8  9  1  0
  9 10  2  0
 10 11  1  0
 11 12  2  0
 12 13  1  0
 13 14  2  0
 14 15  1  0
 15 16  1  0
 16 17  2  0
 17 18  1  0
 18 19  2  0
 19 20  1  0
 20 21  2  0
  2 22  1  0
 22 23  2  0
 23 24  1  0
 24 25  2  0
 25 26  1  0
 25 27  1  0
 27 28  2  0
 14  5  1  0
 21 16  1  0
 28 22  1  0
 12  7  1  0
  1 29  1  0
  1 30  1  0
  1 31  1  0
  2 32  1  0
  8 33  1  0
  9 34  1  0
 10 35  1  0
 11 36  1  0
 15 37  1  0
 15 38  1  0
 17 39  1  0
 18 40  1  0
 19 41  1  0
 20 42  1  0
 21 43  1  0
 23 44  1  0
 24 45  1  0
 26 46  1  0
 27 47  1  0
 28 48  1  0
M  END
$$$$
