
     RDKit          3D

 50 53  0  0  0  0  0  0  0  0999 V2000
   -7.2637    0.9681   -0.7780 N   0  0  0  0  0  0  0  0  0  0  0  0
   -6.5349   -0.1143   -1.4134 C   0  0  0  0  0  0  0  0  0  0  0  0
   -5.3936   -0.5495   -0.5490 C   0  0  0  0  0  0  0  0  0  0  0  0
   -4.1540    0.0412   -0.6844 C   0  0  0  0  0  0  0  0  0  0  0  0
   -3.1403   -0.4210    0.1597 C   0  0  0  0  0  0  0  0  0  0  0  0
   -3.3354   -1.4174    1.0937 C   0  0  0  0  0  0  0  0  0  0  0  0
   -2.1212   -1.6170    1.7472 O   0  0  0  0  0  0  0  0  0  0  0  0
   -1.3615   -0.4218    1.6317 C   0  0  0  0  0  0  0  0  0  0  0  0
   -1.7253    0.0267    0.2340 C   0  0  0  0  0  0  0  0  0  0  0  0
   -1.6033    1.5282    0.1170 C   0  0  0  0  0  0  0  0  0  0  0  0
   -0.2545    1.8812    0.7413 C   0  0  0  0  0  0  0  0  0  0  0  0
    0.7377    0.9311    0.2328 N   0  0  0  0  0  0  0  0  0  0  0  0
    0.5779   -0.2996   -0.5275 C   0  0  0  0  0  0  0  0  0  0  0  0
   -0.8517   -0.6253   -0.7946 C   0  0  0  0  0  0  0  0  0  0  0  0
    2.0499    1.3515    0.5810 C   0  0  0  0  0  0  0  0  0  0  0  0
    2.1747    2.4169    1.2382 O   0  0  0  0  0  0  0  0  0  0  0  0
    3.2172    0.5812    0.1943 C   0  0  0  0  0  0  0  0  0  0  0  0
    4.4285    0.9885    0.5274 C   0  0  0  0  0  0  0  0  0  0  0  0
    5.6405    0.2733    0.1774 C   0  0  0  0  0  0  0  0  0  0  0  0
    5.6712   -0.8945   -0.5313 C   0  0  0  0  0  0  0  0  0  0  0  0
    6.8256   -1.5642   -0.8577 C   0  0  0  0  0  0  0  0  0  0  0  0
    8.0403   -1.0214   -0.4418 C   0  0  0  0  0  0  0  0  0  0  0  0
    8.0763    0.1577    0.2785 C   0  0  0  0  0  0  0  0  0  0  0  0
    6.8677    0.7653    0.5632 C   0  0  0  0  0  0  0  0  0  0  0  0
   -4.5997   -1.9680    1.1795 C   0  0  0  0  0  0  0  0  0  0  0  0
   -5.6526   -1.5516    0.3670 C   0  0  0  0  0  0  0  0  0  0  0  0
   -8.2772    0.8042   -0.9584 H   0  0  0  0  0  0  0  0  0  0  0  0
   -7.1409    0.8214    0.2680 H   0  0  0  0  0  0  0  0  0  0  0  0
   -7.2113   -0.9639   -1.6429 H   0  0  0  0  0  0  0  0  0  0  0  0
   -6.1734    0.2582   -2.3919 H   0  0  0  0  0  0  0  0  0  0  0  0
   -4.0403    0.8087   -1.4175 H   0  0  0  0  0  0  0  0  0  0  0  0
   -0.2975   -0.5755    1.7899 H   0  0  0  0  0  0  0  0  0  0  0  0
   -1.7663    0.3583    2.3234 H   0  0  0  0  0  0  0  0  0  0  0  0
   -1.5134    1.7865   -0.9618 H   0  0  0  0  0  0  0  0  0  0  0  0
   -2.4062    2.0660    0.6258 H   0  0  0  0  0  0  0  0  0  0  0  0
    0.0313    2.9093    0.5228 H   0  0  0  0  0  0  0  0  0  0  0  0
   -0.3637    1.7593    1.8423 H   0  0  0  0  0  0  0  0  0  0  0  0
    1.1229   -0.2282   -1.4941 H   0  0  0  0  0  0  0  0  0  0  0  0
    1.0705   -1.1481    0.0321 H   0  0  0  0  0  0  0  0  0  0  0  0
   -0.9868   -1.7241   -0.7805 H   0  0  0  0  0  0  0  0  0  0  0  0
   -1.1207   -0.2705   -1.7939 H   0  0  0  0  0  0  0  0  0  0  0  0
    3.0823   -0.3227   -0.3653 H   0  0  0  0  0  0  0  0  0  0  0  0
    4.4872    1.9054    1.0896 H   0  0  0  0  0  0  0  0  0  0  0  0
    4.7633   -1.3443   -0.8690 H   0  0  0  0  0  0  0  0  0  0  0  0
    6.8816   -2.4805   -1.4115 H   0  0  0  0  0  0  0  0  0  0  0  0
    9.0362   -1.4360   -0.6241 H   0  0  0  0  0  0  0  0  0  0  0  0
    8.9696    0.6486    0.6401 H   0  0  0  0  0  0  0  0  0  0  0  0
    6.8717    1.7054    1.1358 H   0  0  0  0  0  0  0  0  0  0  0  0
   -4.7189   -2.7494    1.9245 H   0  0  0  0  0  0  0  0  0  0  0  0
   -6.6161   -2.0336    0.4954 H   0  0  0  0  0  0  0  0  0  0  0  0
  1  2  1  0
  2  3  1  0
  3  4  2  0
  4  5  1  0
  5  6  2  0
  6  7  1  0
  7  8  1  0
  8  9  1  0
  9 10  1  0
 10 11  1  0
 11 12  1  0
 12 13  1  0
 13 14  1  0
 12 15  1  0
 15 16  2  0
 15 17  1  0
 17 18  2  0
 18 19  1  0
 19 20  2  0
 20 21  1  0
 21 22  2  0
 22 23  1  0
 23 24  2  0
  6 25  1  0
 25 26  2  0
 26  3  1  0
  9  5  1  0
 14  9  1  0
 24 19  1  0
  1 27  1  0
  1 28  1  0
  2 29  1  0
  2 30  1  0
  4 31  1  0
  8 32  1  0
  8 33  1  0
 10 34  1  0
 10 35  1  0
 11 36  1  0
 11 37  1  0
 13 38  1  0
 13 39  1  0
 14 40  1  0
 14 41  1  0
 17 42  1  0
 18 43  1  0
 20 44  1  0
 21 45  1  0
 22 46  1  0
 23 47  1  0
 24 48  1  0
 25 49  1  0
 26 50  1  0
M  END
$$$$
