@<TRIPOS>MOLECULE
*****
 50 53 0 0 0
SMALL
GASTEIGER

@<TRIPOS>ATOM
      1 N          -7.2637    0.9681   -0.7780 N.3     1  UNL1       -0.3261
      2 C          -6.5349   -0.1143   -1.4134 C.3     1  UNL1        0.0186
      3 C          -5.3936   -0.5495   -0.5490 C.ar    1  UNL1       -0.0333
      4 C          -4.1540    0.0412   -0.6844 C.ar    1  UNL1       -0.0501
      5 C          -3.1403   -0.4210    0.1597 C.ar    1  UNL1        0.0041
      6 C          -3.3354   -1.4174    1.0937 C.ar    1  UNL1        0.1244
      7 O          -2.1212   -1.6170    1.7472 O.3     1  UNL1       -0.4908
      8 C          -1.3615   -0.4218    1.6317 C.3     1  UNL1        0.0994
      9 C          -1.7253    0.0267    0.2340 C.3     1  UNL1        0.0361
     10 C          -1.6033    1.5282    0.1170 C.3     1  UNL1       -0.0242
     11 C          -0.2545    1.8812    0.7413 C.3     1  UNL1        0.0159
     12 N           0.7377    0.9311    0.2328 N.am    1  UNL1       -0.2979
     13 C           0.5779   -0.2996   -0.5275 C.3     1  UNL1        0.0159
     14 C          -0.8517   -0.6253   -0.7946 C.3     1  UNL1       -0.0242
     15 C           2.0499    1.3515    0.5810 C.2     1  UNL1        0.2394
     16 O           2.1747    2.4169    1.2382 O.2     1  UNL1       -0.2706
     17 C           3.2172    0.5812    0.1943 C.2     1  UNL1        0.0009
     18 C           4.4285    0.9885    0.5274 C.2     1  UNL1       -0.0497
     19 C           5.6405    0.2733    0.1774 C.ar    1  UNL1       -0.0249
     20 C           5.6712   -0.8945   -0.5313 C.ar    1  UNL1       -0.0546
     21 C           6.8256   -1.5642   -0.8577 C.ar    1  UNL1       -0.0612
     22 C           8.0403   -1.0214   -0.4418 C.ar    1  UNL1       -0.0617
     23 C           8.0763    0.1577    0.2785 C.ar    1  UNL1       -0.0612
     24 C           6.8677    0.7653    0.5632 C.ar    1  UNL1       -0.0546
     25 C          -4.5997   -1.9680    1.1795 C.ar    1  UNL1       -0.0194
     26 C          -5.6526   -1.5516    0.3670 C.ar    1  UNL1       -0.0539
     27 H          -8.2772    0.8042   -0.9584 H       1  UNL1        0.1185
     28 H          -7.1409    0.8214    0.2680 H       1  UNL1        0.1185
     29 H          -7.2113   -0.9639   -1.6429 H       1  UNL1        0.0471
     30 H          -6.1734    0.2582   -2.3919 H       1  UNL1        0.0471
     31 H          -4.0403    0.8087   -1.4175 H       1  UNL1        0.0625
     32 H          -0.2975   -0.5755    1.7899 H       1  UNL1        0.0705
     33 H          -1.7663    0.3583    2.3234 H       1  UNL1        0.0705
     34 H          -1.5134    1.7865   -0.9618 H       1  UNL1        0.0290
     35 H          -2.4062    2.0660    0.6258 H       1  UNL1        0.0290
     36 H           0.0313    2.9093    0.5228 H       1  UNL1        0.0465
     37 H          -0.3637    1.7593    1.8423 H       1  UNL1        0.0465
     38 H           1.1229   -0.2282   -1.4941 H       1  UNL1        0.0465
     39 H           1.0705   -1.1481    0.0321 H       1  UNL1        0.0465
     40 H          -0.9868   -1.7241   -0.7805 H       1  UNL1        0.0290
     41 H          -1.1207   -0.2705   -1.7939 H       1  UNL1        0.0290
     42 H           3.0823   -0.3227   -0.3653 H       1  UNL1        0.0670
     43 H           4.4872    1.9054    1.0896 H       1  UNL1        0.0625
     44 H           4.7633   -1.3443   -0.8690 H       1  UNL1        0.0623
     45 H           6.8816   -2.4805   -1.4115 H       1  UNL1        0.0618
     46 H           9.0362   -1.4360   -0.6241 H       1  UNL1        0.0618
     47 H           8.9696    0.6486    0.6401 H       1  UNL1        0.0618
     48 H           6.8717    1.7054    1.1358 H       1  UNL1        0.0623
     49 H          -4.7189   -2.7494    1.9245 H       1  UNL1        0.0654
     50 H          -6.6161   -2.0336    0.4954 H       1  UNL1        0.0622
@<TRIPOS>BOND
     1     1     2    1
     2     2     3    1
     3     3     4   ar
     4     4     5   ar
     5     5     6   ar
     6     6     7    1
     7     7     8    1
     8     8     9    1
     9     9    10    1
    10    10    11    1
    11    11    12    1
    12    12    13    1
    13    13    14    1
    14    12    15   am
    15    15    16    2
    16    15    17    1
    17    17    18    2
    18    18    19    1
    19    19    20   ar
    20    20    21   ar
    21    21    22   ar
    22    22    23   ar
    23    23    24   ar
    24     6    25   ar
    25    25    26   ar
    26    26     3   ar
    27     9     5    1
    28    14     9    1
    29    24    19   ar
    30     1    27    1
    31     1    28    1
    32     2    29    1
    33     2    30    1
    34     4    31    1
    35     8    32    1
    36     8    33    1
    37    10    34    1
    38    10    35    1
    39    11    36    1
    40    11    37    1
    41    13    38    1
    42    13    39    1
    43    14    40    1
    44    14    41    1
    45    17    42    1
    46    18    43    1
    47    20    44    1
    48    21    45    1
    49    22    46    1
    50    23    47    1
    51    24    48    1
    52    25    49    1
    53    26    50    1
