@<TRIPOS>MOLECULE
*****
 40 41 0 0 0
SMALL
GASTEIGER

@<TRIPOS>ATOM
      1 O           0.2923    0.9086    0.9766 O.2     1  UNL1       -0.2680
      2 C          -0.2052   -0.2367    0.8329 C.2     1  UNL1        0.2686
      3 N          -1.5408   -0.3468    0.3628 N.am    1  UNL1       -0.1904
      4 O          -2.2765    0.7670    0.0705 O.3     1  UNL1       -0.2769
      5 C          -3.5423    0.4533   -0.3691 C.3     1  UNL1        0.1013
      6 C          -4.2740    1.7273   -0.6648 C.3     1  UNL1        0.1037
      7 O          -4.3738    2.5268    0.4636 O.3     1  UNL1       -0.3872
      8 C          -5.6433    1.4188   -1.2258 C.3     1  UNL1        0.0724
      9 O          -5.5438    0.6250   -2.3462 O.3     1  UNL1       -0.3924
     10 C           0.5310   -1.4543    1.1284 C.ar    1  UNL1        0.0628
     11 C           0.0107   -2.7164    0.9800 C.ar    1  UNL1       -0.0449
     12 C           0.7691   -3.8548    1.2810 C.ar    1  UNL1       -0.0228
     13 C           2.0637   -3.7366    1.7363 C.ar    1  UNL1        0.1603
     14 F           2.8387   -4.8190    2.0416 F       1  UNL1       -0.2024
     15 C           2.6077   -2.4816    1.8932 C.ar    1  UNL1        0.1801
     16 F           3.9002   -2.3636    2.3477 F       1  UNL1       -0.2005
     17 C           1.8514   -1.3835    1.5941 C.ar    1  UNL1        0.0822
     18 N           2.4161   -0.1139    1.7580 N.pl3   1  UNL1       -0.3094
     19 C           3.1275    0.5627    0.7301 C.ar    1  UNL1        0.0671
     20 C           3.3093   -0.0082   -0.5284 C.ar    1  UNL1       -0.0368
     21 C           3.9930    0.6256   -1.5386 C.ar    1  UNL1       -0.0467
     22 C           4.5326    1.8823   -1.3235 C.ar    1  UNL1        0.0162
     23 I           5.5768    2.8243   -2.9013 I       1  UNL1       -0.0437
     24 C           4.3731    2.4689   -0.1048 C.ar    1  UNL1       -0.0115
     25 C           3.6787    1.8135    0.9056 C.ar    1  UNL1        0.1454
     26 F           3.5336    2.4164    2.1070 F       1  UNL1       -0.2035
     27 H          -2.0436   -1.2440    0.2102 H       1  UNL1        0.1828
     28 H          -4.0931   -0.0699    0.4489 H       1  UNL1        0.0610
     29 H          -3.5342   -0.1942   -1.2626 H       1  UNL1        0.0610
     30 H          -3.7160    2.2633   -1.4701 H       1  UNL1        0.0640
     31 H          -3.9039    3.3836    0.3287 H       1  UNL1        0.2100
     32 H          -6.0669    2.4033   -1.5654 H       1  UNL1        0.0584
     33 H          -6.3129    1.0130   -0.4446 H       1  UNL1        0.0584
     34 H          -5.7951   -0.3109   -2.2037 H       1  UNL1        0.2095
     35 H          -0.9915   -2.8747    0.6295 H       1  UNL1        0.0627
     36 H           0.3356   -4.8348    1.1554 H       1  UNL1        0.0647
     37 H           2.3175    0.3702    2.6738 H       1  UNL1        0.1523
     38 H           2.9052   -0.9795   -0.7297 H       1  UNL1        0.0637
     39 H           4.1014    0.1290   -2.4979 H       1  UNL1        0.0628
     40 H           4.7918    3.4405    0.0573 H       1  UNL1        0.0657
@<TRIPOS>BOND
     1     1     2    2
     2     2     3   am
     3     3     4    1
     4     4     5    1
     5     5     6    1
     6     6     7    1
     7     6     8    1
     8     8     9    1
     9     2    10    1
    10    10    11   ar
    11    11    12   ar
    12    12    13   ar
    13    13    14    1
    14    13    15   ar
    15    15    16    1
    16    15    17   ar
    17    17    18    1
    18    18    19    1
    19    19    20   ar
    20    20    21   ar
    21    21    22   ar
    22    22    23    1
    23    22    24   ar
    24    24    25   ar
    25    25    26    1
    26    17    10   ar
    27    25    19   ar
    28     3    27    1
    29     5    28    1
    30     5    29    1
    31     6    30    1
    32     7    31    1
    33     8    32    1
    34     8    33    1
    35     9    34    1
    36    11    35    1
    37    12    36    1
    38    18    37    1
    39    20    38    1
    40    21    39    1
    41    24    40    1
