@<TRIPOS>MOLECULE
*****
 33 34 0 0 0
SMALL
GASTEIGER

@<TRIPOS>ATOM
      1 C           4.8486    2.1222   -0.1638 C.3     1  UNL1        0.0788
      2 O           3.5163    1.9781   -0.5621 O.3     1  UNL1       -0.4950
      3 C           2.7511    0.8519   -0.3739 C.ar    1  UNL1        0.1223
      4 C           3.2212   -0.2874    0.2410 C.ar    1  UNL1       -0.0134
      5 C           2.4020   -1.3696    0.3944 C.ar    1  UNL1        0.0210
      6 C           1.0661   -1.3691   -0.0594 C.ar    1  UNL1        0.2942
      7 N           0.3152   -2.5337    0.1452 N.pl3   1  UNL1        0.0815
      8 O           0.9266   -3.6438    0.1526 O.2     1  UNL1        0.0415
      9 O          -1.0120   -2.5467    0.3282 O.co2   1  UNL1       -0.5760
     10 C           0.5764   -0.2594   -0.6704 C.ar    1  UNL1        0.1130
     11 N          -0.7044   -0.0949   -1.2008 N.pl3   1  UNL1       -0.3085
     12 C          -2.0226   -0.2567   -0.7783 C.ar    1  UNL1        0.0456
     13 C          -2.8514   -1.1045   -1.5890 C.ar    1  UNL1       -0.0397
     14 C          -4.1502   -1.3415   -1.2874 C.ar    1  UNL1       -0.0600
     15 C          -4.6598   -0.7372   -0.1655 C.ar    1  UNL1       -0.0609
     16 C          -3.8951    0.0761    0.6266 C.ar    1  UNL1       -0.0460
     17 C          -2.5343    0.3393    0.3326 C.ar    1  UNL1        0.0799
     18 C          -1.8369    1.2209    1.2482 C.2     1  UNL1        0.3386
     19 O          -2.4591    1.7069    2.2597 O.2     1  UNL1       -0.2451
     20 O          -0.5425    1.6050    1.1497 O.3     1  UNL1       -0.4771
     21 C           1.4625    0.8492   -0.8114 C.ar    1  UNL1        0.0078
     22 H           5.5201    1.3135   -0.4452 H       1  UNL1        0.0660
     23 H           5.2243    3.0994   -0.5383 H       1  UNL1        0.0660
     24 H           4.8220    2.2432    0.9575 H       1  UNL1        0.0660
     25 H           4.2427   -0.2779    0.5839 H       1  UNL1        0.0656
     26 H           2.7620   -2.2667    0.8747 H       1  UNL1        0.0687
     27 H          -0.6597    0.2624   -2.2510 H       1  UNL1        0.1524
     28 H          -2.3772   -1.5545   -2.4712 H       1  UNL1        0.0636
     29 H          -4.7611   -1.9936   -1.9226 H       1  UNL1        0.0618
     30 H          -5.6926   -0.8968    0.1154 H       1  UNL1        0.0618
     31 H          -4.3146    0.5555    1.5251 H       1  UNL1        0.0626
     32 H          -0.2398    2.5696    1.2172 H       1  UNL1        0.2954
     33 H           1.0561    1.7408   -1.3067 H       1  UNL1        0.0675
@<TRIPOS>UNITY_ATOM_ATTR
7 1
charge 1
9 1
charge -1
@<TRIPOS>BOND
     1     1     2    1
     2     2     3    1
     3     3     4   ar
     4     4     5   ar
     5     5     6   ar
     6     6     7    1
     7     7     8    2
     8     7     9    1
     9     6    10   ar
    10    10    11    1
    11    11    12    1
    12    12    13   ar
    13    13    14   ar
    14    14    15   ar
    15    15    16   ar
    16    16    17   ar
    17    17    18    1
    18    18    19    2
    19    18    20    1
    20    10    21   ar
    21    21     3   ar
    22    17    12   ar
    23     1    22    1
    24     1    23    1
    25     1    24    1
    26     4    25    1
    27     5    26    1
    28    11    27    1
    29    13    28    1
    30    14    29    1
    31    15    30    1
    32    16    31    1
    33    20    32    1
    34    21    33    1
