@<TRIPOS>MOLECULE
*****
 45 46 0 0 0
SMALL
GASTEIGER

@<TRIPOS>ATOM
      1 C          -5.7173   -0.4936    1.6409 C.3     1  UNL1       -0.0279
      2 C          -4.5686    0.4594    1.8968 C.3     1  UNL1        0.0991
      3 C          -5.0082    1.8020    2.3740 C.3     1  UNL1       -0.0279
      4 O          -3.7853    0.5077    0.7241 O.3     1  UNL1       -0.4475
      5 C          -2.4553    0.0407    0.6831 C.2     1  UNL1        0.4034
      6 O          -2.0536   -0.4130    1.7830 O.2     1  UNL1       -0.2262
      7 N          -1.6964    0.1002   -0.4986 N.am    1  UNL1       -0.2621
      8 C          -2.1449    0.6238   -1.8006 C.3     1  UNL1        0.0298
      9 C          -1.0291    1.6070   -2.0526 C.3     1  UNL1        0.0199
     10 S          -0.9885    2.1542   -3.7770 S.3     1  UNL1       -0.1732
     11 C           0.2023    0.8124   -1.6850 C.3     1  UNL1       -0.0199
     12 C          -0.3200   -0.3035   -0.7913 C.3     1  UNL1        0.0427
     13 C           0.4740   -0.4744    0.4655 C.3     1  UNL1        0.0150
     14 N           1.7945   -0.8880    0.2778 N.3     1  UNL1       -0.3102
     15 C           2.7596   -0.0608   -0.3185 C.3     1  UNL1        0.0241
     16 C           4.1377   -0.6931   -0.2031 C.ar    1  UNL1        0.0043
     17 C           4.7060   -1.3117   -1.2816 C.ar    1  UNL1       -0.0193
     18 C           5.9343   -1.8925   -1.2072 C.ar    1  UNL1        0.1239
     19 F           6.5038   -2.5106   -2.2833 F       1  UNL1       -0.2055
     20 C           6.6277   -1.8605   -0.0195 C.ar    1  UNL1       -0.0237
     21 C           6.0582   -1.2381    1.0689 C.ar    1  UNL1       -0.0234
     22 C           4.8198   -0.6566    0.9805 C.ar    1  UNL1        0.1280
     23 F           4.3036   -0.0600    2.0683 F       1  UNL1       -0.2052
     24 H          -5.4332   -1.5395    1.9001 H       1  UNL1        0.0265
     25 H          -6.6176   -0.1919    2.2222 H       1  UNL1        0.0265
     26 H          -6.0091   -0.4512    0.5528 H       1  UNL1        0.0265
     27 H          -3.9438    0.0009    2.7085 H       1  UNL1        0.0729
     28 H          -4.9241    2.6083    1.6217 H       1  UNL1        0.0265
     29 H          -4.5063    2.0833    3.3367 H       1  UNL1        0.0265
     30 H          -6.1019    1.7416    2.6307 H       1  UNL1        0.0265
     31 H          -2.1066   -0.2339   -2.5061 H       1  UNL1        0.0476
     32 H          -3.1351    1.0793   -1.7291 H       1  UNL1        0.0476
     33 H          -1.1616    2.4554   -1.3618 H       1  UNL1        0.0426
     34 H          -2.2322    2.7859   -4.0400 H       1  UNL1        0.1020
     35 H           0.8421    1.5015   -1.1100 H       1  UNL1        0.0295
     36 H           0.6777    0.4157   -2.6168 H       1  UNL1        0.0295
     37 H          -0.2936   -1.2507   -1.3612 H       1  UNL1        0.0514
     38 H          -0.0770   -1.2828    1.0545 H       1  UNL1        0.0442
     39 H           0.4213    0.4646    1.0876 H       1  UNL1        0.0442
     40 H           2.2056   -1.5367    0.9832 H       1  UNL1        0.1223
     41 H           2.7763    0.9245    0.1882 H       1  UNL1        0.0474
     42 H           2.6462    0.0750   -1.4207 H       1  UNL1        0.0474
     43 H           4.1660   -1.3389   -2.2117 H       1  UNL1        0.0650
     44 H           7.6058   -2.3224    0.0430 H       1  UNL1        0.0647
     45 H           6.6470   -1.2389    1.9839 H       1  UNL1        0.0647
@<TRIPOS>BOND
     1     1     2    1
     2     2     3    1
     3     2     4    1
     4     4     5    1
     5     5     6    2
     6     5     7   am
     7     7     8    1
     8     8     9    1
     9     9    10    1
    10     9    11    1
    11    11    12    1
    12    12    13    1
    13    13    14    1
    14    14    15    1
    15    15    16    1
    16    16    17   ar
    17    17    18   ar
    18    18    19    1
    19    18    20   ar
    20    20    21   ar
    21    21    22   ar
    22    22    23    1
    23    12     7    1
    24    22    16   ar
    25     1    24    1
    26     1    25    1
    27     1    26    1
    28     2    27    1
    29     3    28    1
    30     3    29    1
    31     3    30    1
    32     8    31    1
    33     8    32    1
    34     9    33    1
    35    10    34    1
    36    11    35    1
    37    11    36    1
    38    12    37    1
    39    13    38    1
    40    13    39    1
    41    14    40    1
    42    15    41    1
    43    15    42    1
    44    17    43    1
    45    20    44    1
    46    21    45    1
