
     RDKit          3D

 45 46  0  0  0  0  0  0  0  0999 V2000
   -5.7173   -0.4936    1.6409 C   0  0  0  0  0  0  0  0  0  0  0  0
   -4.5686    0.4594    1.8968 C   0  0  0  0  0  0  0  0  0  0  0  0
   -5.0082    1.8020    2.3740 C   0  0  0  0  0  0  0  0  0  0  0  0
   -3.7853    0.5077    0.7241 O   0  0  0  0  0  0  0  0  0  0  0  0
   -2.4553    0.0407    0.6831 C   0  0  0  0  0  0  0  0  0  0  0  0
   -2.0536   -0.4130    1.7830 O   0  0  0  0  0  0  0  0  0  0  0  0
   -1.6964    0.1002   -0.4986 N   0  0  0  0  0  0  0  0  0  0  0  0
   -2.1449    0.6238   -1.8006 C   0  0  0  0  0  0  0  0  0  0  0  0
   -1.0291    1.6070   -2.0526 C   0  0  2  0  0  0  0  0  0  0  0  0
   -0.9885    2.1542   -3.7770 S   0  0  0  0  0  0  0  0  0  0  0  0
    0.2023    0.8124   -1.6850 C   0  0  0  0  0  0  0  0  0  0  0  0
   -0.3200   -0.3035   -0.7913 C   0  0  0  0  0  0  0  0  0  0  0  0
    0.4740   -0.4744    0.4655 C   0  0  0  0  0  0  0  0  0  0  0  0
    1.7945   -0.8880    0.2778 N   0  0  0  0  0  0  0  0  0  0  0  0
    2.7596   -0.0608   -0.3185 C   0  0  0  0  0  0  0  0  0  0  0  0
    4.1377   -0.6931   -0.2031 C   0  0  0  0  0  0  0  0  0  0  0  0
    4.7060   -1.3117   -1.2816 C   0  0  0  0  0  0  0  0  0  0  0  0
    5.9343   -1.8925   -1.2072 C   0  0  0  0  0  0  0  0  0  0  0  0
    6.5038   -2.5106   -2.2833 F   0  0  0  0  0  0  0  0  0  0  0  0
    6.6277   -1.8605   -0.0195 C   0  0  0  0  0  0  0  0  0  0  0  0
    6.0582   -1.2381    1.0689 C   0  0  0  0  0  0  0  0  0  0  0  0
    4.8198   -0.6566    0.9805 C   0  0  0  0  0  0  0  0  0  0  0  0
    4.3036   -0.0600    2.0683 F   0  0  0  0  0  0  0  0  0  0  0  0
   -5.4332   -1.5395    1.9001 H   0  0  0  0  0  0  0  0  0  0  0  0
   -6.6176   -0.1919    2.2222 H   0  0  0  0  0  0  0  0  0  0  0  0
   -6.0091   -0.4512    0.5528 H   0  0  0  0  0  0  0  0  0  0  0  0
   -3.9438    0.0009    2.7085 H   0  0  0  0  0  0  0  0  0  0  0  0
   -4.9241    2.6083    1.6217 H   0  0  0  0  0  0  0  0  0  0  0  0
   -4.5063    2.0833    3.3367 H   0  0  0  0  0  0  0  0  0  0  0  0
   -6.1019    1.7416    2.6307 H   0  0  0  0  0  0  0  0  0  0  0  0
   -2.1066   -0.2339   -2.5061 H   0  0  0  0  0  0  0  0  0  0  0  0
   -3.1351    1.0793   -1.7291 H   0  0  0  0  0  0  0  0  0  0  0  0
   -1.1616    2.4554   -1.3618 H   0  0  0  0  0  0  0  0  0  0  0  0
   -2.2322    2.7859   -4.0400 H   0  0  0  0  0  0  0  0  0  0  0  0
    0.8421    1.5015   -1.1100 H   0  0  0  0  0  0  0  0  0  0  0  0
    0.6777    0.4157   -2.6168 H   0  0  0  0  0  0  0  0  0  0  0  0
   -0.2936   -1.2507   -1.3612 H   0  0  0  0  0  0  0  0  0  0  0  0
   -0.0770   -1.2828    1.0545 H   0  0  0  0  0  0  0  0  0  0  0  0
    0.4213    0.4646    1.0876 H   0  0  0  0  0  0  0  0  0  0  0  0
    2.2056   -1.5367    0.9832 H   0  0  0  0  0  0  0  0  0  0  0  0
    2.7763    0.9245    0.1882 H   0  0  0  0  0  0  0  0  0  0  0  0
    2.6462    0.0750   -1.4207 H   0  0  0  0  0  0  0  0  0  0  0  0
    4.1660   -1.3389   -2.2117 H   0  0  0  0  0  0  0  0  0  0  0  0
    7.6058   -2.3224    0.0430 H   0  0  0  0  0  0  0  0  0  0  0  0
    6.6470   -1.2389    1.9839 H   0  0  0  0  0  0  0  0  0  0  0  0
  1  2  1  0
  2  3  1  0
  2  4  1  0
  4  5  1  0
  5  6  2  0
  5  7  1  0
  7  8  1  0
  8  9  1  0
  9 10  1  0
  9 11  1  0
 11 12  1  0
 12 13  1  0
 13 14  1  0
 14 15  1  0
 15 16  1  0
 16 17  2  0
 17 18  1  0
 18 19  1  0
 18 20  2  0
 20 21  1  0
 21 22  2  0
 22 23  1  0
 12  7  1  0
 22 16  1  0
  1 24  1  0
  1 25  1  0
  1 26  1  0
  2 27  1  0
  3 28  1  0
  3 29  1  0
  3 30  1  0
  8 31  1  0
  8 32  1  0
  9 33  1  1
 10 34  1  0
 11 35  1  0
 11 36  1  0
 12 37  1  0
 13 38  1  0
 13 39  1  0
 14 40  1  0
 15 41  1  0
 15 42  1  0
 17 43  1  0
 20 44  1  0
 21 45  1  0
M  END
$$$$
