@<TRIPOS>MOLECULE
*****
 29 31 0 0 0
SMALL
GASTEIGER

@<TRIPOS>ATOM
      1 O          -1.8066    2.6729    0.8896 O.2     1  UNL1       -0.2869
      2 C          -1.2713    1.6100    0.5052 C.ar    1  UNL1        0.1966
      3 C           0.1283    1.5429    0.5024 C.ar    1  UNL1        0.0288
      4 C           0.7293    0.3882    0.0851 C.ar    1  UNL1        0.1392
      5 C           2.1767    0.2203    0.0458 C.ar    1  UNL1        0.0174
      6 C           3.0394    1.2202    0.4288 C.ar    1  UNL1       -0.0511
      7 C           4.4328    1.0702    0.3953 C.ar    1  UNL1       -0.0611
      8 C           4.9402   -0.1234   -0.0378 C.ar    1  UNL1       -0.0617
      9 C           4.1029   -1.1324   -0.4238 C.ar    1  UNL1       -0.0611
     10 C           2.7411   -0.9772   -0.3879 C.ar    1  UNL1       -0.0511
     11 O          -0.0163   -0.6293   -0.3027 O.2     1  UNL1       -0.4544
     12 C          -1.3256   -0.5948   -0.3105 C.ar    1  UNL1        0.1462
     13 C          -2.0636   -1.7040   -0.7320 C.ar    1  UNL1        0.0231
     14 C          -3.4411   -1.6445   -0.7316 C.ar    1  UNL1        0.1239
     15 O          -4.1716   -2.7685   -1.1585 O.3     1  UNL1       -0.5065
     16 C          -4.1538   -0.5314   -0.3314 C.ar    1  UNL1        0.0223
     17 C          -3.3910    0.5656    0.0860 C.ar    1  UNL1        0.1347
     18 O          -4.0141    1.7376    0.5093 O.3     1  UNL1       -0.5058
     19 C          -2.0163    0.5264    0.0930 C.ar    1  UNL1        0.1055
     20 H           0.6771    2.4054    0.8297 H       1  UNL1        0.0693
     21 H           2.6252    2.1523    0.7668 H       1  UNL1        0.0625
     22 H           5.0759    1.8800    0.7046 H       1  UNL1        0.0618
     23 H           6.0026   -0.2919   -0.0834 H       1  UNL1        0.0618
     24 H           4.4890   -2.1024   -0.7762 H       1  UNL1        0.0618
     25 H           2.0520   -1.7660   -0.6902 H       1  UNL1        0.0625
     26 H          -1.5437   -2.6139   -1.0601 H       1  UNL1        0.0691
     27 H          -4.7333   -3.2265   -0.4404 H       1  UNL1        0.2921
     28 H          -5.2237   -0.4666   -0.3243 H       1  UNL1        0.0691
     29 H          -4.0406    2.5807   -0.0484 H       1  UNL1        0.2922
@<TRIPOS>BOND
     1     1     2    2
     2     2     3   ar
     3     3     4   ar
     4     4     5    1
     5     5     6   ar
     6     6     7   ar
     7     7     8   ar
     8     8     9   ar
     9     9    10   ar
    10     4    11   ar
    11    11    12   ar
    12    12    13   ar
    13    13    14   ar
    14    14    15    1
    15    14    16   ar
    16    16    17   ar
    17    17    18    1
    18    17    19   ar
    19    19     2   ar
    20    10     5   ar
    21    19    12   ar
    22     3    20    1
    23     6    21    1
    24     7    22    1
    25     8    23    1
    26     9    24    1
    27    10    25    1
    28    13    26    1
    29    15    27    1
    30    16    28    1
    31    18    29    1
