
     RDKit          3D

 29 31  0  0  0  0  0  0  0  0999 V2000
   -1.8066    2.6729    0.8896 O   0  0  0  0  0  0  0  0  0  0  0  0
   -1.2713    1.6100    0.5052 C   0  0  0  0  0  0  0  0  0  0  0  0
    0.1283    1.5429    0.5024 C   0  0  0  0  0  0  0  0  0  0  0  0
    0.7293    0.3882    0.0851 C   0  0  0  0  0  0  0  0  0  0  0  0
    2.1767    0.2203    0.0458 C   0  0  0  0  0  0  0  0  0  0  0  0
    3.0394    1.2202    0.4288 C   0  0  0  0  0  0  0  0  0  0  0  0
    4.4328    1.0702    0.3953 C   0  0  0  0  0  0  0  0  0  0  0  0
    4.9402   -0.1234   -0.0378 C   0  0  0  0  0  0  0  0  0  0  0  0
    4.1029   -1.1324   -0.4238 C   0  0  0  0  0  0  0  0  0  0  0  0
    2.7411   -0.9772   -0.3879 C   0  0  0  0  0  0  0  0  0  0  0  0
   -0.0163   -0.6293   -0.3027 O   0  0  0  0  0  0  0  0  0  0  0  0
   -1.3256   -0.5948   -0.3105 C   0  0  0  0  0  0  0  0  0  0  0  0
   -2.0636   -1.7040   -0.7320 C   0  0  0  0  0  0  0  0  0  0  0  0
   -3.4411   -1.6445   -0.7316 C   0  0  0  0  0  0  0  0  0  0  0  0
   -4.1716   -2.7685   -1.1585 O   0  0  0  0  0  0  0  0  0  0  0  0
   -4.1538   -0.5314   -0.3314 C   0  0  0  0  0  0  0  0  0  0  0  0
   -3.3910    0.5656    0.0860 C   0  0  0  0  0  0  0  0  0  0  0  0
   -4.0141    1.7376    0.5093 O   0  0  0  0  0  0  0  0  0  0  0  0
   -2.0163    0.5264    0.0930 C   0  0  0  0  0  0  0  0  0  0  0  0
    0.6771    2.4054    0.8297 H   0  0  0  0  0  0  0  0  0  0  0  0
    2.6252    2.1523    0.7668 H   0  0  0  0  0  0  0  0  0  0  0  0
    5.0759    1.8800    0.7046 H   0  0  0  0  0  0  0  0  0  0  0  0
    6.0026   -0.2919   -0.0834 H   0  0  0  0  0  0  0  0  0  0  0  0
    4.4890   -2.1024   -0.7762 H   0  0  0  0  0  0  0  0  0  0  0  0
    2.0520   -1.7660   -0.6902 H   0  0  0  0  0  0  0  0  0  0  0  0
   -1.5437   -2.6139   -1.0601 H   0  0  0  0  0  0  0  0  0  0  0  0
   -4.7333   -3.2265   -0.4404 H   0  0  0  0  0  0  0  0  0  0  0  0
   -5.2237   -0.4666   -0.3243 H   0  0  0  0  0  0  0  0  0  0  0  0
   -4.0406    2.5807   -0.0484 H   0  0  0  0  0  0  0  0  0  0  0  0
  1  2  2  0
  2  3  1  0
  3  4  2  0
  4  5  1  0
  5  6  2  0
  6  7  1  0
  7  8  2  0
  8  9  1  0
  9 10  2  0
  4 11  1  0
 11 12  1  0
 12 13  2  0
 13 14  1  0
 14 15  1  0
 14 16  2  0
 16 17  1  0
 17 18  1  0
 17 19  2  0
 19  2  1  0
 10  5  1  0
 19 12  1  0
  3 20  1  0
  6 21  1  0
  7 22  1  0
  8 23  1  0
  9 24  1  0
 10 25  1  0
 13 26  1  0
 15 27  1  0
 16 28  1  0
 18 29  1  0
M  END
$$$$
