@<TRIPOS>MOLECULE
*****
 69 74 0 0 0
SMALL
GASTEIGER

@<TRIPOS>ATOM
      1 C          -5.9436    2.0571    1.2649 C.3     1  UNL1       -0.0380
      2 C          -6.5060    0.8740    0.5739 C.ar    1  UNL1       -0.0279
      3 C          -7.5259    1.1375   -0.3259 C.ar    1  UNL1       -0.0557
      4 C          -8.1351    0.0913   -0.9774 C.ar    1  UNL1       -0.0433
      5 C          -7.6931   -1.1795   -0.6969 C.ar    1  UNL1        0.0279
      6 N          -6.7075   -1.3985    0.1747 N.ar    1  UNL1       -0.2583
      7 C          -6.0623   -0.3891    0.8542 C.ar    1  UNL1        0.0581
      8 C          -4.9520   -0.7425    1.7694 C.3     1  UNL1        0.0415
      9 N          -3.7060   -0.6645    1.1292 N.3     1  UNL1       -0.2965
     10 C          -3.1645    0.5528    0.7147 C.3     1  UNL1        0.0017
     11 C          -1.6692    0.5192    0.4684 C.3     1  UNL1       -0.0095
     12 C          -1.2192   -0.6467   -0.3348 C.3     1  UNL1        0.1240
     13 C          -2.0580   -1.8606   -0.2987 C.3     1  UNL1       -0.0095
     14 C          -3.3913   -1.8010    0.3020 C.3     1  UNL1        0.0017
     15 C           0.1309   -1.0320    0.2313 C.2     1  UNL1        0.2516
     16 O           0.3109   -1.8053    1.2142 O.2     1  UNL1       -0.2724
     17 N           1.1707   -0.3986   -0.5022 N.am    1  UNL1       -0.1920
     18 C           2.5298   -0.3160   -0.1044 C.ar    1  UNL1        0.0455
     19 C           2.9816    0.7478    0.6399 C.ar    1  UNL1       -0.0392
     20 C           4.2850    0.8690    1.0604 C.ar    1  UNL1       -0.0523
     21 C           5.1927   -0.1100    0.7305 C.ar    1  UNL1       -0.0178
     22 C           6.5761    0.0229    1.1889 C.ar    1  UNL1       -0.0178
     23 C           7.6101   -0.4894    0.4408 C.ar    1  UNL1       -0.0533
     24 C           8.9360   -0.3882    0.8424 C.ar    1  UNL1       -0.0472
     25 C           9.2043    0.2538    2.0391 C.ar    1  UNL1        0.0589
     26 C          10.5657    0.3906    2.5160 C.2     1  UNL1        0.3368
     27 O          10.7738    0.9805    3.6008 O.2     1  UNL1       -0.2451
     28 O          11.6572   -0.1067    1.8194 O.3     1  UNL1       -0.4771
     29 C           8.1717    0.7652    2.7854 C.ar    1  UNL1       -0.0472
     30 C           6.8657    0.6586    2.3778 C.ar    1  UNL1       -0.0533
     31 C           4.7681   -1.1847   -0.0135 C.ar    1  UNL1       -0.0523
     32 C           3.4460   -1.2902   -0.4300 C.ar    1  UNL1       -0.0392
     33 C           0.5299    0.1109   -1.6810 C.2     1  UNL1        0.3219
     34 O           1.1818    0.7477   -2.5753 O.2     1  UNL1       -0.2512
     35 N          -0.8571   -0.1973   -1.6747 N.am    1  UNL1       -0.2241
     36 C          -1.7722   -0.1013   -2.7590 C.ar    1  UNL1        0.1328
     37 C          -1.4235    0.3036   -4.0327 C.ar    1  UNL1       -0.0031
     38 C          -2.3284    0.3950   -5.0753 C.ar    1  UNL1        0.0326
     39 N          -3.6084    0.0714   -4.8261 N.ar    1  UNL1       -0.2436
     40 C          -3.9743   -0.3247   -3.5994 C.ar    1  UNL1        0.1180
     41 N          -3.0839   -0.4079   -2.5991 N.ar    1  UNL1       -0.2203
     42 H          -5.2535    2.6166    0.6055 H       1  UNL1        0.0278
     43 H          -5.4938    1.8281    2.2376 H       1  UNL1        0.0278
     44 H          -6.7837    2.7864    1.4599 H       1  UNL1        0.0278
     45 H          -7.8441    2.1563   -0.5182 H       1  UNL1        0.0621
     46 H          -8.9418    0.2879   -1.6904 H       1  UNL1        0.0633
     47 H          -8.1685   -2.0116   -1.2061 H       1  UNL1        0.0829
     48 H          -5.1312   -1.8004    2.1133 H       1  UNL1        0.0491
     49 H          -5.0052   -0.1337    2.7022 H       1  UNL1        0.0491
     50 H          -3.6831    0.9975   -0.1552 H       1  UNL1        0.0427
     51 H          -3.2735    1.2965    1.5594 H       1  UNL1        0.0427
     52 H          -1.1756    0.5725    1.4701 H       1  UNL1        0.0303
     53 H          -1.4233    1.4593   -0.0688 H       1  UNL1        0.0303
     54 H          -1.4846   -2.7214    0.1633 H       1  UNL1        0.0303
     55 H          -2.1676   -2.2062   -1.3758 H       1  UNL1        0.0303
     56 H          -3.5757   -2.7036    0.9245 H       1  UNL1        0.0427
     57 H          -4.1946   -1.8631   -0.4916 H       1  UNL1        0.0427
     58 H           2.2930    1.5346    0.9162 H       1  UNL1        0.0636
     59 H           4.6216    1.7128    1.6446 H       1  UNL1        0.0624
     60 H           7.4519   -1.0062   -0.5127 H       1  UNL1        0.0624
     61 H           9.7682   -0.7783    0.2804 H       1  UNL1        0.0626
     62 H          12.6020    0.2688    1.9417 H       1  UNL1        0.2954
     63 H           8.3889    1.2691    3.7272 H       1  UNL1        0.0626
     64 H           6.0807    1.0884    3.0188 H       1  UNL1        0.0624
     65 H           5.4876   -1.9554   -0.2730 H       1  UNL1        0.0624
     66 H           3.1800   -2.1597   -1.0112 H       1  UNL1        0.0636
     67 H          -0.3985    0.5646   -4.2417 H       1  UNL1        0.0667
     68 H          -1.9781    0.7217   -6.0478 H       1  UNL1        0.0831
     69 H          -5.0038   -0.5835   -3.4041 H       1  UNL1        0.1047
@<TRIPOS>BOND
     1     1     2    1
     2     2     3   ar
     3     3     4   ar
     4     4     5   ar
     5     5     6   ar
     6     6     7   ar
     7     7     8    1
     8     8     9    1
     9     9    10    1
    10    10    11    1
    11    11    12    1
    12    12    13    1
    13    13    14    1
    14    12    15    1
    15    15    16    2
    16    15    17   am
    17    17    18    1
    18    18    19   ar
    19    19    20   ar
    20    20    21   ar
    21    21    22    1
    22    22    23   ar
    23    23    24   ar
    24    24    25   ar
    25    25    26    1
    26    26    27    2
    27    26    28    1
    28    25    29   ar
    29    29    30   ar
    30    21    31   ar
    31    31    32   ar
    32    17    33   am
    33    33    34    2
    34    33    35   am
    35    35    36    1
    36    36    37   ar
    37    37    38   ar
    38    38    39   ar
    39    39    40   ar
    40    40    41   ar
    41     7     2   ar
    42    14     9    1
    43    32    18   ar
    44    41    36   ar
    45    35    12    1
    46    30    22   ar
    47     1    42    1
    48     1    43    1
    49     1    44    1
    50     3    45    1
    51     4    46    1
    52     5    47    1
    53     8    48    1
    54     8    49    1
    55    10    50    1
    56    10    51    1
    57    11    52    1
    58    11    53    1
    59    13    54    1
    60    13    55    1
    61    14    56    1
    62    14    57    1
    63    19    58    1
    64    20    59    1
    65    23    60    1
    66    24    61    1
    67    28    62    1
    68    29    63    1
    69    30    64    1
    70    31    65    1
    71    32    66    1
    72    37    67    1
    73    38    68    1
    74    40    69    1
