
     RDKit          3D

 69 74  0  0  0  0  0  0  0  0999 V2000
   -5.9436    2.0571    1.2649 C   0  0  0  0  0  0  0  0  0  0  0  0
   -6.5060    0.8740    0.5739 C   0  0  0  0  0  0  0  0  0  0  0  0
   -7.5259    1.1375   -0.3259 C   0  0  0  0  0  0  0  0  0  0  0  0
   -8.1351    0.0913   -0.9774 C   0  0  0  0  0  0  0  0  0  0  0  0
   -7.6931   -1.1795   -0.6969 C   0  0  0  0  0  0  0  0  0  0  0  0
   -6.7075   -1.3985    0.1747 N   0  0  0  0  0  0  0  0  0  0  0  0
   -6.0623   -0.3891    0.8542 C   0  0  0  0  0  0  0  0  0  0  0  0
   -4.9520   -0.7425    1.7694 C   0  0  0  0  0  0  0  0  0  0  0  0
   -3.7060   -0.6645    1.1292 N   0  0  0  0  0  0  0  0  0  0  0  0
   -3.1645    0.5528    0.7147 C   0  0  0  0  0  0  0  0  0  0  0  0
   -1.6692    0.5192    0.4684 C   0  0  0  0  0  0  0  0  0  0  0  0
   -1.2192   -0.6467   -0.3348 C   0  0  0  0  0  0  0  0  0  0  0  0
   -2.0580   -1.8606   -0.2987 C   0  0  0  0  0  0  0  0  0  0  0  0
   -3.3913   -1.8010    0.3020 C   0  0  0  0  0  0  0  0  0  0  0  0
    0.1309   -1.0320    0.2313 C   0  0  0  0  0  0  0  0  0  0  0  0
    0.3109   -1.8053    1.2142 O   0  0  0  0  0  0  0  0  0  0  0  0
    1.1707   -0.3986   -0.5022 N   0  0  0  0  0  0  0  0  0  0  0  0
    2.5298   -0.3160   -0.1044 C   0  0  0  0  0  0  0  0  0  0  0  0
    2.9816    0.7478    0.6399 C   0  0  0  0  0  0  0  0  0  0  0  0
    4.2850    0.8690    1.0604 C   0  0  0  0  0  0  0  0  0  0  0  0
    5.1927   -0.1100    0.7305 C   0  0  0  0  0  0  0  0  0  0  0  0
    6.5761    0.0229    1.1889 C   0  0  0  0  0  0  0  0  0  0  0  0
    7.6101   -0.4894    0.4408 C   0  0  0  0  0  0  0  0  0  0  0  0
    8.9360   -0.3882    0.8424 C   0  0  0  0  0  0  0  0  0  0  0  0
    9.2043    0.2538    2.0391 C   0  0  0  0  0  0  0  0  0  0  0  0
   10.5657    0.3906    2.5160 C   0  0  0  0  0  0  0  0  0  0  0  0
   10.7738    0.9805    3.6008 O   0  0  0  0  0  0  0  0  0  0  0  0
   11.6572   -0.1067    1.8194 O   0  0  0  0  0  0  0  0  0  0  0  0
    8.1717    0.7652    2.7854 C   0  0  0  0  0  0  0  0  0  0  0  0
    6.8657    0.6586    2.3778 C   0  0  0  0  0  0  0  0  0  0  0  0
    4.7681   -1.1847   -0.0135 C   0  0  0  0  0  0  0  0  0  0  0  0
    3.4460   -1.2902   -0.4300 C   0  0  0  0  0  0  0  0  0  0  0  0
    0.5299    0.1109   -1.6810 C   0  0  0  0  0  0  0  0  0  0  0  0
    1.1818    0.7477   -2.5753 O   0  0  0  0  0  0  0  0  0  0  0  0
   -0.8571   -0.1973   -1.6747 N   0  0  0  0  0  0  0  0  0  0  0  0
   -1.7722   -0.1013   -2.7590 C   0  0  0  0  0  0  0  0  0  0  0  0
   -1.4235    0.3036   -4.0327 C   0  0  0  0  0  0  0  0  0  0  0  0
   -2.3284    0.3950   -5.0753 C   0  0  0  0  0  0  0  0  0  0  0  0
   -3.6084    0.0714   -4.8261 N   0  0  0  0  0  0  0  0  0  0  0  0
   -3.9743   -0.3247   -3.5994 C   0  0  0  0  0  0  0  0  0  0  0  0
   -3.0839   -0.4079   -2.5991 N   0  0  0  0  0  0  0  0  0  0  0  0
   -5.2535    2.6166    0.6055 H   0  0  0  0  0  0  0  0  0  0  0  0
   -5.4938    1.8281    2.2376 H   0  0  0  0  0  0  0  0  0  0  0  0
   -6.7837    2.7864    1.4599 H   0  0  0  0  0  0  0  0  0  0  0  0
   -7.8441    2.1563   -0.5182 H   0  0  0  0  0  0  0  0  0  0  0  0
   -8.9418    0.2879   -1.6904 H   0  0  0  0  0  0  0  0  0  0  0  0
   -8.1685   -2.0116   -1.2061 H   0  0  0  0  0  0  0  0  0  0  0  0
   -5.1312   -1.8004    2.1133 H   0  0  0  0  0  0  0  0  0  0  0  0
   -5.0052   -0.1337    2.7022 H   0  0  0  0  0  0  0  0  0  0  0  0
   -3.6831    0.9975   -0.1552 H   0  0  0  0  0  0  0  0  0  0  0  0
   -3.2735    1.2965    1.5594 H   0  0  0  0  0  0  0  0  0  0  0  0
   -1.1756    0.5725    1.4701 H   0  0  0  0  0  0  0  0  0  0  0  0
   -1.4233    1.4593   -0.0688 H   0  0  0  0  0  0  0  0  0  0  0  0
   -1.4846   -2.7214    0.1633 H   0  0  0  0  0  0  0  0  0  0  0  0
   -2.1676   -2.2062   -1.3758 H   0  0  0  0  0  0  0  0  0  0  0  0
   -3.5757   -2.7036    0.9245 H   0  0  0  0  0  0  0  0  0  0  0  0
   -4.1946   -1.8631   -0.4916 H   0  0  0  0  0  0  0  0  0  0  0  0
    2.2930    1.5346    0.9162 H   0  0  0  0  0  0  0  0  0  0  0  0
    4.6216    1.7128    1.6446 H   0  0  0  0  0  0  0  0  0  0  0  0
    7.4519   -1.0062   -0.5127 H   0  0  0  0  0  0  0  0  0  0  0  0
    9.7682   -0.7783    0.2804 H   0  0  0  0  0  0  0  0  0  0  0  0
   12.6020    0.2688    1.9417 H   0  0  0  0  0  0  0  0  0  0  0  0
    8.3889    1.2691    3.7272 H   0  0  0  0  0  0  0  0  0  0  0  0
    6.0807    1.0884    3.0188 H   0  0  0  0  0  0  0  0  0  0  0  0
    5.4876   -1.9554   -0.2730 H   0  0  0  0  0  0  0  0  0  0  0  0
    3.1800   -2.1597   -1.0112 H   0  0  0  0  0  0  0  0  0  0  0  0
   -0.3985    0.5646   -4.2417 H   0  0  0  0  0  0  0  0  0  0  0  0
   -1.9781    0.7217   -6.0478 H   0  0  0  0  0  0  0  0  0  0  0  0
   -5.0038   -0.5835   -3.4041 H   0  0  0  0  0  0  0  0  0  0  0  0
  1  2  1  0
  2  3  2  0
  3  4  1  0
  4  5  2  0
  5  6  1  0
  6  7  2  0
  7  8  1  0
  8  9  1  0
  9 10  1  0
 10 11  1  0
 11 12  1  0
 12 13  1  0
 13 14  1  0
 12 15  1  0
 15 16  2  0
 15 17  1  0
 17 18  1  0
 18 19  2  0
 19 20  1  0
 20 21  2  0
 21 22  1  0
 22 23  2  0
 23 24  1  0
 24 25  2  0
 25 26  1  0
 26 27  2  0
 26 28  1  0
 25 29  1  0
 29 30  2  0
 21 31  1  0
 31 32  2  0
 17 33  1  0
 33 34  2  0
 33 35  1  0
 35 36  1  0
 36 37  2  0
 37 38  1  0
 38 39  2  0
 39 40  1  0
 40 41  2  0
  7  2  1  0
 14  9  1  0
 32 18  1  0
 41 36  1  0
 35 12  1  0
 30 22  1  0
  1 42  1  0
  1 43  1  0
  1 44  1  0
  3 45  1  0
  4 46  1  0
  5 47  1  0
  8 48  1  0
  8 49  1  0
 10 50  1  0
 10 51  1  0
 11 52  1  0
 11 53  1  0
 13 54  1  0
 13 55  1  0
 14 56  1  0
 14 57  1  0
 19 58  1  0
 20 59  1  0
 23 60  1  0
 24 61  1  0
 28 62  1  0
 29 63  1  0
 30 64  1  0
 31 65  1  0
 32 66  1  0
 37 67  1  0
 38 68  1  0
 40 69  1  0
M  END
$$$$
