@<TRIPOS>MOLECULE
*****
 65 68 0 0 0
SMALL
GASTEIGER

@<TRIPOS>ATOM
      1 C          -8.8601   -1.8847   -3.1596 C.3     1  UNL1       -0.0307
      2 C          -9.1883   -2.7272   -1.9534 C.3     1  UNL1        0.0868
      3 O          -8.9181   -2.0997   -0.7289 O.3     1  UNL1       -0.4922
      4 C          -7.6432   -1.7075   -0.3802 C.ar    1  UNL1        0.1205
      5 C          -6.5400   -1.9007   -1.1788 C.ar    1  UNL1       -0.0194
      6 C          -5.2529   -1.4924   -0.8053 C.ar    1  UNL1       -0.0501
      7 C          -5.1122   -0.8837    0.3981 C.ar    1  UNL1       -0.0110
      8 C          -3.8048   -0.4306    0.8527 C.ar    1  UNL1        0.0212
      9 C          -2.5990   -0.4793    0.2987 C.ar    1  UNL1       -0.0450
     10 C          -1.5289    0.0231    0.9420 C.ar    1  UNL1       -0.0275
     11 C          -1.7199    0.5832    2.1783 C.ar    1  UNL1        0.1430
     12 S          -0.7310    1.3201    3.3729 S.O2    1  UNL1        0.0654
     13 O          -0.8121    0.5760    4.7010 O.2     1  UNL1       -0.1525
     14 O          -1.3398    2.7052    3.6706 O.2     1  UNL1       -0.1525
     15 N           0.8760    1.4827    2.9346 N.3     1  UNL1       -0.1754
     16 C           1.0833    2.3011    1.8052 C.3     1  UNL1        0.1282
     17 C           1.4134    3.7070    2.3596 C.2     1  UNL1        0.3238
     18 O           1.4421    3.8759    3.5625 O.2     1  UNL1       -0.2492
     19 O           1.6534    4.6743    1.4185 O.3     1  UNL1       -0.4795
     20 C           2.2128    2.0073    0.8961 C.3     1  UNL1       -0.0113
     21 C           2.2101    0.6627    0.2504 C.3     1  UNL1       -0.0337
     22 C           3.5956    0.4385   -0.3692 C.3     1  UNL1        0.0208
     23 N           4.5728    0.1940    0.6737 N.3     1  UNL1       -0.1766
     24 S           6.1791    0.4701    0.1198 S.O2    1  UNL1        0.0609
     25 O           6.3478    1.8613   -0.4235 O.2     1  UNL1       -0.1528
     26 O           7.1893    0.2694    1.1842 O.2     1  UNL1       -0.1528
     27 C           6.5265   -0.6404   -1.1965 C.ar    1  UNL1        0.1055
     28 C           7.0792   -1.8815   -0.9629 C.ar    1  UNL1       -0.0353
     29 C           7.3368   -2.7241   -2.0177 C.ar    1  UNL1       -0.0599
     30 C           7.0676   -2.3901   -3.3222 C.ar    1  UNL1       -0.0616
     31 C           6.5140   -1.1483   -3.5609 C.ar    1  UNL1       -0.0599
     32 C           6.2542   -0.3012   -2.5093 C.ar    1  UNL1       -0.0353
     33 C           4.2654    0.9814    1.8528 C.3     1  UNL1        0.0208
     34 C           3.5615    2.2496    1.5353 C.3     1  UNL1       -0.0337
     35 S          -3.5020    0.3607    2.3854 S.2     1  UNL1       -0.0686
     36 C          -6.1955   -0.6735    1.2252 C.ar    1  UNL1       -0.0501
     37 C          -7.4550   -1.0741    0.8571 C.ar    1  UNL1       -0.0194
     38 H          -8.3983   -0.9174   -2.8649 H       1  UNL1        0.0262
     39 H          -9.8135   -1.6081   -3.6624 H       1  UNL1        0.0262
     40 H          -8.2637   -2.4114   -3.9267 H       1  UNL1        0.0262
     41 H          -8.5238   -3.6355   -1.9775 H       1  UNL1        0.0694
     42 H         -10.2515   -3.0353   -2.0311 H       1  UNL1        0.0694
     43 H          -6.6953   -2.4013   -2.1350 H       1  UNL1        0.0654
     44 H          -4.4237   -1.6593   -1.4510 H       1  UNL1        0.0625
     45 H          -2.4741   -0.9450   -0.7172 H       1  UNL1        0.0630
     46 H          -0.4814    0.0116    0.5424 H       1  UNL1        0.0643
     47 H           1.4606    0.6458    2.9913 H       1  UNL1        0.1490
     48 H           0.1471    2.5239    1.2706 H       1  UNL1        0.0595
     49 H           1.8740    5.6496    1.6701 H       1  UNL1        0.2951
     50 H           2.1504    2.8093    0.0784 H       1  UNL1        0.0322
     51 H           2.0486   -0.1294    0.9892 H       1  UNL1        0.0281
     52 H           1.4491    0.6729   -0.5700 H       1  UNL1        0.0281
     53 H           3.8667    1.3958   -0.8553 H       1  UNL1        0.0444
     54 H           3.5193   -0.3424   -1.1204 H       1  UNL1        0.0444
     55 H           7.3125   -2.1954    0.0573 H       1  UNL1        0.0637
     56 H           7.7756   -3.7102   -1.8387 H       1  UNL1        0.0618
     57 H           7.2744   -3.0655   -4.1623 H       1  UNL1        0.0618
     58 H           6.2886   -0.8465   -4.5565 H       1  UNL1        0.0618
     59 H           5.8124    0.6853   -2.7199 H       1  UNL1        0.0637
     60 H           5.2614    1.2516    2.3013 H       1  UNL1        0.0444
     61 H           3.7807    0.3235    2.5821 H       1  UNL1        0.0444
     62 H           3.3412    2.7420    2.5303 H       1  UNL1        0.0281
     63 H           4.1848    2.9893    1.0044 H       1  UNL1        0.0281
     64 H          -6.0881   -0.1875    2.1880 H       1  UNL1        0.0625
     65 H          -8.3123   -0.9147    1.4973 H       1  UNL1        0.0654
@<TRIPOS>BOND
     1     1     2    1
     2     2     3    1
     3     3     4    1
     4     4     5   ar
     5     5     6   ar
     6     6     7   ar
     7     7     8    1
     8     8     9   ar
     9     9    10   ar
    10    10    11   ar
    11    11    12    1
    12    12    13    2
    13    12    14    2
    14    12    15    1
    15    15    16    1
    16    16    17    1
    17    17    18    2
    18    17    19    1
    19    16    20    1
    20    20    21    1
    21    21    22    1
    22    22    23    1
    23    23    24    1
    24    24    25    2
    25    24    26    2
    26    24    27    1
    27    27    28   ar
    28    28    29   ar
    29    29    30   ar
    30    30    31   ar
    31    31    32   ar
    32    23    33    1
    33    33    34    1
    34    11    35   ar
    35     7    36   ar
    36    36    37   ar
    37    37     4   ar
    38    35     8   ar
    39    34    20    1
    40    32    27   ar
    41     1    38    1
    42     1    39    1
    43     1    40    1
    44     2    41    1
    45     2    42    1
    46     5    43    1
    47     6    44    1
    48     9    45    1
    49    10    46    1
    50    15    47    1
    51    16    48    1
    52    19    49    1
    53    20    50    1
    54    21    51    1
    55    21    52    1
    56    22    53    1
    57    22    54    1
    58    28    55    1
    59    29    56    1
    60    30    57    1
    61    31    58    1
    62    32    59    1
    63    33    60    1
    64    33    61    1
    65    34    62    1
    66    34    63    1
    67    36    64    1
    68    37    65    1
