
     RDKit          3D

 39 42  0  0  0  0  0  0  0  0999 V2000
   -4.9198    3.5254    0.0728 N   0  0  0  0  0  0  0  0  0  0  0  0
   -4.6467    2.6663    0.0185 C   0  0  0  0  0  0  0  0  0  0  0  0
   -4.1760    1.1192   -0.0772 C   0  0  0  0  0  0  0  0  0  0  0  0
   -2.9260    1.0193   -0.5657 C   0  0  0  0  0  0  0  0  0  0  0  0
   -2.3301   -0.3132   -0.6544 C   0  0  0  0  0  0  0  0  0  0  0  0
   -1.0836   -0.5554   -1.2799 C   0  0  0  0  0  0  0  0  0  0  0  0
   -1.0929   -1.1104   -2.5734 N   0  0  0  0  0  0  0  0  0  0  0  0
    0.2364   -1.1566   -3.0227 C   0  0  0  0  0  0  0  0  0  0  0  0
    0.9161   -0.6490   -1.9988 N   0  0  0  0  0  0  0  0  0  0  0  0
    2.3764   -0.3635   -2.0458 C   0  0  0  0  0  0  0  0  0  0  0  0
    2.4078    1.0338   -2.7224 C   0  0  0  0  0  0  0  0  0  0  0  0
    3.7139    1.4734   -2.7275 F   0  0  0  0  0  0  0  0  0  0  0  0
    1.9786    0.8822   -4.0484 F   0  0  0  0  0  0  0  0  0  0  0  0
    0.1839   -0.2886   -0.9517 C   0  0  0  0  0  0  0  0  0  0  0  0
    0.7780    0.1686    0.3274 C   0  0  0  0  0  0  0  0  0  0  0  0
    0.9964    1.3675    0.7180 C   0  0  0  0  0  0  0  0  0  0  0  0
    1.7843    1.7808    1.8308 C   0  0  0  0  0  0  0  0  0  0  0  0
    2.2953    0.6825    2.4720 C   0  0  0  0  0  0  0  0  0  0  0  0
    3.1598    0.6325    3.5757 N   0  0  0  0  0  0  0  0  0  0  0  0
    3.4124   -0.6197    3.8345 C   0  0  0  0  0  0  0  0  0  0  0  0
    2.7936   -1.4737    3.0113 C   0  0  0  0  0  0  0  0  0  0  0  0
    2.6758   -2.9134    2.9269 C   0  0  0  0  0  0  0  0  0  0  0  0
    2.5796   -4.0433    2.8556 N   0  0  0  0  0  0  0  0  0  0  0  0
    2.1063   -0.6148    2.1527 N   0  0  0  0  0  0  0  0  0  0  0  0
    1.3422   -0.9068    1.0652 N   0  0  0  0  0  0  0  0  0  0  0  0
   -3.1849   -1.2560   -0.2124 C   0  0  0  0  0  0  0  0  0  0  0  0
   -4.4504   -1.1759    0.2831 C   0  0  0  0  0  0  0  0  0  0  0  0
   -5.0131    0.2193    0.3498 C   0  0  0  0  0  0  0  0  0  0  0  0
   -6.2599    0.3571    0.8108 F   0  0  0  0  0  0  0  0  0  0  0  0
   -2.2958    1.8161   -0.9048 H   0  0  0  0  0  0  0  0  0  0  0  0
    0.4874   -1.5232   -3.9712 H   0  0  0  0  0  0  0  0  0  0  0  0
    2.8210   -0.2505   -1.0703 H   0  0  0  0  0  0  0  0  0  0  0  0
    2.9449   -1.0285   -2.6548 H   0  0  0  0  0  0  0  0  0  0  0  0
    1.7847    1.7104   -2.1536 H   0  0  0  0  0  0  0  0  0  0  0  0
    0.4795    2.2357    0.2113 H   0  0  0  0  0  0  0  0  0  0  0  0
    1.8980    2.7742    2.0639 H   0  0  0  0  0  0  0  0  0  0  0  0
    4.1007   -0.9872    4.6670 H   0  0  0  0  0  0  0  0  0  0  0  0
   -2.7526   -2.3273   -0.2147 H   0  0  0  0  0  0  0  0  0  0  0  0
   -5.1213   -1.9073    0.6022 H   0  0  0  0  0  0  0  0  0  0  0  0
  1  2  3  0
  2  3  1  0
  3  4  2  0
  4  5  1  0
  5  6  1  0
  6  7  1  0
  7  8  2  0
  8  9  1  0
  9 10  1  0
 10 11  1  0
 11 12  1  0
 11 13  1  0
  9 14  1  0
 14 15  1  0
 15 16  1  0
 16 17  2  0
 17 18  1  0
 18 19  2  0
 19 20  1  0
 20 21  2  0
 21 22  1  0
 22 23  3  0
 21 24  1  0
 24 25  1  0
  5 26  2  0
 26 27  1  0
 27 28  2  0
 28 29  1  0
 28  3  1  0
 14  6  2  0
 25 15  2  0
 24 18  1  0
  4 30  1  0
  8 31  1  0
 10 32  1  0
 10 33  1  0
 11 34  1  0
 16 35  1  0
 17 36  1  0
 20 37  1  0
 26 38  1  0
 27 39  1  0
M  END
$$$$
