@<TRIPOS>MOLECULE
*****
 39 42 0 0 0
SMALL
GASTEIGER

@<TRIPOS>ATOM
      1 N          -4.9198    3.5254    0.0728 N.1     1  UNL1       -0.1908
      2 C          -4.6467    2.6663    0.0185 C.1     1  UNL1        0.1021
      3 C          -4.1760    1.1192   -0.0772 C.ar    1  UNL1        0.0875
      4 C          -2.9260    1.0193   -0.5657 C.ar    1  UNL1       -0.0323
      5 C          -2.3301   -0.3132   -0.6544 C.ar    1  UNL1        0.0039
      6 C          -1.0836   -0.5554   -1.2799 C.ar    1  UNL1        0.0983
      7 N          -1.0929   -1.1104   -2.5734 N.ar    1  UNL1       -0.2351
      8 C           0.2364   -1.1566   -3.0227 C.ar    1  UNL1        0.0973
      9 N           0.9161   -0.6490   -1.9988 N.ar    1  UNL1       -0.3229
     10 C           2.3764   -0.3635   -2.0458 C.3     1  UNL1        0.0852
     11 C           2.4078    1.0338   -2.7224 C.3     1  UNL1        0.2569
     12 F           3.7139    1.4734   -2.7275 F       1  UNL1       -0.2073
     13 F           1.9786    0.8822   -4.0484 F       1  UNL1       -0.2073
     14 C           0.1839   -0.2886   -0.9517 C.ar    1  UNL1        0.0968
     15 C           0.7780    0.1686    0.3274 C.ar    1  UNL1        0.1103
     16 C           0.9964    1.3675    0.7180 C.ar    1  UNL1       -0.0290
     17 C           1.7843    1.7808    1.8308 C.ar    1  UNL1       -0.0153
     18 C           2.2953    0.6825    2.4720 C.ar    1  UNL1        0.1555
     19 N           3.1598    0.6325    3.5757 N.ar    1  UNL1       -0.2333
     20 C           3.4124   -0.6197    3.8345 C.ar    1  UNL1        0.0659
     21 C           2.7936   -1.4737    3.0113 C.ar    1  UNL1        0.1618
     22 C           2.6758   -2.9134    2.9269 C.1     1  UNL1        0.1208
     23 N           2.5796   -4.0433    2.8556 N.1     1  UNL1       -0.1892
     24 N           2.1063   -0.6148    2.1527 N.ar    1  UNL1       -0.2023
     25 N           1.3422   -0.9068    1.0652 N.ar    1  UNL1       -0.1623
     26 C          -3.1849   -1.2560   -0.2124 C.ar    1  UNL1       -0.0497
     27 C          -4.4504   -1.1759    0.2831 C.ar    1  UNL1       -0.0245
     28 C          -5.0131    0.2193    0.3498 C.ar    1  UNL1        0.1407
     29 F          -6.2599    0.3571    0.8108 F       1  UNL1       -0.2041
     30 H          -2.2958    1.8161   -0.9048 H       1  UNL1        0.0638
     31 H           0.4874   -1.5232   -3.9712 H       1  UNL1        0.1029
     32 H           2.8210   -0.2505   -1.0703 H       1  UNL1        0.0548
     33 H           2.9449   -1.0285   -2.6548 H       1  UNL1        0.0548
     34 H           1.7847    1.7104   -2.1536 H       1  UNL1        0.1037
     35 H           0.4795    2.2357    0.2113 H       1  UNL1        0.0641
     36 H           1.8980    2.7742    2.0639 H       1  UNL1        0.0655
     37 H           4.1007   -0.9872    4.6670 H       1  UNL1        0.0859
     38 H          -2.7526   -2.3273   -0.2147 H       1  UNL1        0.0625
     39 H          -5.1213   -1.9073    0.6022 H       1  UNL1        0.0647
@<TRIPOS>BOND
     1     1     2    3
     2     2     3    1
     3     3     4   ar
     4     4     5   ar
     5     5     6    1
     6     6     7   ar
     7     7     8   ar
     8     8     9   ar
     9     9    10    1
    10    10    11    1
    11    11    12    1
    12    11    13    1
    13     9    14   ar
    14    14    15    1
    15    15    16   ar
    16    16    17   ar
    17    17    18   ar
    18    18    19   ar
    19    19    20   ar
    20    20    21   ar
    21    21    22    1
    22    22    23    3
    23    21    24   ar
    24    24    25   ar
    25     5    26   ar
    26    26    27   ar
    27    27    28   ar
    28    28    29    1
    29    28     3   ar
    30    14     6   ar
    31    25    15   ar
    32    24    18   ar
    33     4    30    1
    34     8    31    1
    35    10    32    1
    36    10    33    1
    37    11    34    1
    38    16    35    1
    39    17    36    1
    40    20    37    1
    41    26    38    1
    42    27    39    1
