
     RDKit          3D

 53 55  0  0  0  0  0  0  0  0999 V2000
   -0.0905   -3.4109   -0.1961 C   0  0  0  0  0  0  0  0  0  0  0  0
    1.1699   -3.1840    0.0304 C   0  0  0  0  0  0  0  0  0  0  0  0
    1.9679   -4.3455    0.5757 C   0  0  0  0  0  0  0  0  0  0  0  0
    1.8722   -1.9310   -0.1149 C   0  0  0  0  0  0  0  0  0  0  0  0
    3.2865   -1.9454   -0.1665 C   0  0  0  0  0  0  0  0  0  0  0  0
    4.0116   -0.8383   -0.3147 N   0  0  0  0  0  0  0  0  0  0  0  0
    3.4343    0.3711   -0.4253 C   0  0  0  0  0  0  0  0  0  0  0  0
    4.2970    1.5469   -0.5894 C   0  0  0  0  0  0  0  0  0  0  0  0
    3.7974    2.8187   -0.7100 C   0  0  0  0  0  0  0  0  0  0  0  0
    4.6534    3.9119   -0.8647 C   0  0  0  0  0  0  0  0  0  0  0  0
    4.0286    5.5383   -1.0195 Cl  0  0  0  0  0  0  0  0  0  0  0  0
    6.0072    3.7312   -0.8986 C   0  0  0  0  0  0  0  0  0  0  0  0
    6.5185    2.4640   -0.7790 C   0  0  0  0  0  0  0  0  0  0  0  0
    5.6747    1.4094   -0.6290 C   0  0  0  0  0  0  0  0  0  0  0  0
    6.1835    0.1581   -0.5111 F   0  0  0  0  0  0  0  0  0  0  0  0
    2.0659    0.4273   -0.3772 C   0  0  0  0  0  0  0  0  0  0  0  0
    1.2693   -0.7205   -0.2188 C   0  0  0  0  0  0  0  0  0  0  0  0
   -0.1539   -0.4891   -0.1399 N   0  0  0  0  0  0  0  0  0  0  0  0
   -0.7789   -0.7072    1.1097 C   0  0  0  0  0  0  0  0  0  0  0  0
   -0.0039   -1.0704    2.2100 C   0  0  0  0  0  0  0  0  0  0  0  0
   -0.5348   -1.3020    3.4296 C   0  0  0  0  0  0  0  0  0  0  0  0
   -1.8503   -1.1751    3.5752 N   0  0  0  0  0  0  0  0  0  0  0  0
   -2.6475   -0.8329    2.5735 C   0  0  0  0  0  0  0  0  0  0  0  0
   -2.1337   -0.5892    1.3114 C   0  0  0  0  0  0  0  0  0  0  0  0
   -3.0255   -0.2135    0.1978 C   0  0  0  0  0  0  0  0  0  0  0  0
   -2.6074    0.0042   -0.9592 O   0  0  0  0  0  0  0  0  0  0  0  0
   -4.4273   -0.0710    0.3586 N   0  0  0  0  0  0  0  0  0  0  0  0
   -5.3741    0.3058   -0.6671 C   0  0  0  0  0  0  0  0  0  0  0  0
   -5.1846    1.6675   -1.2117 C   0  0  2  0  0  0  0  0  0  0  0  0
   -6.3291    2.0958   -2.1213 C   0  0  0  0  0  0  0  0  0  0  0  0
   -3.9689    1.8579   -1.8140 O   0  0  0  0  0  0  0  0  0  0  0  0
   -0.5591   -4.3878   -0.0001 H   0  0  0  0  0  0  0  0  0  0  0  0
   -0.7557   -2.6963   -0.6281 H   0  0  0  0  0  0  0  0  0  0  0  0
    1.3136   -5.0529    1.0941 H   0  0  0  0  0  0  0  0  0  0  0  0
    2.5421   -4.7638   -0.2632 H   0  0  0  0  0  0  0  0  0  0  0  0
    2.6896   -3.9563    1.3178 H   0  0  0  0  0  0  0  0  0  0  0  0
    3.7507   -2.9141   -0.0794 H   0  0  0  0  0  0  0  0  0  0  0  0
    2.7552    3.0210   -0.6909 H   0  0  0  0  0  0  0  0  0  0  0  0
    6.6636    4.5675   -1.0170 H   0  0  0  0  0  0  0  0  0  0  0  0
    7.5870    2.2740   -0.8005 H   0  0  0  0  0  0  0  0  0  0  0  0
    1.5880    1.3887   -0.4643 H   0  0  0  0  0  0  0  0  0  0  0  0
   -0.5686   -0.1851   -1.0014 H   0  0  0  0  0  0  0  0  0  0  0  0
    1.0860   -1.1637    2.0716 H   0  0  0  0  0  0  0  0  0  0  0  0
    0.1155   -1.5870    4.2705 H   0  0  0  0  0  0  0  0  0  0  0  0
   -3.7088   -0.7438    2.7453 H   0  0  0  0  0  0  0  0  0  0  0  0
   -4.7989   -0.2670    1.3460 H   0  0  0  0  0  0  0  0  0  0  0  0
   -5.3449   -0.4214   -1.5204 H   0  0  0  0  0  0  0  0  0  0  0  0
   -6.3950    0.2584   -0.2227 H   0  0  0  0  0  0  0  0  0  0  0  0
   -5.2257    2.3998   -0.3492 H   0  0  0  0  0  0  0  0  0  0  0  0
   -6.2990    3.2023   -2.1630 H   0  0  0  0  0  0  0  0  0  0  0  0
   -7.2623    1.7515   -1.6508 H   0  0  0  0  0  0  0  0  0  0  0  0
   -6.1795    1.6647   -3.1253 H   0  0  0  0  0  0  0  0  0  0  0  0
   -4.1215    2.1292   -2.7571 H   0  0  0  0  0  0  0  0  0  0  0  0
  1  2  2  3
  2  3  1  0
  2  4  1  0
  4  5  2  0
  5  6  1  0
  6  7  2  0
  7  8  1  0
  8  9  2  0
  9 10  1  0
 10 11  1  0
 10 12  2  0
 12 13  1  0
 13 14  2  0
 14 15  1  0
  7 16  1  0
 16 17  2  0
 17 18  1  0
 18 19  1  0
 19 20  2  0
 20 21  1  0
 21 22  2  0
 22 23  1  0
 23 24  2  0
 24 25  1  0
 25 26  2  0
 25 27  1  0
 27 28  1  0
 28 29  1  0
 29 30  1  0
 29 31  1  0
 17  4  1  0
 24 19  1  0
 14  8  1  0
  1 32  1  0
  1 33  1  0
  3 34  1  0
  3 35  1  0
  3 36  1  0
  5 37  1  0
  9 38  1  0
 12 39  1  0
 13 40  1  0
 16 41  1  0
 18 42  1  0
 20 43  1  0
 21 44  1  0
 23 45  1  0
 27 46  1  0
 28 47  1  0
 28 48  1  0
 29 49  1  1
 30 50  1  0
 30 51  1  0
 30 52  1  0
 31 53  1  0
M  END
$$$$
