@<TRIPOS>MOLECULE
*****
 53 55 0 0 0
SMALL
GASTEIGER

@<TRIPOS>ATOM
      1 C          -0.0905   -3.4109   -0.1961 C.2     1  UNL1       -0.0951
      2 C           1.1699   -3.1840    0.0304 C.2     1  UNL1       -0.0472
      3 C           1.9679   -4.3455    0.5757 C.3     1  UNL1       -0.0396
      4 C           1.8722   -1.9310   -0.1149 C.ar    1  UNL1        0.0166
      5 C           3.2865   -1.9454   -0.1665 C.ar    1  UNL1        0.0374
      6 N           4.0116   -0.8383   -0.3147 N.ar    1  UNL1       -0.2542
      7 C           3.4343    0.3711   -0.4253 C.ar    1  UNL1        0.0755
      8 C           4.2970    1.5469   -0.5894 C.ar    1  UNL1        0.0369
      9 C           3.7974    2.8187   -0.7100 C.ar    1  UNL1       -0.0314
     10 C           4.6534    3.9119   -0.8647 C.ar    1  UNL1        0.0418
     11 CL          4.0286    5.5383   -1.0195 Cl      1  UNL1       -0.0835
     12 C           6.0072    3.7312   -0.8986 C.ar    1  UNL1       -0.0406
     13 C           6.5185    2.4640   -0.7790 C.ar    1  UNL1       -0.0244
     14 C           5.6747    1.4094   -0.6290 C.ar    1  UNL1        0.1326
     15 F           6.1835    0.1581   -0.5111 F       1  UNL1       -0.2048
     16 C           2.0659    0.4273   -0.3772 C.ar    1  UNL1       -0.0138
     17 C           1.2693   -0.7205   -0.2188 C.ar    1  UNL1        0.0423
     18 N          -0.1539   -0.4891   -0.1399 N.pl3   1  UNL1       -0.3133
     19 C          -0.7789   -0.7072    1.1097 C.ar    1  UNL1        0.0465
     20 C          -0.0039   -1.0704    2.2100 C.ar    1  UNL1       -0.0217
     21 C          -0.5348   -1.3020    3.4296 C.ar    1  UNL1        0.0293
     22 N          -1.8503   -1.1751    3.5752 N.ar    1  UNL1       -0.2624
     23 C          -2.6475   -0.8329    2.5735 C.ar    1  UNL1        0.0415
     24 C          -2.1337   -0.5892    1.3114 C.ar    1  UNL1        0.0758
     25 C          -3.0255   -0.2135    0.1978 C.2     1  UNL1        0.2474
     26 O          -2.6074    0.0042   -0.9592 O.2     1  UNL1       -0.2701
     27 N          -4.4273   -0.0710    0.3586 N.am    1  UNL1       -0.3088
     28 C          -5.3741    0.3058   -0.6671 C.3     1  UNL1        0.0377
     29 C          -5.1846    1.6675   -1.2117 C.3     1  UNL1        0.0679
     30 C          -6.3291    2.0958   -2.1213 C.3     1  UNL1       -0.0375
     31 O          -3.9689    1.8579   -1.8140 O.3     1  UNL1       -0.3905
     32 H          -0.5591   -4.3878   -0.0001 H       1  UNL1        0.0538
     33 H          -0.7557   -2.6963   -0.6281 H       1  UNL1        0.0538
     34 H           1.3136   -5.0529    1.0941 H       1  UNL1        0.0278
     35 H           2.5421   -4.7638   -0.2632 H       1  UNL1        0.0278
     36 H           2.6896   -3.9563    1.3178 H       1  UNL1        0.0278
     37 H           3.7507   -2.9141   -0.0794 H       1  UNL1        0.0836
     38 H           2.7552    3.0210   -0.6909 H       1  UNL1        0.0639
     39 H           6.6636    4.5675   -1.0170 H       1  UNL1        0.0633
     40 H           7.5870    2.2740   -0.8005 H       1  UNL1        0.0647
     41 H           1.5880    1.3887   -0.4643 H       1  UNL1        0.0658
     42 H          -0.5686   -0.1851   -1.0014 H       1  UNL1        0.1522
     43 H           1.0860   -1.1637    2.0716 H       1  UNL1        0.0651
     44 H           0.1155   -1.5870    4.2705 H       1  UNL1        0.0830
     45 H          -3.7088   -0.7438    2.7453 H       1  UNL1        0.0838
     46 H          -4.7989   -0.2670    1.3460 H       1  UNL1        0.1491
     47 H          -5.3449   -0.4214   -1.5204 H       1  UNL1        0.0487
     48 H          -6.3950    0.2584   -0.2227 H       1  UNL1        0.0487
     49 H          -5.2257    2.3998   -0.3492 H       1  UNL1        0.0606
     50 H          -6.2990    3.2023   -2.1630 H       1  UNL1        0.0255
     51 H          -7.2623    1.7515   -1.6508 H       1  UNL1        0.0255
     52 H          -6.1795    1.6647   -3.1253 H       1  UNL1        0.0255
     53 H          -4.1215    2.1292   -2.7571 H       1  UNL1        0.2098
@<TRIPOS>BOND
     1     1     2    2
     2     2     3    1
     3     2     4    1
     4     4     5   ar
     5     5     6   ar
     6     6     7   ar
     7     7     8    1
     8     8     9   ar
     9     9    10   ar
    10    10    11    1
    11    10    12   ar
    12    12    13   ar
    13    13    14   ar
    14    14    15    1
    15     7    16   ar
    16    16    17   ar
    17    17    18    1
    18    18    19    1
    19    19    20   ar
    20    20    21   ar
    21    21    22   ar
    22    22    23   ar
    23    23    24   ar
    24    24    25    1
    25    25    26    2
    26    25    27   am
    27    27    28    1
    28    28    29    1
    29    29    30    1
    30    29    31    1
    31    17     4   ar
    32    24    19   ar
    33    14     8   ar
    34     1    32    1
    35     1    33    1
    36     3    34    1
    37     3    35    1
    38     3    36    1
    39     5    37    1
    40     9    38    1
    41    12    39    1
    42    13    40    1
    43    16    41    1
    44    18    42    1
    45    20    43    1
    46    21    44    1
    47    23    45    1
    48    27    46    1
    49    28    47    1
    50    28    48    1
    51    29    49    1
    52    30    50    1
    53    30    51    1
    54    30    52    1
    55    31    53    1
