@<TRIPOS>MOLECULE
*****
 55 59 0 0 0
SMALL
GASTEIGER

@<TRIPOS>ATOM
      1 C          -6.4169   -1.5217    1.3161 C.3     1  UNL1       -0.0397
      2 C          -5.4417   -0.6022    0.6819 C.ar    1  UNL1       -0.0496
      3 C          -5.8457    0.3092   -0.2703 C.ar    1  UNL1       -0.0567
      4 C          -4.8692    1.1433   -0.8249 C.ar    1  UNL1       -0.0336
      5 C          -3.5466    1.0692   -0.4437 C.ar    1  UNL1        0.0982
      6 N          -2.5302    1.9031   -0.9867 N.ar    1  UNL1       -0.1496
      7 N          -2.3329    3.1253   -0.4665 N.ar    1  UNL1       -0.1556
      8 C          -1.3361    3.7328   -1.1200 C.ar    1  UNL1        0.0697
      9 C          -0.9126    2.8361   -2.0784 C.ar    1  UNL1        0.0697
     10 N          -1.6806    1.7252   -1.9538 N.ar    1  UNL1       -0.1556
     11 C          -3.2017    0.1475    0.5043 C.ar    1  UNL1        0.0642
     12 C          -1.8122    0.0583    0.9150 C.2     1  UNL1        0.2491
     13 O          -1.3583    0.7486    1.8769 O.2     1  UNL1       -0.2699
     14 N          -0.9515   -0.8241    0.2171 N.am    1  UNL1       -0.2897
     15 C          -1.4237   -1.6209   -0.8703 C.3     1  UNL1        0.0388
     16 C          -0.8413   -2.9785   -0.8311 C.3     1  UNL1        0.0635
     17 O          -0.1869   -3.3078    0.2945 O.3     1  UNL1       -0.3764
     18 C           0.5795   -2.4214    0.9696 C.3     1  UNL1        0.0666
     19 C           0.4646   -0.9832    0.5513 C.3     1  UNL1        0.0537
     20 C           1.2399   -0.5933   -0.6638 C.3     1  UNL1       -0.0054
     21 C           2.7222   -0.6816   -0.5066 C.ar    1  UNL1       -0.0252
     22 C           3.3964    0.4438   -0.0382 C.ar    1  UNL1       -0.0299
     23 C           4.7440    0.3941    0.1782 C.ar    1  UNL1        0.0865
     24 N           5.3661    1.6019    0.6633 N.ar    1  UNL1       -0.1503
     25 N           5.0043    2.3333    1.7074 N.ar    1  UNL1       -0.1556
     26 C           5.8199    3.3838    1.8472 C.ar    1  UNL1        0.0697
     27 C           6.7457    3.3037    0.8304 C.ar    1  UNL1        0.0697
     28 N           6.4171    2.1899    0.1362 N.ar    1  UNL1       -0.1556
     29 C           5.4777   -0.7511   -0.0539 C.ar    1  UNL1       -0.0332
     30 C           4.7933   -1.8482   -0.5165 C.ar    1  UNL1       -0.0411
     31 C           3.4150   -1.8246   -0.7476 C.ar    1  UNL1        0.0443
     32 CL          2.6540   -3.2835   -1.4203 Cl      1  UNL1       -0.0833
     33 C          -4.1213   -0.7117    1.0958 C.ar    1  UNL1       -0.0446
     34 H          -7.4357   -1.1858    1.0396 H       1  UNL1        0.0278
     35 H          -6.2545   -1.4540    2.4189 H       1  UNL1        0.0278
     36 H          -6.2180   -2.5727    0.9939 H       1  UNL1        0.0278
     37 H          -6.8861    0.3684   -0.5710 H       1  UNL1        0.0621
     38 H          -5.1488    1.8796   -1.5829 H       1  UNL1        0.0640
     39 H          -0.9512    4.7385   -0.9171 H       1  UNL1        0.0864
     40 H          -0.1033    3.0275   -2.7862 H       1  UNL1        0.0864
     41 H          -1.0976   -1.1558   -1.8568 H       1  UNL1        0.0487
     42 H          -2.5376   -1.6100   -0.9603 H       1  UNL1        0.0487
     43 H          -1.7416   -3.6975   -0.9042 H       1  UNL1        0.0575
     44 H          -0.2717   -3.2375   -1.7754 H       1  UNL1        0.0575
     45 H           1.6316   -2.7222    1.1834 H       1  UNL1        0.0578
     46 H           0.1380   -2.4305    2.0441 H       1  UNL1        0.0578
     47 H           0.7156   -0.3128    1.4253 H       1  UNL1        0.0526
     48 H           0.9986    0.4963   -0.8467 H       1  UNL1        0.0332
     49 H           0.9068   -1.1818   -1.5570 H       1  UNL1        0.0332
     50 H           2.8111    1.3574    0.1470 H       1  UNL1        0.0642
     51 H           5.7854    4.1586    2.5979 H       1  UNL1        0.0864
     52 H           7.5513    4.0026    0.6553 H       1  UNL1        0.0864
     53 H           6.5527   -0.7582    0.1302 H       1  UNL1        0.0640
     54 H           5.3219   -2.7765   -0.7164 H       1  UNL1        0.0633
     55 H          -3.7970   -1.4285    1.8456 H       1  UNL1        0.0628
@<TRIPOS>BOND
     1     1     2    1
     2     2     3   ar
     3     3     4   ar
     4     4     5   ar
     5     5     6    1
     6     6     7   ar
     7     7     8   ar
     8     8     9   ar
     9     9    10   ar
    10     5    11   ar
    11    11    12    1
    12    12    13    2
    13    12    14   am
    14    14    15    1
    15    15    16    1
    16    16    17    1
    17    17    18    1
    18    18    19    1
    19    19    20    1
    20    20    21    1
    21    21    22   ar
    22    22    23   ar
    23    23    24    1
    24    24    25   ar
    25    25    26   ar
    26    26    27   ar
    27    27    28   ar
    28    23    29   ar
    29    29    30   ar
    30    30    31   ar
    31    31    32    1
    32    11    33   ar
    33    33     2   ar
    34    10     6   ar
    35    19    14    1
    36    31    21   ar
    37    28    24   ar
    38     1    34    1
    39     1    35    1
    40     1    36    1
    41     3    37    1
    42     4    38    1
    43     8    39    1
    44     9    40    1
    45    15    41    1
    46    15    42    1
    47    16    43    1
    48    16    44    1
    49    18    45    1
    50    18    46    1
    51    19    47    1
    52    20    48    1
    53    20    49    1
    54    22    50    1
    55    26    51    1
    56    27    52    1
    57    29    53    1
    58    30    54    1
    59    33    55    1
