
     RDKit          3D

 33 35  0  0  0  0  0  0  0  0999 V2000
    5.3850   -0.0189   -0.2335 O   0  0  0  0  0  0  0  0  0  0  0  0
    4.6913   -1.0245   -0.1102 C   0  0  0  0  0  0  0  0  0  0  0  0
    5.3954   -2.3691   -0.0610 C   0  0  0  0  0  0  0  0  0  0  0  0
    7.1331   -2.1378   -0.2013 Cl  0  0  0  0  0  0  0  0  0  0  0  0
    3.2975   -0.9589   -0.0162 N   0  0  0  0  0  0  0  0  0  0  0  0
    2.5395    0.2174   -0.0491 C   0  0  0  0  0  0  0  0  0  0  0  0
    2.9977    1.5026   -0.1762 C   0  0  0  0  0  0  0  0  0  0  0  0
    2.1875    2.6294   -0.2018 C   0  0  0  0  0  0  0  0  0  0  0  0
    0.8415    2.4634   -0.0943 C   0  0  0  0  0  0  0  0  0  0  0  0
    0.2995    1.2077    0.0366 C   0  0  0  0  0  0  0  0  0  0  0  0
   -1.1442    1.0413    0.1511 C   0  0  0  0  0  0  0  0  0  0  0  0
   -2.0523    2.0653    0.1400 C   0  0  0  0  0  0  0  0  0  0  0  0
   -3.3834    1.8706    0.2487 N   0  0  0  0  0  0  0  0  0  0  0  0
   -3.8580    0.5968    0.3761 C   0  0  0  0  0  0  0  0  0  0  0  0
   -5.2057    0.3498    0.4898 C   0  0  0  0  0  0  0  0  0  0  0  0
   -5.6896   -0.9234    0.6178 C   0  0  0  0  0  0  0  0  0  0  0  0
   -4.8070   -1.9892    0.6338 C   0  0  0  0  0  0  0  0  0  0  0  0
   -3.4530   -1.7471    0.5201 C   0  0  0  0  0  0  0  0  0  0  0  0
   -2.9773   -0.4543    0.3911 C   0  0  0  0  0  0  0  0  0  0  0  0
   -1.6447   -0.2105    0.2788 N   0  0  0  0  0  0  0  0  0  0  0  0
    1.1420    0.1160    0.0573 C   0  0  0  0  0  0  0  0  0  0  0  0
    5.1021   -2.7904    0.9375 H   0  0  0  0  0  0  0  0  0  0  0  0
    5.0590   -3.0058   -0.9003 H   0  0  0  0  0  0  0  0  0  0  0  0
    2.7986   -1.8770    0.0868 H   0  0  0  0  0  0  0  0  0  0  0  0
    4.0541    1.6883   -0.2647 H   0  0  0  0  0  0  0  0  0  0  0  0
    2.6258    3.6328   -0.3068 H   0  0  0  0  0  0  0  0  0  0  0  0
    0.2299    3.3504   -0.1163 H   0  0  0  0  0  0  0  0  0  0  0  0
   -1.7305    3.0837    0.0422 H   0  0  0  0  0  0  0  0  0  0  0  0
   -5.8693    1.2232    0.4724 H   0  0  0  0  0  0  0  0  0  0  0  0
   -6.7636   -1.1047    0.7073 H   0  0  0  0  0  0  0  0  0  0  0  0
   -5.1593   -3.0050    0.7336 H   0  0  0  0  0  0  0  0  0  0  0  0
   -2.7423   -2.5713    0.5304 H   0  0  0  0  0  0  0  0  0  0  0  0
    0.7007   -0.8508    0.1598 H   0  0  0  0  0  0  0  0  0  0  0  0
  1  2  2  0
  2  3  1  0
  3  4  1  0
  2  5  1  0
  5  6  1  0
  6  7  2  0
  7  8  1  0
  8  9  2  0
  9 10  1  0
 10 11  1  0
 11 12  2  0
 12 13  1  0
 13 14  2  0
 14 15  1  0
 15 16  2  0
 16 17  1  0
 17 18  2  0
 18 19  1  0
 19 20  2  0
 10 21  2  0
 21  6  1  0
 20 11  1  0
 19 14  1  0
  3 22  1  0
  3 23  1  0
  5 24  1  0
  7 25  1  0
  8 26  1  0
  9 27  1  0
 12 28  1  0
 15 29  1  0
 16 30  1  0
 17 31  1  0
 18 32  1  0
 21 33  1  0
M  END
$$$$
