@<TRIPOS>MOLECULE
*****
 33 35 0 0 0
SMALL
GASTEIGER

@<TRIPOS>ATOM
      1 O           5.3850   -0.0189   -0.2335 O.2     1  UNL1       -0.2742
      2 C           4.6913   -1.0245   -0.1102 C.2     1  UNL1        0.2319
      3 C           5.3954   -2.3691   -0.0610 C.3     1  UNL1        0.0992
      4 CL          7.1331   -2.1378   -0.2013 Cl      1  UNL1       -0.1156
      5 N           3.2975   -0.9589   -0.0162 N.am    1  UNL1       -0.2845
      6 C           2.5395    0.2174   -0.0491 C.ar    1  UNL1        0.0340
      7 C           2.9977    1.5026   -0.1762 C.ar    1  UNL1       -0.0404
      8 C           2.1875    2.6294   -0.2018 C.ar    1  UNL1       -0.0594
      9 C           0.8415    2.4634   -0.0943 C.ar    1  UNL1       -0.0524
     10 C           0.2995    1.2077    0.0366 C.ar    1  UNL1        0.0036
     11 C          -1.1442    1.0413    0.1511 C.ar    1  UNL1        0.0898
     12 C          -2.0523    2.0653    0.1400 C.ar    1  UNL1        0.0542
     13 N          -3.3834    1.8706    0.2487 N.ar    1  UNL1       -0.2513
     14 C          -3.8580    0.5968    0.3761 C.ar    1  UNL1        0.0892
     15 C          -5.2057    0.3498    0.4898 C.ar    1  UNL1       -0.0342
     16 C          -5.6896   -0.9234    0.6178 C.ar    1  UNL1       -0.0596
     17 C          -4.8070   -1.9892    0.6338 C.ar    1  UNL1       -0.0596
     18 C          -3.4530   -1.7471    0.5201 C.ar    1  UNL1       -0.0342
     19 C          -2.9773   -0.4543    0.3911 C.ar    1  UNL1        0.0899
     20 N          -1.6447   -0.2105    0.2788 N.ar    1  UNL1       -0.2436
     21 C           1.1420    0.1160    0.0573 C.ar    1  UNL1       -0.0312
     22 H           5.1021   -2.7904    0.9375 H       1  UNL1        0.0525
     23 H           5.0590   -3.0058   -0.9003 H       1  UNL1        0.0525
     24 H           2.7986   -1.8770    0.0868 H       1  UNL1        0.1548
     25 H           4.0541    1.6883   -0.2647 H       1  UNL1        0.0636
     26 H           2.6258    3.6328   -0.3068 H       1  UNL1        0.0618
     27 H           0.2299    3.3504   -0.1163 H       1  UNL1        0.0624
     28 H          -1.7305    3.0837    0.0422 H       1  UNL1        0.0851
     29 H          -5.8693    1.2232    0.4724 H       1  UNL1        0.0639
     30 H          -6.7636   -1.1047    0.7073 H       1  UNL1        0.0618
     31 H          -5.1593   -3.0050    0.7336 H       1  UNL1        0.0618
     32 H          -2.7423   -2.5713    0.5304 H       1  UNL1        0.0639
     33 H           0.7007   -0.8508    0.1598 H       1  UNL1        0.0643
@<TRIPOS>BOND
     1     1     2    2
     2     2     3    1
     3     3     4    1
     4     2     5   am
     5     5     6    1
     6     6     7   ar
     7     7     8   ar
     8     8     9   ar
     9     9    10   ar
    10    10    11    1
    11    11    12   ar
    12    12    13   ar
    13    13    14   ar
    14    14    15   ar
    15    15    16   ar
    16    16    17   ar
    17    17    18   ar
    18    18    19   ar
    19    19    20   ar
    20    10    21   ar
    21    21     6   ar
    22    20    11   ar
    23    19    14   ar
    24     3    22    1
    25     3    23    1
    26     5    24    1
    27     7    25    1
    28     8    26    1
    29     9    27    1
    30    12    28    1
    31    15    29    1
    32    16    30    1
    33    17    31    1
    34    18    32    1
    35    21    33    1
