@<TRIPOS>MOLECULE
*****
 48 49 0 0 0
SMALL
GASTEIGER

@<TRIPOS>ATOM
      1 C           0.5057    0.6926    1.3727 C.3     1  UNL1        0.1022
      2 C           1.1892   -0.4058    2.1489 C.3     1  UNL1       -0.0243
      3 C           0.3079   -1.6061    1.8745 C.3     1  UNL1       -0.0350
      4 C          -0.3470   -1.1934    0.5730 C.3     1  UNL1        0.0155
      5 N          -0.7226    0.1781    0.8526 N.am    1  UNL1       -0.2899
      6 C          -1.9131    0.9303    0.7077 C.2     1  UNL1        0.2162
      7 O          -2.0768    2.1615    1.0058 O.2     1  UNL1       -0.2756
      8 C          -3.0574    0.1543    0.1466 C.3     1  UNL1        0.0244
      9 C          -4.2779    0.9810   -0.0741 C.3     1  UNL1       -0.0424
     10 C          -5.4484    0.2197   -0.6386 C.3     1  UNL1       -0.0463
     11 C          -5.9027   -0.9022    0.2361 C.3     1  UNL1       -0.0627
     12 C          -5.1890   -0.3317   -2.0024 C.3     1  UNL1       -0.0627
     13 C           1.4550    1.0880    0.2757 C.2     1  UNL1        0.2338
     14 O           1.1174    0.9671   -0.9256 O.2     1  UNL1       -0.2738
     15 N           2.7189    1.5907    0.6856 N.am    1  UNL1       -0.3097
     16 C           3.7503    2.0149   -0.2468 C.3     1  UNL1        0.0369
     17 C           4.4400    0.8500   -0.8582 C.ar    1  UNL1       -0.0289
     18 C           4.1284    0.1831   -2.0260 C.ar    1  UNL1       -0.0387
     19 C           4.8772   -0.8888   -2.4450 C.ar    1  UNL1        0.0413
     20 CL          4.3487   -1.6202   -3.9435 Cl      1  UNL1       -0.0835
     21 C           5.9685   -1.3663   -1.7482 C.ar    1  UNL1       -0.0434
     22 C           6.3026   -0.7152   -0.5738 C.ar    1  UNL1       -0.0601
     23 C           5.5497    0.3563   -0.1599 C.ar    1  UNL1       -0.0570
     24 H           0.3510    1.5764    2.0467 H       1  UNL1        0.0597
     25 H           2.2406   -0.5635    1.8363 H       1  UNL1        0.0288
     26 H           1.1036   -0.2104    3.2441 H       1  UNL1        0.0288
     27 H           0.9453   -2.4995    1.6222 H       1  UNL1        0.0281
     28 H          -0.4179   -1.8284    2.6616 H       1  UNL1        0.0281
     29 H          -1.2574   -1.7942    0.3705 H       1  UNL1        0.0465
     30 H           0.3462   -1.2059   -0.2721 H       1  UNL1        0.0465
     31 H          -3.2984   -0.6568    0.8683 H       1  UNL1        0.0358
     32 H          -2.6979   -0.2904   -0.8020 H       1  UNL1        0.0358
     33 H          -4.0536    1.7991   -0.8017 H       1  UNL1        0.0272
     34 H          -4.5573    1.4937    0.8680 H       1  UNL1        0.0272
     35 H          -6.2855    0.9444   -0.7409 H       1  UNL1        0.0296
     36 H          -5.4572   -1.8787    0.0240 H       1  UNL1        0.0232
     37 H          -5.7423   -0.6296    1.3089 H       1  UNL1        0.0232
     38 H          -7.0186   -0.9958    0.1345 H       1  UNL1        0.0232
     39 H          -5.4074    0.3787   -2.8193 H       1  UNL1        0.0232
     40 H          -5.9246   -1.1721   -2.1656 H       1  UNL1        0.0232
     41 H          -4.1940   -0.8044   -2.0958 H       1  UNL1        0.0232
     42 H           2.9421    1.6686    1.7233 H       1  UNL1        0.1491
     43 H           4.5041    2.6350    0.2725 H       1  UNL1        0.0512
     44 H           3.3197    2.6216   -1.0764 H       1  UNL1        0.0512
     45 H           3.2857    0.5669   -2.5487 H       1  UNL1        0.0635
     46 H           6.5249   -2.2103   -2.1159 H       1  UNL1        0.0632
     47 H           7.1434   -1.0814   -0.0346 H       1  UNL1        0.0618
     48 H           5.8807    0.7987    0.7590 H       1  UNL1        0.0621
@<TRIPOS>BOND
     1     1     2    1
     2     2     3    1
     3     3     4    1
     4     4     5    1
     5     5     6   am
     6     6     7    2
     7     6     8    1
     8     8     9    1
     9     9    10    1
    10    10    11    1
    11    10    12    1
    12     1    13    1
    13    13    14    2
    14    13    15   am
    15    15    16    1
    16    16    17    1
    17    17    18   ar
    18    18    19   ar
    19    19    20    1
    20    19    21   ar
    21    21    22   ar
    22    22    23   ar
    23     5     1    1
    24    23    17   ar
    25     1    24    1
    26     2    25    1
    27     2    26    1
    28     3    27    1
    29     3    28    1
    30     4    29    1
    31     4    30    1
    32     8    31    1
    33     8    32    1
    34     9    33    1
    35     9    34    1
    36    10    35    1
    37    11    36    1
    38    11    37    1
    39    11    38    1
    40    12    39    1
    41    12    40    1
    42    12    41    1
    43    15    42    1
    44    16    43    1
    45    16    44    1
    46    18    45    1
    47    21    46    1
    48    22    47    1
    49    23    48    1
