@<TRIPOS>MOLECULE
*****
 51 55 0 0 0
SMALL
GASTEIGER

@<TRIPOS>ATOM
      1 O          -1.9086    0.5945    2.1304 O.2     1  UNL1       -0.2699
      2 C          -2.0361   -0.3427    1.3140 C.2     1  UNL1        0.2491
      3 C          -3.3159   -0.9905    1.0914 C.ar    1  UNL1        0.0641
      4 C          -3.6974   -2.1068    1.8405 C.ar    1  UNL1       -0.0461
      5 C          -4.9090   -2.7146    1.6213 C.ar    1  UNL1       -0.0425
      6 C          -5.7988   -2.2674    0.6701 C.ar    1  UNL1        0.0431
      7 CL         -7.3447   -3.0694    0.4137 Cl      1  UNL1       -0.0835
      8 C          -5.4291   -1.1708   -0.0687 C.ar    1  UNL1       -0.0155
      9 C          -4.2097   -0.5301    0.1262 C.ar    1  UNL1        0.0996
     10 N          -3.8387    0.6081   -0.6476 N.ar    1  UNL1       -0.1495
     11 N          -2.6395    1.1353   -0.8133 N.ar    1  UNL1       -0.1556
     12 C          -2.6898    2.1975   -1.6101 C.ar    1  UNL1        0.0697
     13 C          -4.0089    2.3535   -1.9733 C.ar    1  UNL1        0.0697
     14 N          -4.6766    1.3511   -1.3557 N.ar    1  UNL1       -0.1556
     15 N          -0.8920   -0.7692    0.5990 N.am    1  UNL1       -0.2897
     16 C          -0.9918   -1.8687   -0.3755 C.3     1  UNL1        0.0388
     17 C          -0.1509   -2.9995    0.1738 C.3     1  UNL1        0.0635
     18 O           1.0194   -2.5412    0.7135 O.3     1  UNL1       -0.3764
     19 C           1.4097   -1.2786    0.3524 C.3     1  UNL1        0.0666
     20 C           0.4164   -0.2077    0.7448 C.3     1  UNL1        0.0537
     21 C           0.6828    0.9887   -0.1437 C.3     1  UNL1       -0.0041
     22 C           2.0913    1.4213    0.1570 C.ar    1  UNL1       -0.0097
     23 C           3.1276    1.1375   -0.7129 C.ar    1  UNL1       -0.0450
     24 C           4.4243    1.5318   -0.4386 C.ar    1  UNL1        0.0229
     25 C           5.5276    1.2344   -1.3538 C.ar    1  UNL1        0.2018
     26 N           5.4788    0.8842   -2.6610 N.ar    1  UNL1       -0.1942
     27 C           6.7609    0.7157   -3.0632 C.ar    1  UNL1        0.2147
     28 O           7.5680    0.9560   -2.0319 O.2     1  UNL1       -0.3411
     29 N           6.8239    1.2626   -1.0239 N.ar    1  UNL1       -0.0564
     30 C           4.6864    2.2217    0.7257 C.ar    1  UNL1       -0.0482
     31 C           3.6669    2.5224    1.6203 C.ar    1  UNL1       -0.0255
     32 C           2.3844    2.1128    1.3137 C.ar    1  UNL1        0.1267
     33 F           1.4044    2.4164    2.2003 F       1  UNL1       -0.2052
     34 H          -2.9845   -2.4545    2.5927 H       1  UNL1        0.0626
     35 H          -5.1822   -3.5843    2.2191 H       1  UNL1        0.0632
     36 H          -6.0953   -0.7666   -0.8422 H       1  UNL1        0.0654
     37 H          -1.9100    2.8569   -1.9530 H       1  UNL1        0.0864
     38 H          -4.4354    3.1289   -2.6286 H       1  UNL1        0.0864
     39 H          -0.4702   -1.4989   -1.2860 H       1  UNL1        0.0487
     40 H          -2.0334   -2.1473   -0.5584 H       1  UNL1        0.0487
     41 H          -0.6976   -3.5603    0.9808 H       1  UNL1        0.0575
     42 H           0.0078   -3.6986   -0.6783 H       1  UNL1        0.0575
     43 H           2.4022   -1.0883    0.8122 H       1  UNL1        0.0578
     44 H           1.5524   -1.2223   -0.7499 H       1  UNL1        0.0578
     45 H           0.6324    0.1056    1.7960 H       1  UNL1        0.0526
     46 H           0.0128    1.8228    0.1305 H       1  UNL1        0.0333
     47 H           0.6411    0.7065   -1.2084 H       1  UNL1        0.0333
     48 H           2.9416    0.5958   -1.6346 H       1  UNL1        0.0628
     49 H           7.0600    0.4373   -4.0444 H       1  UNL1        0.1283
     50 H           5.7159    2.5154    0.9080 H       1  UNL1        0.0625
     51 H           3.9073    3.0634    2.5218 H       1  UNL1        0.0646
@<TRIPOS>BOND
     1     1     2    2
     2     2     3    1
     3     3     4   ar
     4     4     5   ar
     5     5     6   ar
     6     6     7    1
     7     6     8   ar
     8     8     9   ar
     9     9    10    1
    10    10    11   ar
    11    11    12   ar
    12    12    13   ar
    13    13    14   ar
    14     2    15   am
    15    15    16    1
    16    16    17    1
    17    17    18    1
    18    18    19    1
    19    19    20    1
    20    20    21    1
    21    21    22    1
    22    22    23   ar
    23    23    24   ar
    24    24    25    1
    25    25    26   ar
    26    26    27   ar
    27    27    28   ar
    28    28    29   ar
    29    24    30   ar
    30    30    31   ar
    31    31    32   ar
    32    32    33    1
    33     9     3   ar
    34    14    10   ar
    35    20    15    1
    36    32    22   ar
    37    29    25   ar
    38     4    34    1
    39     5    35    1
    40     8    36    1
    41    12    37    1
    42    13    38    1
    43    16    39    1
    44    16    40    1
    45    17    41    1
    46    17    42    1
    47    19    43    1
    48    19    44    1
    49    20    45    1
    50    21    46    1
    51    21    47    1
    52    23    48    1
    53    27    49    1
    54    30    50    1
    55    31    51    1
