
     RDKit          3D

 51 55  0  0  0  0  0  0  0  0999 V2000
   -1.9086    0.5945    2.1304 O   0  0  0  0  0  0  0  0  0  0  0  0
   -2.0361   -0.3427    1.3140 C   0  0  0  0  0  0  0  0  0  0  0  0
   -3.3159   -0.9905    1.0914 C   0  0  0  0  0  0  0  0  0  0  0  0
   -3.6974   -2.1068    1.8405 C   0  0  0  0  0  0  0  0  0  0  0  0
   -4.9090   -2.7146    1.6213 C   0  0  0  0  0  0  0  0  0  0  0  0
   -5.7988   -2.2674    0.6701 C   0  0  0  0  0  0  0  0  0  0  0  0
   -7.3447   -3.0694    0.4137 Cl  0  0  0  0  0  0  0  0  0  0  0  0
   -5.4291   -1.1708   -0.0687 C   0  0  0  0  0  0  0  0  0  0  0  0
   -4.2097   -0.5301    0.1262 C   0  0  0  0  0  0  0  0  0  0  0  0
   -3.8387    0.6081   -0.6476 N   0  0  0  0  0  0  0  0  0  0  0  0
   -2.6395    1.1353   -0.8133 N   0  0  0  0  0  0  0  0  0  0  0  0
   -2.6898    2.1975   -1.6101 C   0  0  0  0  0  0  0  0  0  0  0  0
   -4.0089    2.3535   -1.9733 C   0  0  0  0  0  0  0  0  0  0  0  0
   -4.6766    1.3511   -1.3557 N   0  0  0  0  0  0  0  0  0  0  0  0
   -0.8920   -0.7692    0.5990 N   0  0  0  0  0  0  0  0  0  0  0  0
   -0.9918   -1.8687   -0.3755 C   0  0  0  0  0  0  0  0  0  0  0  0
   -0.1509   -2.9995    0.1738 C   0  0  0  0  0  0  0  0  0  0  0  0
    1.0194   -2.5412    0.7135 O   0  0  0  0  0  0  0  0  0  0  0  0
    1.4097   -1.2786    0.3524 C   0  0  0  0  0  0  0  0  0  0  0  0
    0.4164   -0.2077    0.7448 C   0  0  1  0  0  0  0  0  0  0  0  0
    0.6828    0.9887   -0.1437 C   0  0  0  0  0  0  0  0  0  0  0  0
    2.0913    1.4213    0.1570 C   0  0  0  0  0  0  0  0  0  0  0  0
    3.1276    1.1375   -0.7129 C   0  0  0  0  0  0  0  0  0  0  0  0
    4.4243    1.5318   -0.4386 C   0  0  0  0  0  0  0  0  0  0  0  0
    5.5276    1.2344   -1.3538 C   0  0  0  0  0  0  0  0  0  0  0  0
    5.4788    0.8842   -2.6610 N   0  0  0  0  0  0  0  0  0  0  0  0
    6.7609    0.7157   -3.0632 C   0  0  0  0  0  0  0  0  0  0  0  0
    7.5680    0.9560   -2.0319 O   0  0  0  0  0  0  0  0  0  0  0  0
    6.8239    1.2626   -1.0239 N   0  0  0  0  0  0  0  0  0  0  0  0
    4.6864    2.2217    0.7257 C   0  0  0  0  0  0  0  0  0  0  0  0
    3.6669    2.5224    1.6203 C   0  0  0  0  0  0  0  0  0  0  0  0
    2.3844    2.1128    1.3137 C   0  0  0  0  0  0  0  0  0  0  0  0
    1.4044    2.4164    2.2003 F   0  0  0  0  0  0  0  0  0  0  0  0
   -2.9845   -2.4545    2.5927 H   0  0  0  0  0  0  0  0  0  0  0  0
   -5.1822   -3.5843    2.2191 H   0  0  0  0  0  0  0  0  0  0  0  0
   -6.0953   -0.7666   -0.8422 H   0  0  0  0  0  0  0  0  0  0  0  0
   -1.9100    2.8569   -1.9530 H   0  0  0  0  0  0  0  0  0  0  0  0
   -4.4354    3.1289   -2.6286 H   0  0  0  0  0  0  0  0  0  0  0  0
   -0.4702   -1.4989   -1.2860 H   0  0  0  0  0  0  0  0  0  0  0  0
   -2.0334   -2.1473   -0.5584 H   0  0  0  0  0  0  0  0  0  0  0  0
   -0.6976   -3.5603    0.9808 H   0  0  0  0  0  0  0  0  0  0  0  0
    0.0078   -3.6986   -0.6783 H   0  0  0  0  0  0  0  0  0  0  0  0
    2.4022   -1.0883    0.8122 H   0  0  0  0  0  0  0  0  0  0  0  0
    1.5524   -1.2223   -0.7499 H   0  0  0  0  0  0  0  0  0  0  0  0
    0.6324    0.1056    1.7960 H   0  0  0  0  0  0  0  0  0  0  0  0
    0.0128    1.8228    0.1305 H   0  0  0  0  0  0  0  0  0  0  0  0
    0.6411    0.7065   -1.2084 H   0  0  0  0  0  0  0  0  0  0  0  0
    2.9416    0.5958   -1.6346 H   0  0  0  0  0  0  0  0  0  0  0  0
    7.0600    0.4373   -4.0444 H   0  0  0  0  0  0  0  0  0  0  0  0
    5.7159    2.5154    0.9080 H   0  0  0  0  0  0  0  0  0  0  0  0
    3.9073    3.0634    2.5218 H   0  0  0  0  0  0  0  0  0  0  0  0
  1  2  2  0
  2  3  1  0
  3  4  2  0
  4  5  1  0
  5  6  2  0
  6  7  1  0
  6  8  1  0
  8  9  2  0
  9 10  1  0
 10 11  1  0
 11 12  2  0
 12 13  1  0
 13 14  2  0
  2 15  1  0
 15 16  1  0
 16 17  1  0
 17 18  1  0
 18 19  1  0
 19 20  1  0
 20 21  1  0
 21 22  1  0
 22 23  2  0
 23 24  1  0
 24 25  1  0
 25 26  1  0
 26 27  2  0
 27 28  1  0
 28 29  1  0
 24 30  2  0
 30 31  1  0
 31 32  2  0
 32 33  1  0
  9  3  1  0
 14 10  1  0
 20 15  1  0
 32 22  1  0
 29 25  2  0
  4 34  1  0
  5 35  1  0
  8 36  1  0
 12 37  1  0
 13 38  1  0
 16 39  1  0
 16 40  1  0
 17 41  1  0
 17 42  1  0
 19 43  1  0
 19 44  1  0
 20 45  1  1
 21 46  1  0
 21 47  1  0
 23 48  1  0
 27 49  1  0
 30 50  1  0
 31 51  1  0
M  END
$$$$
