@<TRIPOS>MOLECULE
*****
 70 74 0 0 0
SMALL
GASTEIGER

@<TRIPOS>ATOM
      1 O           6.6403   -2.6288    0.3004 O.2     1  UNL1       -0.2702
      2 C           7.1175   -1.4699    0.1335 C.2     1  UNL1        0.2445
      3 N           6.2580   -0.3436    0.0578 N.am    1  UNL1       -0.3027
      4 C           4.8198   -0.5219    0.1733 C.3     1  UNL1        0.0886
      5 C           4.0978    0.7572    0.0672 C.2     1  UNL1        0.2328
      6 O           4.7580    1.8078   -0.1036 O.2     1  UNL1       -0.2739
      7 N           2.6915    0.8141    0.1541 N.am    1  UNL1       -0.2987
      8 C           1.9043    2.0201    0.0571 C.3     1  UNL1        0.0162
      9 C           0.4863    1.5898   -0.2975 C.3     1  UNL1       -0.0202
     10 C           0.4548    0.0927   -0.1417 C.3     1  UNL1        0.0250
     11 N          -0.5873   -0.3104    0.7148 N.3     1  UNL1       -0.3090
     12 C          -1.9292   -0.2530    0.2918 C.3     1  UNL1        0.0081
     13 C          -2.7659   -0.8068    1.4741 C.3     1  UNL1       -0.0346
     14 C          -4.0689   -1.2450    0.9059 C.3     1  UNL1       -0.0170
     15 C          -4.5513   -0.4727   -0.2644 C.3     1  UNL1        0.1077
     16 O          -4.2039   -1.1973   -1.4318 O.3     1  UNL1       -0.3824
     17 C          -6.0396   -0.2871   -0.2437 C.ar    1  UNL1        0.0727
     18 C          -6.9239   -1.1705   -0.8161 C.ar    1  UNL1       -0.0369
     19 C          -8.3059   -0.9411   -0.7680 C.ar    1  UNL1       -0.0488
     20 C          -8.7779    0.1804   -0.1410 C.ar    1  UNL1        0.0252
     21 C         -10.2469    0.4599   -0.0728 C.ar    1  UNL1        0.1096
     22 N         -11.2588   -0.1006   -0.4694 N.ar    1  UNL1       -0.2473
     23 C         -12.4741    0.3083   -0.3101 C.ar    1  UNL1        0.0354
     24 C         -12.6398    1.5010    0.3794 C.ar    1  UNL1       -0.0042
     25 S         -10.9062    1.9118    0.7362 S.2     1  UNL1       -0.0756
     26 C          -7.8698    1.0455    0.4223 C.ar    1  UNL1        0.0377
     27 N          -6.5292    0.7999    0.3623 N.ar    1  UNL1       -0.2563
     28 C          -3.9737    0.8982   -0.4167 C.3     1  UNL1       -0.0170
     29 C          -2.5308    1.0571   -0.0325 C.3     1  UNL1       -0.0346
     30 C           1.8307   -0.3309    0.3553 C.3     1  UNL1        0.0302
     31 C           8.5506   -1.2637    0.0157 C.ar    1  UNL1        0.0372
     32 C           9.3877   -2.3847    0.0697 C.ar    1  UNL1       -0.0496
     33 C          10.7542   -2.2512   -0.0346 C.ar    1  UNL1       -0.0605
     34 C          11.3434   -1.0223   -0.1944 C.ar    1  UNL1       -0.0501
     35 C          10.5452    0.0899   -0.2501 C.ar    1  UNL1        0.0555
     36 C          11.1703    1.4197   -0.4204 C.3     1  UNL1        0.4174
     37 F          11.9843    1.4822   -1.5366 F       1  UNL1       -0.1659
     38 F          11.8955    1.8029    0.6941 F       1  UNL1       -0.1659
     39 F          10.1714    2.3706   -0.5913 F       1  UNL1       -0.1659
     40 C           9.1684   -0.0531   -0.1441 C.ar    1  UNL1       -0.0380
     41 H           6.5818    0.6345   -0.0794 H       1  UNL1        0.1495
     42 H           4.6032   -1.0069    1.1383 H       1  UNL1        0.0558
     43 H           4.5159   -1.1922   -0.6567 H       1  UNL1        0.0558
     44 H           2.2371    2.7216   -0.7103 H       1  UNL1        0.0465
     45 H           1.9501    2.5447    1.0270 H       1  UNL1        0.0465
     46 H          -0.1619    2.1072    0.4351 H       1  UNL1        0.0296
     47 H           0.2225    1.9301   -1.3232 H       1  UNL1        0.0296
     48 H           0.3897   -0.3673   -1.1687 H       1  UNL1        0.0476
     49 H          -0.3892   -1.2592    1.0913 H       1  UNL1        0.1225
     50 H          -2.1109   -0.9976   -0.5177 H       1  UNL1        0.0460
     51 H          -2.8329    0.0024    2.2250 H       1  UNL1        0.0281
     52 H          -2.2475   -1.6872    1.9022 H       1  UNL1        0.0281
     53 H          -3.9563   -2.3229    0.5907 H       1  UNL1        0.0297
     54 H          -4.8875   -1.2846    1.6597 H       1  UNL1        0.0297
     55 H          -4.8376   -1.0161   -2.1660 H       1  UNL1        0.2107
     56 H          -6.5266   -2.0299   -1.2947 H       1  UNL1        0.0637
     57 H          -9.0128   -1.6318   -1.2165 H       1  UNL1        0.0625
     58 H         -13.3436   -0.2762   -0.7113 H       1  UNL1        0.0835
     59 H         -13.5316    2.0956    0.6695 H       1  UNL1        0.0709
     60 H          -8.2724    1.9291    0.9148 H       1  UNL1        0.0836
     61 H          -4.1305    1.2112   -1.4817 H       1  UNL1        0.0297
     62 H          -4.5718    1.6096    0.2056 H       1  UNL1        0.0297
     63 H          -2.0445    1.5904   -0.8777 H       1  UNL1        0.0281
     64 H          -2.4623    1.7572    0.8303 H       1  UNL1        0.0281
     65 H           2.2529   -1.1789   -0.2196 H       1  UNL1        0.0480
     66 H           1.7987   -0.6380    1.4202 H       1  UNL1        0.0480
     67 H           8.9276   -3.3442    0.1945 H       1  UNL1        0.0625
     68 H          11.4051   -3.1255    0.0077 H       1  UNL1        0.0618
     69 H          12.4297   -0.9673   -0.2720 H       1  UNL1        0.0623
     70 H           8.5589    0.8377   -0.1904 H       1  UNL1        0.0631
@<TRIPOS>BOND
     1     1     2    2
     2     2     3   am
     3     3     4    1
     4     4     5    1
     5     5     6    2
     6     5     7   am
     7     7     8    1
     8     8     9    1
     9     9    10    1
    10    10    11    1
    11    11    12    1
    12    12    13    1
    13    13    14    1
    14    14    15    1
    15    15    16    1
    16    15    17    1
    17    17    18   ar
    18    18    19   ar
    19    19    20   ar
    20    20    21    1
    21    21    22   ar
    22    22    23   ar
    23    23    24   ar
    24    24    25   ar
    25    20    26   ar
    26    26    27   ar
    27    15    28    1
    28    28    29    1
    29    10    30    1
    30     2    31    1
    31    31    32   ar
    32    32    33   ar
    33    33    34   ar
    34    34    35   ar
    35    35    36    1
    36    36    37    1
    37    36    38    1
    38    36    39    1
    39    35    40   ar
    40    30     7    1
    41    40    31   ar
    42    29    12    1
    43    27    17   ar
    44    25    21   ar
    45     3    41    1
    46     4    42    1
    47     4    43    1
    48     8    44    1
    49     8    45    1
    50     9    46    1
    51     9    47    1
    52    10    48    1
    53    11    49    1
    54    12    50    1
    55    13    51    1
    56    13    52    1
    57    14    53    1
    58    14    54    1
    59    16    55    1
    60    18    56    1
    61    19    57    1
    62    23    58    1
    63    24    59    1
    64    26    60    1
    65    28    61    1
    66    28    62    1
    67    29    63    1
    68    29    64    1
    69    30    65    1
    70    30    66    1
    71    32    67    1
    72    33    68    1
    73    34    69    1
    74    40    70    1
