
     RDKit          3D

 70 74  0  0  0  0  0  0  0  0999 V2000
    6.6403   -2.6288    0.3004 O   0  0  0  0  0  0  0  0  0  0  0  0
    7.1175   -1.4699    0.1335 C   0  0  0  0  0  0  0  0  0  0  0  0
    6.2580   -0.3436    0.0578 N   0  0  0  0  0  0  0  0  0  0  0  0
    4.8198   -0.5219    0.1733 C   0  0  0  0  0  0  0  0  0  0  0  0
    4.0978    0.7572    0.0672 C   0  0  0  0  0  0  0  0  0  0  0  0
    4.7580    1.8078   -0.1036 O   0  0  0  0  0  0  0  0  0  0  0  0
    2.6915    0.8141    0.1541 N   0  0  0  0  0  0  0  0  0  0  0  0
    1.9043    2.0201    0.0571 C   0  0  0  0  0  0  0  0  0  0  0  0
    0.4863    1.5898   -0.2975 C   0  0  0  0  0  0  0  0  0  0  0  0
    0.4548    0.0927   -0.1417 C   0  0  2  0  0  0  0  0  0  0  0  0
   -0.5873   -0.3104    0.7148 N   0  0  0  0  0  0  0  0  0  0  0  0
   -1.9292   -0.2530    0.2918 C   0  0  1  0  0  0  0  0  0  0  0  0
   -2.7659   -0.8068    1.4741 C   0  0  0  0  0  0  0  0  0  0  0  0
   -4.0689   -1.2450    0.9059 C   0  0  0  0  0  0  0  0  0  0  0  0
   -4.5513   -0.4727   -0.2644 C   0  0  1  0  0  0  0  0  0  0  0  0
   -4.2039   -1.1973   -1.4318 O   0  0  0  0  0  0  0  0  0  0  0  0
   -6.0396   -0.2871   -0.2437 C   0  0  0  0  0  0  0  0  0  0  0  0
   -6.9239   -1.1705   -0.8161 C   0  0  0  0  0  0  0  0  0  0  0  0
   -8.3059   -0.9411   -0.7680 C   0  0  0  0  0  0  0  0  0  0  0  0
   -8.7779    0.1804   -0.1410 C   0  0  0  0  0  0  0  0  0  0  0  0
  -10.2469    0.4599   -0.0728 C   0  0  0  0  0  0  0  0  0  0  0  0
  -11.2588   -0.1006   -0.4694 N   0  0  0  0  0  0  0  0  0  0  0  0
  -12.4741    0.3083   -0.3101 C   0  0  0  0  0  0  0  0  0  0  0  0
  -12.6398    1.5010    0.3794 C   0  0  0  0  0  0  0  0  0  0  0  0
  -10.9062    1.9118    0.7362 S   0  0  0  0  0  0  0  0  0  0  0  0
   -7.8698    1.0455    0.4223 C   0  0  0  0  0  0  0  0  0  0  0  0
   -6.5292    0.7999    0.3623 N   0  0  0  0  0  0  0  0  0  0  0  0
   -3.9737    0.8982   -0.4167 C   0  0  0  0  0  0  0  0  0  0  0  0
   -2.5308    1.0571   -0.0325 C   0  0  0  0  0  0  0  0  0  0  0  0
    1.8307   -0.3309    0.3553 C   0  0  0  0  0  0  0  0  0  0  0  0
    8.5506   -1.2637    0.0157 C   0  0  0  0  0  0  0  0  0  0  0  0
    9.3877   -2.3847    0.0697 C   0  0  0  0  0  0  0  0  0  0  0  0
   10.7542   -2.2512   -0.0346 C   0  0  0  0  0  0  0  0  0  0  0  0
   11.3434   -1.0223   -0.1944 C   0  0  0  0  0  0  0  0  0  0  0  0
   10.5452    0.0899   -0.2501 C   0  0  0  0  0  0  0  0  0  0  0  0
   11.1703    1.4197   -0.4204 C   0  0  0  0  0  0  0  0  0  0  0  0
   11.9843    1.4822   -1.5366 F   0  0  0  0  0  0  0  0  0  0  0  0
   11.8955    1.8029    0.6941 F   0  0  0  0  0  0  0  0  0  0  0  0
   10.1714    2.3706   -0.5913 F   0  0  0  0  0  0  0  0  0  0  0  0
    9.1684   -0.0531   -0.1441 C   0  0  0  0  0  0  0  0  0  0  0  0
    6.5818    0.6345   -0.0794 H   0  0  0  0  0  0  0  0  0  0  0  0
    4.6032   -1.0069    1.1383 H   0  0  0  0  0  0  0  0  0  0  0  0
    4.5159   -1.1922   -0.6567 H   0  0  0  0  0  0  0  0  0  0  0  0
    2.2371    2.7216   -0.7103 H   0  0  0  0  0  0  0  0  0  0  0  0
    1.9501    2.5447    1.0270 H   0  0  0  0  0  0  0  0  0  0  0  0
   -0.1619    2.1072    0.4351 H   0  0  0  0  0  0  0  0  0  0  0  0
    0.2225    1.9301   -1.3232 H   0  0  0  0  0  0  0  0  0  0  0  0
    0.3897   -0.3673   -1.1687 H   0  0  0  0  0  0  0  0  0  0  0  0
   -0.3892   -1.2592    1.0913 H   0  0  0  0  0  0  0  0  0  0  0  0
   -2.1109   -0.9976   -0.5177 H   0  0  0  0  0  0  0  0  0  0  0  0
   -2.8329    0.0024    2.2250 H   0  0  0  0  0  0  0  0  0  0  0  0
   -2.2475   -1.6872    1.9022 H   0  0  0  0  0  0  0  0  0  0  0  0
   -3.9563   -2.3229    0.5907 H   0  0  0  0  0  0  0  0  0  0  0  0
   -4.8875   -1.2846    1.6597 H   0  0  0  0  0  0  0  0  0  0  0  0
   -4.8376   -1.0161   -2.1660 H   0  0  0  0  0  0  0  0  0  0  0  0
   -6.5266   -2.0299   -1.2947 H   0  0  0  0  0  0  0  0  0  0  0  0
   -9.0128   -1.6318   -1.2165 H   0  0  0  0  0  0  0  0  0  0  0  0
  -13.3436   -0.2762   -0.7113 H   0  0  0  0  0  0  0  0  0  0  0  0
  -13.5316    2.0956    0.6695 H   0  0  0  0  0  0  0  0  0  0  0  0
   -8.2724    1.9291    0.9148 H   0  0  0  0  0  0  0  0  0  0  0  0
   -4.1305    1.2112   -1.4817 H   0  0  0  0  0  0  0  0  0  0  0  0
   -4.5718    1.6096    0.2056 H   0  0  0  0  0  0  0  0  0  0  0  0
   -2.0445    1.5904   -0.8777 H   0  0  0  0  0  0  0  0  0  0  0  0
   -2.4623    1.7572    0.8303 H   0  0  0  0  0  0  0  0  0  0  0  0
    2.2529   -1.1789   -0.2196 H   0  0  0  0  0  0  0  0  0  0  0  0
    1.7987   -0.6380    1.4202 H   0  0  0  0  0  0  0  0  0  0  0  0
    8.9276   -3.3442    0.1945 H   0  0  0  0  0  0  0  0  0  0  0  0
   11.4051   -3.1255    0.0077 H   0  0  0  0  0  0  0  0  0  0  0  0
   12.4297   -0.9673   -0.2720 H   0  0  0  0  0  0  0  0  0  0  0  0
    8.5589    0.8377   -0.1904 H   0  0  0  0  0  0  0  0  0  0  0  0
  1  2  2  0
  2  3  1  0
  3  4  1  0
  4  5  1  0
  5  6  2  0
  5  7  1  0
  7  8  1  0
  8  9  1  0
  9 10  1  0
 10 11  1  0
 11 12  1  0
 12 13  1  0
 13 14  1  0
 14 15  1  0
 15 16  1  6
 15 17  1  0
 17 18  2  0
 18 19  1  0
 19 20  2  0
 20 21  1  0
 21 22  2  0
 22 23  1  0
 23 24  2  0
 24 25  1  0
 20 26  1  0
 26 27  2  0
 15 28  1  0
 28 29  1  0
 10 30  1  0
  2 31  1  0
 31 32  2  0
 32 33  1  0
 33 34  2  0
 34 35  1  0
 35 36  1  0
 36 37  1  0
 36 38  1  0
 36 39  1  0
 35 40  2  0
 30  7  1  0
 40 31  1  0
 29 12  1  0
 27 17  1  0
 25 21  1  0
  3 41  1  0
  4 42  1  0
  4 43  1  0
  8 44  1  0
  8 45  1  0
  9 46  1  0
  9 47  1  0
 10 48  1  6
 11 49  1  0
 12 50  1  6
 13 51  1  0
 13 52  1  0
 14 53  1  0
 14 54  1  0
 16 55  1  0
 18 56  1  0
 19 57  1  0
 23 58  1  0
 24 59  1  0
 26 60  1  0
 28 61  1  0
 28 62  1  0
 29 63  1  0
 29 64  1  0
 30 65  1  0
 30 66  1  0
 32 67  1  0
 33 68  1  0
 34 69  1  0
 40 70  1  0
M  END
$$$$
