@<TRIPOS>MOLECULE
*****
 45 44 0 0 0
SMALL
GASTEIGER

@<TRIPOS>ATOM
      1 O          -3.4281   -2.2788   -1.0926 O.3     1  UNL1       -0.3930
      2 C          -2.6577   -1.5615   -0.1792 C.3     1  UNL1        0.0667
      3 C          -3.1977   -0.1596    0.0131 C.3     1  UNL1        0.0889
      4 C          -3.5031    0.5755   -1.2456 C.3     1  UNL1        0.0667
      5 O          -4.2574    1.7041   -0.8786 O.3     1  UNL1       -0.3930
      6 C          -4.5943   -0.3861    0.6673 C.3     1  UNL1        0.0667
      7 O          -5.3385   -1.1551   -0.2246 O.3     1  UNL1       -0.3930
      8 N          -2.4548    0.6224    0.9340 N.3     1  UNL1       -0.3049
      9 C          -1.0455    0.5999    0.9188 C.3     1  UNL1       -0.0023
     10 C          -0.3230    1.1748   -0.2387 C.3     1  UNL1       -0.0278
     11 C           1.1994    1.1495   -0.1058 C.3     1  UNL1       -0.0023
     12 N           1.7696   -0.1280    0.0345 N.3     1  UNL1       -0.3049
     13 C           3.1829   -0.1874    0.2018 C.3     1  UNL1        0.0889
     14 C           3.9872    0.2738   -0.9747 C.3     1  UNL1        0.0667
     15 O           3.7418    1.5854   -1.2845 O.3     1  UNL1       -0.3930
     16 C           3.6277    0.5377    1.4790 C.3     1  UNL1        0.0667
     17 O           5.0000    0.4265    1.5502 O.3     1  UNL1       -0.3930
     18 C           3.6484   -1.6350    0.4571 C.3     1  UNL1        0.0667
     19 O           3.3300   -2.4777   -0.5735 O.3     1  UNL1       -0.3930
     20 H          -3.2979   -1.9646   -2.0219 H       1  UNL1        0.2095
     21 H          -2.7327   -2.1174    0.7761 H       1  UNL1        0.0577
     22 H          -1.5928   -1.5776   -0.4770 H       1  UNL1        0.0577
     23 H          -4.1829   -0.0225   -1.9065 H       1  UNL1        0.0577
     24 H          -2.6516    0.9465   -1.8042 H       1  UNL1        0.0577
     25 H          -3.8739    2.5374   -1.2458 H       1  UNL1        0.2095
     26 H          -5.0598    0.6029    0.8320 H       1  UNL1        0.0577
     27 H          -4.4556   -0.9792    1.5855 H       1  UNL1        0.0577
     28 H          -6.1099   -0.5928   -0.5466 H       1  UNL1        0.2095
     29 H          -2.8861    0.6392    1.8661 H       1  UNL1        0.1227
     30 H          -0.7046   -0.4881    0.9830 H       1  UNL1        0.0425
     31 H          -0.6479    1.0043    1.9067 H       1  UNL1        0.0425
     32 H          -0.4958    0.5814   -1.1873 H       1  UNL1        0.0290
     33 H          -0.5943    2.2166   -0.4762 H       1  UNL1        0.0290
     34 H           1.5364    1.7422   -0.9846 H       1  UNL1        0.0425
     35 H           1.3911    1.7539    0.8297 H       1  UNL1        0.0425
     36 H           1.2353   -0.7433    0.6532 H       1  UNL1        0.1227
     37 H           3.7552   -0.3360   -1.8981 H       1  UNL1        0.0577
     38 H           5.0839    0.1214   -0.8006 H       1  UNL1        0.0577
     39 H           3.5713    1.7328   -2.2566 H       1  UNL1        0.2095
     40 H           3.1426   -0.0132    2.3176 H       1  UNL1        0.0577
     41 H           3.3224    1.5959    1.4871 H       1  UNL1        0.0577
     42 H           5.3856    1.3170    1.7672 H       1  UNL1        0.2095
     43 H           3.3310   -1.9918    1.4648 H       1  UNL1        0.0577
     44 H           4.7601   -1.5552    0.5152 H       1  UNL1        0.0577
     45 H           4.0838   -3.0901   -0.8370 H       1  UNL1        0.2095
@<TRIPOS>BOND
     1     1     2    1
     2     2     3    1
     3     3     4    1
     4     4     5    1
     5     3     6    1
     6     6     7    1
     7     3     8    1
     8     8     9    1
     9     9    10    1
    10    10    11    1
    11    11    12    1
    12    12    13    1
    13    13    14    1
    14    14    15    1
    15    13    16    1
    16    16    17    1
    17    13    18    1
    18    18    19    1
    19     1    20    1
    20     2    21    1
    21     2    22    1
    22     4    23    1
    23     4    24    1
    24     5    25    1
    25     6    26    1
    26     6    27    1
    27     7    28    1
    28     8    29    1
    29     9    30    1
    30     9    31    1
    31    10    32    1
    32    10    33    1
    33    11    34    1
    34    11    35    1
    35    12    36    1
    36    14    37    1
    37    14    38    1
    38    15    39    1
    39    16    40    1
    40    16    41    1
    41    17    42    1
    42    18    43    1
    43    18    44    1
    44    19    45    1
