
     RDKit          3D

 73 77  0  0  0  0  0  0  0  0999 V2000
    6.7910   -1.9286    0.7317 C   0  0  0  0  0  0  0  0  0  0  0  0
    6.1611   -0.5517    0.9040 C   0  0  2  0  0  0  0  0  0  0  0  0
    5.1159   -0.4896    0.0195 O   0  0  0  0  0  0  0  0  0  0  0  0
    4.3686    0.6778    0.0532 C   0  0  1  0  0  0  0  0  0  0  0  0
    3.1154    0.3381    0.5524 O   0  0  0  0  0  0  0  0  0  0  0  0
    2.1068    0.5265   -0.3564 C   0  0  0  0  0  0  0  0  0  0  0  0
    0.7449    0.1392    0.2235 C   0  0  1  0  0  0  0  0  0  0  0  0
   -0.1552    0.3520   -0.7755 O   0  0  0  0  0  0  0  0  0  0  0  0
   -1.0287   -0.7653   -0.9145 C   0  0  1  0  0  0  0  0  0  0  0  0
   -2.1157   -0.3883   -1.7437 O   0  0  0  0  0  0  0  0  0  0  0  0
   -3.1604    0.2435   -1.0472 C   0  0  0  0  0  0  0  0  0  0  0  0
   -4.3520   -0.0816   -0.3793 C   0  0  0  0  0  0  0  0  0  0  0  0
   -5.0356    0.8627    0.1539 O   0  0  0  0  0  0  0  0  0  0  0  0
   -4.7072    2.1252    0.1221 C   0  0  0  0  0  0  0  0  0  0  0  0
   -5.6456    2.9028    0.7825 C   0  0  0  0  0  0  0  0  0  0  0  0
   -5.3577    4.2737    0.7844 C   0  0  0  0  0  0  0  0  0  0  0  0
   -6.2562    5.1453    1.4343 O   0  0  0  0  0  0  0  0  0  0  0  0
   -4.2264    4.7646    0.1704 C   0  0  0  0  0  0  0  0  0  0  0  0
   -3.3461    3.9197   -0.4638 C   0  0  0  0  0  0  0  0  0  0  0  0
   -2.1904    4.3821   -1.0984 O   0  0  0  0  0  0  0  0  0  0  0  0
   -3.5660    2.5550   -0.5054 C   0  0  0  0  0  0  0  0  0  0  0  0
   -2.7343    1.6051   -1.1266 C   0  0  0  0  0  0  0  0  0  0  0  0
   -1.7568    2.1899   -1.6368 O   0  0  0  0  0  0  0  0  0  0  0  0
   -4.3081   -1.5031   -0.5955 C   0  0  0  0  0  0  0  0  0  0  0  0
   -5.5468   -1.6679    0.2255 C   0  0  0  0  0  0  0  0  0  0  0  0
   -6.2747   -2.8428    0.5737 C   0  0  0  0  0  0  0  0  0  0  0  0
   -7.4005   -3.1810    1.2969 O   0  0  0  0  0  0  0  0  0  0  0  0
   -5.7966   -4.0544    0.0954 C   0  0  0  0  0  0  0  0  0  0  0  0
   -6.2072   -5.3570    0.2115 O   0  0  0  0  0  0  0  0  0  0  0  0
   -4.6328   -3.9832   -0.6886 C   0  0  0  0  0  0  0  0  0  0  0  0
   -4.1641   -2.7284   -0.8498 C   0  0  0  0  0  0  0  0  0  0  0  0
   -0.1580   -1.8590   -1.4069 C   0  0  2  0  0  0  0  0  0  0  0  0
   -0.7446   -2.9069   -2.0709 O   0  0  0  0  0  0  0  0  0  0  0  0
    0.6472   -2.3450   -0.1887 C   0  0  1  0  0  0  0  0  0  0  0  0
    1.8797   -2.8153   -0.6439 O   0  0  0  0  0  0  0  0  0  0  0  0
    0.8784   -1.2330    0.7619 C   0  0  2  0  0  0  0  0  0  0  0  0
   -0.0459   -1.3776    1.8230 O   0  0  0  0  0  0  0  0  0  0  0  0
    4.9812    1.7799    0.8718 C   0  0  2  0  0  0  0  0  0  0  0  0
    4.4327    2.9677    0.3985 O   0  0  0  0  0  0  0  0  0  0  0  0
    6.4650    1.8689    0.7944 C   0  0  2  0  0  0  0  0  0  0  0  0
    6.9296    2.7658   -0.1849 O   0  0  0  0  0  0  0  0  0  0  0  0
    7.1481    0.5438    0.5404 C   0  0  1  0  0  0  0  0  0  0  0  0
    8.3147    0.4347    1.2848 O   0  0  0  0  0  0  0  0  0  0  0  0
    7.0572   -1.9983   -0.3632 H   0  0  0  0  0  0  0  0  0  0  0  0
    5.9635   -2.6554    0.9520 H   0  0  0  0  0  0  0  0  0  0  0  0
    7.6254   -2.1011    1.4050 H   0  0  0  0  0  0  0  0  0  0  0  0
    5.8779   -0.3536    1.9598 H   0  0  0  0  0  0  0  0  0  0  0  0
    4.2162    1.0292   -0.9890 H   0  0  0  0  0  0  0  0  0  0  0  0
    2.0167    1.6371   -0.5162 H   0  0  0  0  0  0  0  0  0  0  0  0
    2.2752    0.1009   -1.3515 H   0  0  0  0  0  0  0  0  0  0  0  0
    0.5793    0.8554    1.0594 H   0  0  0  0  0  0  0  0  0  0  0  0
   -1.4435   -0.9259    0.0974 H   0  0  0  0  0  0  0  0  0  0  0  0
   -6.5275    2.5716    1.2682 H   0  0  0  0  0  0  0  0  0  0  0  0
   -7.1363    5.2851    0.9571 H   0  0  0  0  0  0  0  0  0  0  0  0
   -3.9734    5.8262    0.1571 H   0  0  0  0  0  0  0  0  0  0  0  0
   -2.2449    4.4164   -2.1219 H   0  0  0  0  0  0  0  0  0  0  0  0
   -6.2862   -1.0089    0.8150 H   0  0  0  0  0  0  0  0  0  0  0  0
   -8.2034   -2.5586    1.3495 H   0  0  0  0  0  0  0  0  0  0  0  0
   -6.2676   -5.9790   -0.5669 H   0  0  0  0  0  0  0  0  0  0  0  0
   -4.0188   -4.7247   -1.2034 H   0  0  0  0  0  0  0  0  0  0  0  0
   -3.2618   -2.4736   -1.4603 H   0  0  0  0  0  0  0  0  0  0  0  0
    0.5805   -1.3969   -2.1226 H   0  0  0  0  0  0  0  0  0  0  0  0
   -0.6541   -3.7743   -1.6067 H   0  0  0  0  0  0  0  0  0  0  0  0
    0.0631   -3.1947    0.2026 H   0  0  0  0  0  0  0  0  0  0  0  0
    2.1026   -2.3107   -1.4843 H   0  0  0  0  0  0  0  0  0  0  0  0
    1.8736   -1.3609    1.2422 H   0  0  0  0  0  0  0  0  0  0  0  0
    0.1607   -0.6835    2.4997 H   0  0  0  0  0  0  0  0  0  0  0  0
    4.7133    1.6567    1.9567 H   0  0  0  0  0  0  0  0  0  0  0  0
    5.0980    3.6841    0.2799 H   0  0  0  0  0  0  0  0  0  0  0  0
    6.8584    2.2643    1.7600 H   0  0  0  0  0  0  0  0  0  0  0  0
    7.4013    2.3001   -0.8997 H   0  0  0  0  0  0  0  0  0  0  0  0
    7.3381    0.4365   -0.5462 H   0  0  0  0  0  0  0  0  0  0  0  0
    9.0493    0.1322    0.7034 H   0  0  0  0  0  0  0  0  0  0  0  0
  1  2  1  0
  2  3  1  0
  3  4  1  0
  4  5  1  0
  5  6  1  0
  6  7  1  0
  7  8  1  0
  8  9  1  0
  9 10  1  0
 10 11  1  0
 11 12  2  0
 12 13  1  0
 13 14  1  0
 14 15  2  0
 15 16  1  0
 16 17  1  0
 16 18  2  0
 18 19  1  0
 19 20  1  0
 19 21  2  0
 21 22  1  0
 22 23  2  0
 12 24  1  0
 24 25  2  0
 25 26  1  0
 26 27  1  0
 26 28  2  0
 28 29  1  0
 28 30  1  0
 30 31  2  0
  9 32  1  0
 32 33  1  0
 32 34  1  0
 34 35  1  0
 34 36  1  0
 36 37  1  0
  4 38  1  0
 38 39  1  0
 38 40  1  0
 40 41  1  0
 40 42  1  0
 42 43  1  0
 42  2  1  0
 36  7  1  0
 22 11  1  0
 31 24  1  0
 21 14  1  0
  1 44  1  0
  1 45  1  0
  1 46  1  0
  2 47  1  1
  4 48  1  6
  6 49  1  0
  6 50  1  0
  7 51  1  1
  9 52  1  1
 15 53  1  0
 17 54  1  0
 18 55  1  0
 20 56  1  0
 25 57  1  0
 27 58  1  0
 29 59  1  0
 30 60  1  0
 31 61  1  0
 32 62  1  6
 33 63  1  0
 34 64  1  1
 35 65  1  0
 36 66  1  1
 37 67  1  0
 38 68  1  1
 39 69  1  0
 40 70  1  1
 41 71  1  0
 42 72  1  6
 43 73  1  0
M  END
$$$$
