@<TRIPOS>MOLECULE
*****
 23 24 0 0 0
SMALL
GASTEIGER

@<TRIPOS>ATOM
      1 C          -0.1675   -0.3993    0.2610 C.2     1  UNL1        0.0884
      2 N           0.7518    0.3021   -0.2971 N.2     1  UNL1       -0.1791
      3 N           2.0981   -0.1280   -0.1952 N.am    1  UNL1       -0.1552
      4 C           3.2348   -0.2615    0.7068 C.3     1  UNL1        0.0753
      5 C           4.3849    0.0486   -0.2297 C.3     1  UNL1        0.1118
      6 O           3.9954   -0.7122   -1.3822 O.3     1  UNL1       -0.4475
      7 C           2.5905   -0.6478   -1.4465 C.2     1  UNL1        0.4227
      8 O           2.0827   -1.0392   -2.5323 O.2     1  UNL1       -0.2244
      9 C          -1.5695    0.0131    0.1772 C.ar    1  UNL1        0.1545
     10 C          -2.0013    1.3163    0.0046 C.ar    1  UNL1       -0.0078
     11 C          -3.3799    1.3532   -0.0318 C.ar    1  UNL1        0.0595
     12 C          -3.7265    0.0293    0.1254 C.ar    1  UNL1        0.4380
     13 O          -2.6431   -0.7322    0.2454 O.2     1  UNL1       -0.3992
     14 N          -5.0419   -0.5112    0.1624 N.pl3   1  UNL1        0.1186
     15 O          -5.5334   -1.7852    0.3100 O.co2   1  UNL1       -0.5735
     16 O          -6.0371    0.2467    0.0449 O.2     1  UNL1        0.0446
     17 H           0.0337   -1.3224    0.8179 H       1  UNL1        0.0883
     18 H           3.1780    0.4305    1.5691 H       1  UNL1        0.0520
     19 H           3.3548   -1.3336    1.0011 H       1  UNL1        0.0520
     20 H           4.4384    1.1007   -0.5332 H       1  UNL1        0.0714
     21 H           5.3424   -0.3621    0.1477 H       1  UNL1        0.0714
     22 H          -1.3395    2.1902   -0.0891 H       1  UNL1        0.0658
     23 H          -4.0456    2.2040   -0.1533 H       1  UNL1        0.0722
@<TRIPOS>UNITY_ATOM_ATTR
14 1
charge 1
15 1
charge -1
@<TRIPOS>BOND
     1     1     2    2
     2     2     3    1
     3     3     4    1
     4     4     5    1
     5     5     6    1
     6     6     7    1
     7     7     8    2
     8     1     9    1
     9     9    10   ar
    10    10    11   ar
    11    11    12   ar
    12    12    13   ar
    13    12    14    1
    14    14    15    1
    15    14    16    2
    16     7     3   am
    17    13     9   ar
    18     1    17    1
    19     4    18    1
    20     4    19    1
    21     5    20    1
    22     5    21    1
    23    10    22    1
    24    11    23    1
