
     RDKit          3D

 23 24  0  0  0  0  0  0  0  0999 V2000
   -0.1675   -0.3993    0.2610 C   0  0  0  0  0  0  0  0  0  0  0  0
    0.7518    0.3021   -0.2971 N   0  0  0  0  0  0  0  0  0  0  0  0
    2.0981   -0.1280   -0.1952 N   0  0  0  0  0  0  0  0  0  0  0  0
    3.2348   -0.2615    0.7068 C   0  0  0  0  0  0  0  0  0  0  0  0
    4.3849    0.0486   -0.2297 C   0  0  0  0  0  0  0  0  0  0  0  0
    3.9954   -0.7122   -1.3822 O   0  0  0  0  0  0  0  0  0  0  0  0
    2.5905   -0.6478   -1.4465 C   0  0  0  0  0  0  0  0  0  0  0  0
    2.0827   -1.0392   -2.5323 O   0  0  0  0  0  0  0  0  0  0  0  0
   -1.5695    0.0131    0.1772 C   0  0  0  0  0  0  0  0  0  0  0  0
   -2.0013    1.3163    0.0046 C   0  0  0  0  0  0  0  0  0  0  0  0
   -3.3799    1.3532   -0.0318 C   0  0  0  0  0  0  0  0  0  0  0  0
   -3.7265    0.0293    0.1254 C   0  0  0  0  0  0  0  0  0  0  0  0
   -2.6431   -0.7322    0.2454 O   0  0  0  0  0  0  0  0  0  0  0  0
   -5.0419   -0.5112    0.1624 N   0  0  0  0  0  4  0  0  0  0  0  0
   -5.5334   -1.7852    0.3100 O   0  0  0  0  0  1  0  0  0  0  0  0
   -6.0371    0.2467    0.0449 O   0  0  0  0  0  0  0  0  0  0  0  0
    0.0337   -1.3224    0.8179 H   0  0  0  0  0  0  0  0  0  0  0  0
    3.1780    0.4305    1.5691 H   0  0  0  0  0  0  0  0  0  0  0  0
    3.3548   -1.3336    1.0011 H   0  0  0  0  0  0  0  0  0  0  0  0
    4.4384    1.1007   -0.5332 H   0  0  0  0  0  0  0  0  0  0  0  0
    5.3424   -0.3621    0.1477 H   0  0  0  0  0  0  0  0  0  0  0  0
   -1.3395    2.1902   -0.0891 H   0  0  0  0  0  0  0  0  0  0  0  0
   -4.0456    2.2040   -0.1533 H   0  0  0  0  0  0  0  0  0  0  0  0
  1  2  2  3
  2  3  1  0
  3  4  1  0
  4  5  1  0
  5  6  1  0
  6  7  1  0
  7  8  2  0
  1  9  1  0
  9 10  2  0
 10 11  1  0
 11 12  2  0
 12 13  1  0
 12 14  1  0
 14 15  1  0
 14 16  2  0
  7  3  1  0
 13  9  1  0
  1 17  1  0
  4 18  1  0
  4 19  1  0
  5 20  1  0
  5 21  1  0
 10 22  1  0
 11 23  1  0
M  CHG  2  14   1  15  -1
M  END
$$$$
