@<TRIPOS>MOLECULE
*****
 20 19 0 0 0
SMALL
GASTEIGER

@<TRIPOS>ATOM
      1 N          -1.4624   -2.1757   -0.2751 N.3     1  GLN1       -0.3184
      2 CA         -0.6966   -1.0009    0.1708 C.3     1  GLN1        0.1037
      3 CB         -0.0053   -0.4833   -1.0764 C.3     1  GLN1       -0.0191
      4 CG          0.8306    0.7403   -0.7671 C.3     1  GLN1        0.0257
      5 CD          1.8683    0.4048    0.2380 C.2     1  GLN1        0.2105
      6 NE2         2.7198    1.4565    0.6186 N.am    1  GLN1       -0.3293
      7 OE1         2.2990   -0.5675    0.9340 O.2     1  GLN1       -0.2760
      8 C          -1.6842   -0.0443    0.6951 C.2     1  GLN1        0.3217
      9 O          -2.4813    0.9642    1.2232 O.3     1  GLN1       -0.4795
     10 OXT        -2.8150   -0.6205    0.5523 O.2     1  GLN1       -0.2493
     11 H1         -2.1341   -2.4190    0.4594 H       1  GLN1        0.1190
     12 H2         -1.9857   -1.8642   -1.1243 H       1  GLN1        0.1190
     13 HA          0.0270   -1.2718    0.9449 H       1  GLN1        0.0574
     14 HB1         0.6491   -1.2614   -1.5170 H       1  GLN1        0.0290
     15 HB2        -0.7686   -0.2280   -1.8349 H       1  GLN1        0.0290
     16 HG1         0.2330    1.5604   -0.3642 H       1  GLN1        0.0359
     17 HG2         1.3450    1.1083   -1.6626 H       1  GLN1        0.0359
     18 HE21        2.9073    2.3494    1.1558 H       1  GLN1        0.1449
     19 HE22        3.7001    1.4889    0.2490 H       1  GLN1        0.1449
     20 H          -2.5459    1.8636    0.7297 H       1  GLN1        0.2951
@<TRIPOS>BOND
     1     1     2    1
     2     2     3    1
     3     3     4    1
     4     4     5    1
     5     5     6   am
     6     5     7    2
     7     2     8    1
     8     8     9    1
     9     8    10    2
    10     1    11    1
    11     1    12    1
    12     2    13    1
    13     3    14    1
    14     3    15    1
    15     4    16    1
    16     4    17    1
    17     6    18    1
    18     6    19    1
    19     9    20    1
