
     RDKit          3D

 33 35  0  0  0  0  0  0  0  0999 V2000
   -2.5838    0.3175   -0.5534 C   0  0  1  0  0  0  0  0  0  0  0  0
   -3.5926    1.3669   -0.1608 C   0  0  0  0  0  0  0  0  0  0  0  0
   -3.3333    2.5998   -0.7073 O   0  0  0  0  0  0  0  0  0  0  0  0
   -1.2849    0.6526   -0.1502 O   0  0  0  0  0  0  0  0  0  0  0  0
   -0.6798   -0.5821   -0.3317 C   0  0  1  0  0  0  0  0  0  0  0  0
    0.7149   -0.6360   -0.0388 N   0  0  0  0  0  0  0  0  0  0  0  0
    1.3151   -1.8215    0.1817 C   0  0  0  0  0  0  0  0  0  0  0  0
    2.6122   -1.5837    0.4307 N   0  0  0  0  0  0  0  0  0  0  0  0
    2.8148   -0.2537    0.3645 C   0  0  0  0  0  0  0  0  0  0  0  0
    3.9094    0.5879    0.5225 C   0  0  0  0  0  0  0  0  0  0  0  0
    5.1595   -0.0197    0.8305 N   0  0  0  0  0  0  0  0  0  0  0  0
    3.8680    1.9470    0.4034 C   0  0  0  0  0  0  0  0  0  0  0  0
    2.6024    2.4518    0.1006 C   0  0  0  0  0  0  0  0  0  0  0  0
    1.5068    1.6715   -0.0626 N   0  0  0  0  0  0  0  0  0  0  0  0
    1.6169    0.3567    0.0671 C   0  0  0  0  0  0  0  0  0  0  0  0
   -1.5200   -1.4257    0.6233 C   0  0  2  0  0  0  0  0  0  0  0  0
   -1.3044   -2.7652    0.3901 O   0  0  0  0  0  0  0  0  0  0  0  0
   -2.9162   -0.9675    0.1791 C   0  0  2  0  0  0  0  0  0  0  0  0
   -3.4331   -1.9210   -0.6961 O   0  0  0  0  0  0  0  0  0  0  0  0
   -2.5553    0.1830   -1.6466 H   0  0  0  0  0  0  0  0  0  0  0  0
   -4.5737    0.9937   -0.5452 H   0  0  0  0  0  0  0  0  0  0  0  0
   -3.6590    1.3879    0.9533 H   0  0  0  0  0  0  0  0  0  0  0  0
   -2.9398    3.2096   -0.0322 H   0  0  0  0  0  0  0  0  0  0  0  0
   -0.9295   -0.9098   -1.3557 H   0  0  0  0  0  0  0  0  0  0  0  0
    1.0334   -2.8683    0.2086 H   0  0  0  0  0  0  0  0  0  0  0  0
    5.5051   -0.3391   -0.0992 H   0  0  0  0  0  0  0  0  0  0  0  0
    5.7619   -0.2084    1.6761 H   0  0  0  0  0  0  0  0  0  0  0  0
    4.7188    2.5820    0.5278 H   0  0  0  0  0  0  0  0  0  0  0  0
    2.4404    3.5092   -0.0189 H   0  0  0  0  0  0  0  0  0  0  0  0
   -1.3276   -1.1319    1.6760 H   0  0  0  0  0  0  0  0  0  0  0  0
   -1.5946   -2.9407   -0.5380 H   0  0  0  0  0  0  0  0  0  0  0  0
   -3.5778   -0.7843    1.0293 H   0  0  0  0  0  0  0  0  0  0  0  0
   -3.7742   -2.6584   -0.1465 H   0  0  0  0  0  0  0  0  0  0  0  0
  1  2  1  0
  2  3  1  0
  1  4  1  0
  4  5  1  0
  5  6  1  0
  6  7  1  0
  7  8  2  0
  8  9  1  0
  9 10  2  0
 10 11  1  0
 10 12  1  0
 12 13  2  0
 13 14  1  0
 14 15  2  0
  5 16  1  0
 16 17  1  0
 16 18  1  0
 18 19  1  0
 18  1  1  0
 15  6  1  0
 15  9  1  0
  1 20  1  6
  2 21  1  0
  2 22  1  0
  3 23  1  0
  5 24  1  6
  7 25  1  0
 11 26  1  0
 11 27  1  0
 12 28  1  0
 13 29  1  0
 16 30  1  1
 17 31  1  0
 18 32  1  1
 19 33  1  0
M  END
$$$$
