
     RDKit          3D

 55 57  0  0  0  0  0  0  0  0999 V2000
   -1.0839   -0.2738   -4.3086 C   0  0  0  0  0  0  0  0  0  0  0  0
   -1.7368   -0.0506   -2.9351 N   0  0  0  0  0  0  0  0  0  0  0  0
   -3.1199   -0.0777   -2.9492 C   0  0  0  0  0  0  0  0  0  0  0  0
   -3.8862    0.1840   -1.7529 C   0  0  0  0  0  0  0  0  0  0  0  0
   -4.2795    1.4794   -1.3768 C   0  0  0  0  0  0  0  0  0  0  0  0
   -5.0286    1.6888   -0.2998 N   0  0  0  0  0  0  0  0  0  0  0  0
   -5.4534    0.7012    0.4878 C   0  0  0  0  0  0  0  0  0  0  0  0
   -6.2159    0.9142    1.5848 N   0  0  0  0  0  0  0  0  0  0  0  0
   -6.6481   -0.0785    2.3846 C   0  0  0  0  0  0  0  0  0  0  0  0
   -7.4479    0.1591    3.5332 N   0  0  0  0  0  0  0  0  0  0  0  0
   -6.2827   -1.3384    2.0440 N   0  0  0  0  0  0  0  0  0  0  0  0
   -5.5267   -1.6001    0.9645 C   0  0  0  0  0  0  0  0  0  0  0  0
   -5.1506   -2.9308    0.6194 N   0  0  0  0  0  0  0  0  0  0  0  0
   -5.0807   -0.5770    0.1393 C   0  0  0  0  0  0  0  0  0  0  0  0
   -4.3293   -0.8198   -0.9357 N   0  0  0  0  0  0  0  0  0  0  0  0
   -0.8196    0.1531   -1.8821 C   0  0  0  0  0  0  0  0  0  0  0  0
    0.5624    0.1797   -2.1678 C   0  0  0  0  0  0  0  0  0  0  0  0
    1.5247    0.3595   -1.2102 C   0  0  0  0  0  0  0  0  0  0  0  0
    1.2320    0.5314    0.1223 C   0  0  0  0  0  0  0  0  0  0  0  0
    2.2171    0.7250    1.1706 C   0  0  0  0  0  0  0  0  0  0  0  0
    1.8075    0.8689    2.3471 O   0  0  0  0  0  0  0  0  0  0  0  0
    3.6129    0.7591    0.9305 N   0  0  0  0  0  0  0  0  0  0  0  0
    4.5740    0.9548    2.0031 C   0  0  1  0  0  0  0  0  0  0  0  0
    5.4411   -0.2685    2.1168 C   0  0  0  0  0  0  0  0  0  0  0  0
    6.1745   -0.4845    0.8272 C   0  0  0  0  0  0  0  0  0  0  0  0
    7.0647   -1.6877    0.9035 C   0  0  0  0  0  0  0  0  0  0  0  0
    7.1027   -2.3468    1.9672 O   0  0  0  0  0  0  0  0  0  0  0  0
    7.8482   -2.1004   -0.1573 O   0  0  0  0  0  0  0  0  0  0  0  0
    5.4463    2.0945    1.6186 C   0  0  0  0  0  0  0  0  0  0  0  0
    6.3638    2.4589    2.3926 O   0  0  0  0  0  0  0  0  0  0  0  0
    5.2980    2.7909    0.4270 O   0  0  0  0  0  0  0  0  0  0  0  0
   -0.1110    0.5080    0.4185 C   0  0  0  0  0  0  0  0  0  0  0  0
   -1.1048    0.3238   -0.5588 C   0  0  0  0  0  0  0  0  0  0  0  0
   -1.8893   -0.5018   -4.9888 H   0  0  0  0  0  0  0  0  0  0  0  0
   -0.4088   -1.1392   -4.1994 H   0  0  0  0  0  0  0  0  0  0  0  0
   -0.5034    0.6039   -4.5730 H   0  0  0  0  0  0  0  0  0  0  0  0
   -3.4099   -1.1083   -3.3927 H   0  0  0  0  0  0  0  0  0  0  0  0
   -3.4947    0.6288   -3.7782 H   0  0  0  0  0  0  0  0  0  0  0  0
   -3.9235    2.2739   -2.0315 H   0  0  0  0  0  0  0  0  0  0  0  0
   -7.4610   -0.5489    4.2805 H   0  0  0  0  0  0  0  0  0  0  0  0
   -7.9919    1.0194    3.5995 H   0  0  0  0  0  0  0  0  0  0  0  0
   -5.7494   -3.7189    0.9614 H   0  0  0  0  0  0  0  0  0  0  0  0
   -4.3094   -3.1386    0.0451 H   0  0  0  0  0  0  0  0  0  0  0  0
    0.8473    0.0523   -3.1948 H   0  0  0  0  0  0  0  0  0  0  0  0
    2.5965    0.3730   -1.4817 H   0  0  0  0  0  0  0  0  0  0  0  0
    3.9292    0.6464   -0.0523 H   0  0  0  0  0  0  0  0  0  0  0  0
    4.0164    1.1490    2.9533 H   0  0  0  0  0  0  0  0  0  0  0  0
    6.1406   -0.1434    2.9842 H   0  0  0  0  0  0  0  0  0  0  0  0
    4.7856   -1.1709    2.2826 H   0  0  0  0  0  0  0  0  0  0  0  0
    5.4694   -0.5824    0.0017 H   0  0  0  0  0  0  0  0  0  0  0  0
    6.7794    0.4433    0.6407 H   0  0  0  0  0  0  0  0  0  0  0  0
    8.4606   -2.9010   -0.1158 H   0  0  0  0  0  0  0  0  0  0  0  0
    5.6877    3.7098    0.3704 H   0  0  0  0  0  0  0  0  0  0  0  0
   -0.4225    0.6374    1.4530 H   0  0  0  0  0  0  0  0  0  0  0  0
   -2.1131    0.3137   -0.2325 H   0  0  0  0  0  0  0  0  0  0  0  0
  1  2  1  0
  2  3  1  0
  3  4  1  0
  4  5  2  0
  5  6  1  0
  6  7  2  0
  7  8  1  0
  8  9  2  0
  9 10  1  0
  9 11  1  0
 11 12  2  0
 12 13  1  0
 12 14  1  0
 14 15  2  0
  2 16  1  0
 16 17  2  0
 17 18  1  0
 18 19  2  0
 19 20  1  0
 20 21  2  0
 20 22  1  0
 22 23  1  0
 23 24  1  0
 24 25  1  0
 25 26  1  0
 26 27  2  0
 26 28  1  0
 23 29  1  0
 29 30  2  0
 29 31  1  0
 19 32  1  0
 32 33  2  0
 15  4  1  0
 33 16  1  0
 14  7  1  0
  1 34  1  0
  1 35  1  0
  1 36  1  0
  3 37  1  0
  3 38  1  0
  5 39  1  0
 10 40  1  0
 10 41  1  0
 13 42  1  0
 13 43  1  0
 17 44  1  0
 18 45  1  0
 22 46  1  0
 23 47  1  1
 24 48  1  0
 24 49  1  0
 25 50  1  0
 25 51  1  0
 28 52  1  0
 31 53  1  0
 32 54  1  0
 33 55  1  0
M  END
$$$$
