@<TRIPOS>MOLECULE
*****
 55 57 0 0 0
SMALL
GASTEIGER

@<TRIPOS>ATOM
      1 C          -1.0839   -0.2738   -4.3086 C.3     0  UNK0        0.0011
      2 N          -1.7368   -0.0506   -2.9351 N.pl3   0  UNK0       -0.3271
      3 C          -3.1199   -0.0777   -2.9492 C.3     0  UNK0        0.0555
      4 C          -3.8862    0.1840   -1.7529 C.ar    0  UNK0        0.0774
      5 C          -4.2795    1.4794   -1.3768 C.ar    0  UNK0        0.0528
      6 N          -5.0286    1.6888   -0.2998 N.ar    0  UNK0       -0.2324
      7 C          -5.4534    0.7012    0.4878 C.ar    0  UNK0        0.1851
      8 N          -6.2159    0.9142    1.5848 N.ar    0  UNK0       -0.1932
      9 C          -6.6481   -0.0785    2.3846 C.ar    0  UNK0        0.2163
     10 N          -7.4479    0.1591    3.5332 N.pl3   0  UNK0       -0.3274
     11 N          -6.2827   -1.3384    2.0440 N.ar    0  UNK0       -0.1978
     12 C          -5.5267   -1.6001    0.9645 C.ar    0  UNK0        0.1491
     13 N          -5.1506   -2.9308    0.6194 N.pl3   0  UNK0       -0.3413
     14 C          -5.0807   -0.5770    0.1393 C.ar    0  UNK0        0.1477
     15 N          -4.3293   -0.8198   -0.9357 N.ar    0  UNK0       -0.2419
     16 C          -0.8196    0.1531   -1.8821 C.ar    0  UNK0        0.0298
     17 C           0.5624    0.1797   -2.1678 C.ar    0  UNK0       -0.0399
     18 C           1.5247    0.3595   -1.2102 C.ar    0  UNK0       -0.0479
     19 C           1.2320    0.5314    0.1223 C.ar    0  UNK0        0.0368
     20 C           2.2171    0.7250    1.1706 C.2     0  UNK0        0.2447
     21 O           1.8075    0.8689    2.3471 O.2     0  UNK0       -0.2702
     22 N           3.6129    0.7591    0.9305 N.am    1  GLU1       -0.2983
     23 CA          4.5740    0.9548    2.0031 C.3     1  GLU1        0.1209
     24 CB          5.4411   -0.2685    2.1168 C.3     1  GLU1       -0.0140
     25 CG          6.1745   -0.4845    0.8272 C.3     1  GLU1        0.0470
     26 CD          7.0647   -1.6877    0.9035 C.2     1  GLU1        0.3048
     27 OE1         7.1027   -2.3468    1.9672 O.2     1  GLU1       -0.2510
     28 OE2         7.8482   -2.1004   -0.1573 O.3     1  GLU1       -0.4806
     29 C           5.4463    2.0945    1.6186 C.2     1  GLU1        0.3253
     30 O           6.3638    2.4589    2.3926 O.2     1  GLU1       -0.2489
     31 OXT         5.2980    2.7909    0.4270 O.3     1  GLU1       -0.4793
     32 C          -0.1110    0.5080    0.4185 C.ar    0  UNK0       -0.0479
     33 C          -1.1048    0.3238   -0.5588 C.ar    0  UNK0       -0.0399
     34 H          -1.8893   -0.5018   -4.9888 H       0  UNK0        0.0428
     35 H          -0.4088   -1.1392   -4.1994 H       0  UNK0        0.0428
     36 H          -0.5034    0.6039   -4.5730 H       0  UNK0        0.0428
     37 H          -3.4099   -1.1083   -3.3927 H       0  UNK0        0.0529
     38 H          -3.4947    0.6288   -3.7782 H       0  UNK0        0.0529
     39 H          -3.9235    2.2739   -2.0315 H       0  UNK0        0.0849
     40 H          -7.4610   -0.5489    4.2805 H       0  UNK0        0.1452
     41 H          -7.9919    1.0194    3.5995 H       0  UNK0        0.1452
     42 H          -5.7494   -3.7189    0.9614 H       0  UNK0        0.1438
     43 H          -4.3094   -3.1386    0.0451 H       0  UNK0        0.1438
     44 H           0.8473    0.0523   -3.1948 H       0  UNK0        0.0636
     45 H           2.5965    0.3730   -1.4817 H       0  UNK0        0.0626
     46 H           3.9292    0.6464   -0.0523 H       1  GLU1        0.1498
     47 HA          4.0164    1.1490    2.9533 H       1  GLU1        0.0614
     48 HB1         6.1406   -0.1434    2.9842 H       1  GLU1        0.0294
     49 HB2         4.7856   -1.1709    2.2826 H       1  GLU1        0.0294
     50 HG1         5.4694   -0.5824    0.0017 H       1  GLU1        0.0378
     51 HG2         6.7794    0.4433    0.6407 H       1  GLU1        0.0378
     52 HE2         8.4606   -2.9010   -0.1158 H       1  GLU1        0.2951
     53 HXT         5.6877    3.7098    0.3704 H       1  GLU1        0.2951
     54 H          -0.4225    0.6374    1.4530 H       0  UNK0        0.0626
     55 H          -2.1131    0.3137   -0.2325 H       0  UNK0        0.0636
@<TRIPOS>BOND
     1     1     2    1
     2     2     3    1
     3     3     4    1
     4     4     5   ar
     5     5     6   ar
     6     6     7   ar
     7     7     8   ar
     8     8     9   ar
     9     9    10    1
    10     9    11   ar
    11    11    12   ar
    12    12    13    1
    13    12    14   ar
    14    14    15   ar
    15     2    16    1
    16    16    17   ar
    17    17    18   ar
    18    18    19   ar
    19    19    20    1
    20    20    21    2
    21    20    22   am
    22    22    23    1
    23    23    24    1
    24    24    25    1
    25    25    26    1
    26    26    27    2
    27    26    28    1
    28    23    29    1
    29    29    30    2
    30    29    31    1
    31    19    32   ar
    32    32    33   ar
    33    15     4   ar
    34    33    16   ar
    35    14     7   ar
    36     1    34    1
    37     1    35    1
    38     1    36    1
    39     3    37    1
    40     3    38    1
    41     5    39    1
    42    10    40    1
    43    10    41    1
    44    13    42    1
    45    13    43    1
    46    17    44    1
    47    18    45    1
    48    22    46    1
    49    23    47    1
    50    24    48    1
    51    24    49    1
    52    25    50    1
    53    25    51    1
    54    28    52    1
    55    31    53    1
    56    32    54    1
    57    33    55    1
