
     RDKit          3D

 34 36  0  0  0  0  0  0  0  0999 V2000
   -2.3412    0.4124   -0.6889 C   0  0  1  0  0  0  0  0  0  0  0  0
   -2.7174   -0.8419   -1.4016 C   0  0  0  0  0  0  0  0  0  0  0  0
   -4.0822   -0.6793   -2.0348 C   0  0  0  0  0  0  0  0  0  0  0  0
   -4.4495   -1.8416   -2.7162 F   0  0  0  0  0  0  0  0  0  0  0  0
   -3.2900    0.7947    0.4063 C   0  0  0  0  0  0  0  0  0  0  0  0
   -3.3071   -0.2175    1.4636 N   0  0  0  0  0  0  0  0  0  0  0  0
   -1.9896   -0.3821    2.0336 C   0  0  0  0  0  0  0  0  0  0  0  0
   -1.7497   -0.7417    3.2385 O   0  0  0  0  0  0  0  0  0  0  0  0
   -0.8238   -0.1158    1.1608 C   0  0  0  0  0  0  0  0  0  0  0  0
   -0.9364    0.2825   -0.1765 C   0  0  0  0  0  0  0  0  0  0  0  0
    0.3031    0.4454   -0.6733 N   0  0  0  0  0  0  0  0  0  0  0  0
    1.1974    0.1641    0.3020 C   0  0  0  0  0  0  0  0  0  0  0  0
    0.5412   -0.1906    1.4629 C   0  0  0  0  0  0  0  0  0  0  0  0
    2.6556    0.2199    0.1709 C   0  0  0  0  0  0  0  0  0  0  0  0
    3.4669   -0.0730    1.1819 N   0  0  0  0  0  0  0  0  0  0  0  0
    4.7944    0.0006    0.9868 C   0  0  0  0  0  0  0  0  0  0  0  0
    5.7611   -0.2929    2.0055 N   0  0  0  0  0  0  0  0  0  0  0  0
    5.3550    0.3564   -0.1818 N   0  0  0  0  0  0  0  0  0  0  0  0
    4.5877    0.6632   -1.2372 C   0  0  0  0  0  0  0  0  0  0  0  0
    3.2178    0.5901   -1.0455 C   0  0  0  0  0  0  0  0  0  0  0  0
   -2.3631    1.2510   -1.4289 H   0  0  0  0  0  0  0  0  0  0  0  0
   -1.9876   -1.1602   -2.1520 H   0  0  0  0  0  0  0  0  0  0  0  0
   -2.7604   -1.6866   -0.6514 H   0  0  0  0  0  0  0  0  0  0  0  0
   -4.8605   -0.4713   -1.2627 H   0  0  0  0  0  0  0  0  0  0  0  0
   -4.1098    0.1653   -2.7498 H   0  0  0  0  0  0  0  0  0  0  0  0
   -2.9150    1.7772    0.8044 H   0  0  0  0  0  0  0  0  0  0  0  0
   -4.2745    0.9939   -0.0251 H   0  0  0  0  0  0  0  0  0  0  0  0
   -4.0295   -0.8394    1.8994 H   0  0  0  0  0  0  0  0  0  0  0  0
    0.4796    0.7437   -1.6638 H   0  0  0  0  0  0  0  0  0  0  0  0
    1.0055   -0.4624    2.3893 H   0  0  0  0  0  0  0  0  0  0  0  0
    5.5392    0.3846    2.7788 H   0  0  0  0  0  0  0  0  0  0  0  0
    6.4739   -1.0372    1.8853 H   0  0  0  0  0  0  0  0  0  0  0  0
    5.0282    0.9524   -2.1875 H   0  0  0  0  0  0  0  0  0  0  0  0
    2.5809    0.8361   -1.8929 H   0  0  0  0  0  0  0  0  0  0  0  0
  1  2  1  0
  2  3  1  0
  3  4  1  0
  1  5  1  0
  5  6  1  0
  6  7  1  0
  7  8  2  0
  7  9  1  0
  9 10  2  0
 10 11  1  0
 11 12  1  0
 12 13  2  0
 12 14  1  0
 14 15  2  0
 15 16  1  0
 16 17  1  0
 16 18  2  0
 18 19  1  0
 19 20  2  0
 10  1  1  0
 20 14  1  0
 13  9  1  0
  1 21  1  6
  2 22  1  0
  2 23  1  0
  3 24  1  0
  3 25  1  0
  5 26  1  0
  5 27  1  0
  6 28  1  0
 11 29  1  0
 13 30  1  0
 17 31  1  0
 17 32  1  0
 19 33  1  0
 20 34  1  0
M  END
$$$$
