@<TRIPOS>MOLECULE
*****
 50 50 0 0 0
SMALL
GASTEIGER

@<TRIPOS>ATOM
      1 C          -3.1782   -2.7708    0.8260 C.3     1  UNL1       -0.0432
      2 C          -3.7435   -1.4397    0.4444 C.2     1  UNL1       -0.0689
      3 C          -2.9263   -0.3840    0.1320 C.2     1  UNL1       -0.0427
      4 C          -1.5345   -0.7238    0.2283 C.2     1  UNL1       -0.0579
      5 C          -0.5205    0.0654    0.0171 C.2     1  UNL1       -0.0586
      6 C           0.9013   -0.3661    0.1324 C.2     1  UNL1       -0.0504
      7 C           1.2841   -1.7418    0.4838 C.3     1  UNL1       -0.0397
      8 C           1.8306    0.5242   -0.1007 C.2     1  UNL1       -0.0588
      9 C           3.2591    0.1669   -0.0034 C.2     1  UNL1       -0.0613
     10 C           4.1926    1.0654   -0.2409 C.2     1  UNL1       -0.0586
     11 C           5.5984    0.7824   -0.1633 C.2     1  UNL1       -0.0437
     12 C           6.1674   -0.5100    0.1848 C.3     1  UNL1       -0.0395
     13 C           6.4678    1.7722   -0.4263 C.2     1  UNL1        0.0252
     14 C           7.9113    1.6274   -0.3859 C.2     1  UNL1        0.3298
     15 O           8.6605    2.6337   -0.6525 O.2     1  UNL1       -0.2458
     16 O           8.5983    0.4747   -0.0786 O.3     1  UNL1       -0.4775
     17 C          -3.5984    0.8506   -0.2652 C.3     1  UNL1       -0.0099
     18 C          -4.1690    1.5940    0.9416 C.3     1  UNL1       -0.0558
     19 C          -2.7624    1.7866   -1.1087 C.3     1  UNL1       -0.0558
     20 C          -4.7373    0.4846   -1.2416 C.3     1  UNL1       -0.0436
     21 C          -5.6458   -0.5661   -0.7652 C.3     1  UNL1       -0.0486
     22 C          -5.1864   -1.2494    0.4714 C.3     1  UNL1       -0.0314
     23 H          -4.0317   -3.4639    0.9348 H       1  UNL1        0.0275
     24 H          -2.5681   -3.2085   -0.0063 H       1  UNL1        0.0275
     25 H          -2.5599   -2.7291    1.7309 H       1  UNL1        0.0275
     26 H          -1.2363   -1.7685    0.5173 H       1  UNL1        0.0621
     27 H          -0.6838    1.0902   -0.2204 H       1  UNL1        0.0620
     28 H           2.0778   -2.0304   -0.2791 H       1  UNL1        0.0278
     29 H           0.5146   -2.5032    0.3914 H       1  UNL1        0.0278
     30 H           1.7871   -1.7433    1.4836 H       1  UNL1        0.0278
     31 H           1.5624    1.5225   -0.3649 H       1  UNL1        0.0620
     32 H           3.5624   -0.8222    0.2635 H       1  UNL1        0.0618
     33 H           3.8590    2.0869   -0.5132 H       1  UNL1        0.0620
     34 H           6.8314   -0.4349    1.0795 H       1  UNL1        0.0278
     35 H           5.4055   -1.2346    0.4371 H       1  UNL1        0.0278
     36 H           6.7983   -0.8449   -0.6825 H       1  UNL1        0.0278
     37 H           6.0626    2.7235   -0.6806 H       1  UNL1        0.0691
     38 H           9.6030    0.4575    0.0471 H       1  UNL1        0.2954
     39 H          -3.7064    2.6120    0.9487 H       1  UNL1        0.0238
     40 H          -5.2659    1.6946    0.8759 H       1  UNL1        0.0238
     41 H          -3.8595    1.0391    1.8463 H       1  UNL1        0.0238
     42 H          -2.1418    1.2760   -1.8564 H       1  UNL1        0.0238
     43 H          -2.2352    2.5643   -0.5702 H       1  UNL1        0.0238
     44 H          -3.4844    2.3889   -1.8003 H       1  UNL1        0.0238
     45 H          -4.2467    0.2087   -2.1854 H       1  UNL1        0.0274
     46 H          -5.2622    1.4571   -1.4442 H       1  UNL1        0.0274
     47 H          -6.7116   -0.2142   -0.6404 H       1  UNL1        0.0269
     48 H          -5.7351   -1.3615   -1.5635 H       1  UNL1        0.0269
     49 H          -5.7164   -2.2179    0.6494 H       1  UNL1        0.0310
     50 H          -5.4886   -0.6205    1.3600 H       1  UNL1        0.0310
@<TRIPOS>BOND
     1     1     2    1
     2     2     3    2
     3     3     4    1
     4     4     5    2
     5     5     6    1
     6     6     7    1
     7     6     8    2
     8     8     9    1
     9     9    10    2
    10    10    11    1
    11    11    12    1
    12    11    13    2
    13    13    14    1
    14    14    15    2
    15    14    16    1
    16     3    17    1
    17    17    18    1
    18    17    19    1
    19    17    20    1
    20    20    21    1
    21    21    22    1
    22    22     2    1
    23     1    23    1
    24     1    24    1
    25     1    25    1
    26     4    26    1
    27     5    27    1
    28     7    28    1
    29     7    29    1
    30     7    30    1
    31     8    31    1
    32     9    32    1
    33    10    33    1
    34    12    34    1
    35    12    35    1
    36    12    36    1
    37    13    37    1
    38    16    38    1
    39    18    39    1
    40    18    40    1
    41    18    41    1
    42    19    42    1
    43    19    43    1
    44    19    44    1
    45    20    45    1
    46    20    46    1
    47    21    47    1
    48    21    48    1
    49    22    49    1
    50    22    50    1
