@<TRIPOS>MOLECULE
*****
 32 33 0 0 0
SMALL
GASTEIGER

@<TRIPOS>ATOM
      1 O           2.1207    2.4226   -1.0114 O.2     1  UNL1       -0.2873
      2 C           1.9313    1.2851   -0.3778 C.2     1  UNL1        0.1861
      3 C           0.5615    0.9273   -0.2740 C.2     1  UNL1       -0.0138
      4 C          -0.0785   -0.0545    0.2626 C.2     1  UNL1       -0.0506
      5 C          -1.5255   -0.2098    0.2365 C.ar    1  UNL1       -0.0148
      6 C          -2.0821   -1.3326    0.8614 C.ar    1  UNL1       -0.0089
      7 C          -3.4357   -1.5641    0.8892 C.ar    1  UNL1        0.1657
      8 O          -3.9247   -2.6963    1.5253 O.3     1  UNL1       -0.5031
      9 C          -4.2855   -0.6641    0.2827 C.ar    1  UNL1        0.2370
     10 O          -5.6820   -0.8719    0.2929 O.3     1  UNL1       -0.4989
     11 C          -3.7380    0.4349   -0.3288 C.ar    1  UNL1        0.3183
     12 N          -4.6201    1.3650   -0.9553 N.pl3   1  UNL1        0.0836
     13 O          -4.2680    2.5510   -1.0511 O.2     1  UNL1        0.0416
     14 O          -5.8240    0.9890   -1.4447 O.co2   1  UNL1       -0.5759
     15 C          -2.3563    0.6847   -0.3653 C.ar    1  UNL1        0.0268
     16 C           3.1608    0.6784    0.0588 C.ar    1  UNL1        0.0217
     17 C           4.3735    1.3843   -0.1035 C.ar    1  UNL1       -0.0509
     18 C           5.5985    0.8893    0.2566 C.ar    1  UNL1       -0.0611
     19 C           5.7038   -0.3622    0.8120 C.ar    1  UNL1       -0.0617
     20 C           4.5618   -1.0914    0.9924 C.ar    1  UNL1       -0.0611
     21 C           3.3138   -0.5658    0.6159 C.ar    1  UNL1       -0.0509
     22 H          -0.1513    1.6603   -0.7724 H       1  UNL1        0.0656
     23 H           0.4870   -0.8050    0.7776 H       1  UNL1        0.0625
     24 H          -1.4437   -2.0655    1.3509 H       1  UNL1        0.0661
     25 H          -4.9032   -2.6973    1.7835 H       1  UNL1        0.2923
     26 H          -5.9909   -1.7259   -0.1417 H       1  UNL1        0.2925
     27 H          -2.0242    1.5902   -0.8786 H       1  UNL1        0.0692
     28 H           4.3109    2.3830   -0.5415 H       1  UNL1        0.0625
     29 H           6.5016    1.4788    0.1080 H       1  UNL1        0.0618
     30 H           6.6698   -0.7427    1.0920 H       1  UNL1        0.0618
     31 H           4.5885   -2.0820    1.4253 H       1  UNL1        0.0618
     32 H           2.4502   -1.1929    0.7663 H       1  UNL1        0.0625
@<TRIPOS>UNITY_ATOM_ATTR
12 1
charge 1
14 1
charge -1
@<TRIPOS>BOND
     1     1     2    2
     2     2     3    1
     3     3     4    2
     4     4     5    1
     5     5     6   ar
     6     6     7   ar
     7     7     8    1
     8     7     9   ar
     9     9    10    1
    10     9    11   ar
    11    11    12    1
    12    12    13    2
    13    12    14    1
    14    11    15   ar
    15     2    16    1
    16    16    17   ar
    17    17    18   ar
    18    18    19   ar
    19    19    20   ar
    20    20    21   ar
    21    15     5   ar
    22    21    16   ar
    23     3    22    1
    24     4    23    1
    25     6    24    1
    26     8    25    1
    27    10    26    1
    28    15    27    1
    29    17    28    1
    30    18    29    1
    31    19    30    1
    32    20    31    1
    33    21    32    1
