
     RDKit          3D

 32 33  0  0  0  0  0  0  0  0999 V2000
    2.1207    2.4226   -1.0114 O   0  0  0  0  0  0  0  0  0  0  0  0
    1.9313    1.2851   -0.3778 C   0  0  0  0  0  0  0  0  0  0  0  0
    0.5615    0.9273   -0.2740 C   0  0  0  0  0  0  0  0  0  0  0  0
   -0.0785   -0.0545    0.2626 C   0  0  0  0  0  0  0  0  0  0  0  0
   -1.5255   -0.2098    0.2365 C   0  0  0  0  0  0  0  0  0  0  0  0
   -2.0821   -1.3326    0.8614 C   0  0  0  0  0  0  0  0  0  0  0  0
   -3.4357   -1.5641    0.8892 C   0  0  0  0  0  0  0  0  0  0  0  0
   -3.9247   -2.6963    1.5253 O   0  0  0  0  0  0  0  0  0  0  0  0
   -4.2855   -0.6641    0.2827 C   0  0  0  0  0  0  0  0  0  0  0  0
   -5.6820   -0.8719    0.2929 O   0  0  0  0  0  0  0  0  0  0  0  0
   -3.7380    0.4349   -0.3288 C   0  0  0  0  0  0  0  0  0  0  0  0
   -4.6201    1.3650   -0.9553 N   0  0  0  0  0  4  0  0  0  0  0  0
   -4.2680    2.5510   -1.0511 O   0  0  0  0  0  0  0  0  0  0  0  0
   -5.8240    0.9890   -1.4447 O   0  0  0  0  0  1  0  0  0  0  0  0
   -2.3563    0.6847   -0.3653 C   0  0  0  0  0  0  0  0  0  0  0  0
    3.1608    0.6784    0.0588 C   0  0  0  0  0  0  0  0  0  0  0  0
    4.3735    1.3843   -0.1035 C   0  0  0  0  0  0  0  0  0  0  0  0
    5.5985    0.8893    0.2566 C   0  0  0  0  0  0  0  0  0  0  0  0
    5.7038   -0.3622    0.8120 C   0  0  0  0  0  0  0  0  0  0  0  0
    4.5618   -1.0914    0.9924 C   0  0  0  0  0  0  0  0  0  0  0  0
    3.3138   -0.5658    0.6159 C   0  0  0  0  0  0  0  0  0  0  0  0
   -0.1513    1.6603   -0.7724 H   0  0  0  0  0  0  0  0  0  0  0  0
    0.4870   -0.8050    0.7776 H   0  0  0  0  0  0  0  0  0  0  0  0
   -1.4437   -2.0655    1.3509 H   0  0  0  0  0  0  0  0  0  0  0  0
   -4.9032   -2.6973    1.7835 H   0  0  0  0  0  0  0  0  0  0  0  0
   -5.9909   -1.7259   -0.1417 H   0  0  0  0  0  0  0  0  0  0  0  0
   -2.0242    1.5902   -0.8786 H   0  0  0  0  0  0  0  0  0  0  0  0
    4.3109    2.3830   -0.5415 H   0  0  0  0  0  0  0  0  0  0  0  0
    6.5016    1.4788    0.1080 H   0  0  0  0  0  0  0  0  0  0  0  0
    6.6698   -0.7427    1.0920 H   0  0  0  0  0  0  0  0  0  0  0  0
    4.5885   -2.0820    1.4253 H   0  0  0  0  0  0  0  0  0  0  0  0
    2.4502   -1.1929    0.7663 H   0  0  0  0  0  0  0  0  0  0  0  0
  1  2  2  0
  2  3  1  0
  3  4  2  0
  4  5  1  0
  5  6  2  0
  6  7  1  0
  7  8  1  0
  7  9  2  0
  9 10  1  0
  9 11  1  0
 11 12  1  0
 12 13  2  0
 12 14  1  0
 11 15  2  0
  2 16  1  0
 16 17  2  0
 17 18  1  0
 18 19  2  0
 19 20  1  0
 20 21  2  0
 15  5  1  0
 21 16  1  0
  3 22  1  0
  4 23  1  0
  6 24  1  0
  8 25  1  0
 10 26  1  0
 15 27  1  0
 17 28  1  0
 18 29  1  0
 19 30  1  0
 20 31  1  0
 21 32  1  0
M  CHG  2  12   1  14  -1
M  END
$$$$
