@<TRIPOS>MOLECULE
*****
 60 64 0 0 0
SMALL
GASTEIGER

@<TRIPOS>ATOM
      1 C          -4.8182    2.3151    2.5562 C.3     1  UNL1       -0.0376
      2 C          -3.3947    2.4360    2.1345 C.ar    1  UNL1       -0.0226
      3 C          -2.5083    3.2841    2.7586 C.ar    1  UNL1       -0.0567
      4 C          -1.1866    3.4092    2.3815 C.ar    1  UNL1       -0.0607
      5 C          -0.7864    2.6220    1.3206 C.ar    1  UNL1       -0.0475
      6 C          -1.6503    1.7690    0.6820 C.ar    1  UNL1        0.0642
      7 C          -1.2147    0.9549   -0.4497 C.2     1  UNL1        0.2491
      8 O          -1.3002    1.5001   -1.6073 O.2     1  UNL1       -0.2699
      9 N          -0.7226   -0.3527   -0.3609 N.am    1  UNL1       -0.2895
     10 C          -0.3297   -1.0436   -1.5687 C.3     1  UNL1        0.0414
     11 C          -1.1020   -2.3719   -1.6409 C.3     1  UNL1        0.0717
     12 C          -0.1658   -3.4774   -2.0558 C.3     1  UNL1       -0.0372
     13 O          -1.6960   -2.6627   -0.4084 O.3     1  UNL1       -0.3734
     14 C          -0.7348   -2.5773    0.6185 C.3     1  UNL1        0.0669
     15 C          -0.6026   -1.0636    0.8779 C.3     1  UNL1        0.0537
     16 C           0.6112   -0.7887    1.6885 C.3     1  UNL1       -0.0068
     17 C           1.9015   -1.0841    1.0432 C.ar    1  UNL1       -0.0449
     18 C           2.4848   -2.3140    1.1987 C.ar    1  UNL1       -0.0585
     19 C           3.6931   -2.5735    0.5866 C.ar    1  UNL1       -0.0608
     20 C           4.3021   -1.6221   -0.1634 C.ar    1  UNL1       -0.0510
     21 C           3.7585   -0.3709   -0.3508 C.ar    1  UNL1        0.0194
     22 C           4.4096    0.6553   -1.1560 C.ar    1  UNL1        0.1597
     23 N           3.8528    1.8653   -1.3181 N.ar    1  UNL1       -0.2357
     24 C           4.4747    2.8128   -2.0739 C.ar    1  UNL1        0.0314
     25 C           5.6827    2.5329   -2.6780 C.ar    1  UNL1       -0.0254
     26 C           6.2363    1.2941   -2.5024 C.ar    1  UNL1        0.0314
     27 N           5.5725    0.3970   -1.7421 N.ar    1  UNL1       -0.2357
     28 C           2.5400   -0.1403    0.2789 C.ar    1  UNL1       -0.0478
     29 C          -2.9787    1.6654    1.0864 C.ar    1  UNL1        0.1011
     30 N          -3.8330    0.7662    0.3910 N.ar    1  UNL1       -0.1493
     31 N          -4.0027    0.7363   -0.8988 N.ar    1  UNL1       -0.1556
     32 C          -4.8806   -0.2359   -1.2429 C.ar    1  UNL1        0.0697
     33 C          -5.2586   -0.8246   -0.0742 C.ar    1  UNL1        0.0697
     34 N          -4.5942   -0.1819    0.9066 N.ar    1  UNL1       -0.1556
     35 H          -5.1216    3.3159    2.9651 H       1  UNL1        0.0278
     36 H          -5.4179    2.1851    1.6243 H       1  UNL1        0.0278
     37 H          -4.9786    1.4958    3.2713 H       1  UNL1        0.0278
     38 H          -2.8646    3.8936    3.5985 H       1  UNL1        0.0621
     39 H          -0.5059    4.0902    2.8950 H       1  UNL1        0.0618
     40 H           0.2580    2.7166    1.0177 H       1  UNL1        0.0626
     41 H           0.7375   -1.1997   -1.6945 H       1  UNL1        0.0490
     42 H          -0.6647   -0.4637   -2.4787 H       1  UNL1        0.0490
     43 H          -1.9338   -2.3170   -2.3726 H       1  UNL1        0.0609
     44 H           0.8835   -3.0953   -2.2014 H       1  UNL1        0.0255
     45 H          -0.4668   -3.9276   -3.0404 H       1  UNL1        0.0255
     46 H          -0.1667   -4.2912   -1.2955 H       1  UNL1        0.0255
     47 H           0.2042   -3.0287    0.2934 H       1  UNL1        0.0578
     48 H          -1.1218   -3.0860    1.5099 H       1  UNL1        0.0578
     49 H          -1.4854   -0.8534    1.5596 H       1  UNL1        0.0526
     50 H           0.4908   -1.4174    2.6333 H       1  UNL1        0.0332
     51 H           0.5852    0.2558    2.1051 H       1  UNL1        0.0332
     52 H           2.0178   -3.1016    1.8059 H       1  UNL1        0.0620
     53 H           4.1595   -3.5537    0.7093 H       1  UNL1        0.0618
     54 H           5.2587   -1.8525   -0.6378 H       1  UNL1        0.0625
     55 H           4.0539    3.7887   -2.2214 H       1  UNL1        0.0831
     56 H           6.1636    3.3138   -3.2822 H       1  UNL1        0.0648
     57 H           7.1809    1.0713   -2.9732 H       1  UNL1        0.0831
     58 H           2.1206    0.8515    0.1235 H       1  UNL1        0.0627
     59 H          -5.2088   -0.4875   -2.2379 H       1  UNL1        0.0864
     60 H          -5.9370   -1.6335    0.1065 H       1  UNL1        0.0864
@<TRIPOS>BOND
     1     1     2    1
     2     2     3   ar
     3     3     4   ar
     4     4     5   ar
     5     5     6   ar
     6     6     7    1
     7     7     8    2
     8     7     9   am
     9     9    10    1
    10    10    11    1
    11    11    12    1
    12    11    13    1
    13    13    14    1
    14    14    15    1
    15    15    16    1
    16    16    17    1
    17    17    18   ar
    18    18    19   ar
    19    19    20   ar
    20    20    21   ar
    21    21    22    1
    22    22    23   ar
    23    23    24   ar
    24    24    25   ar
    25    25    26   ar
    26    26    27   ar
    27    21    28   ar
    28     6    29   ar
    29    29    30    1
    30    30    31   ar
    31    31    32   ar
    32    32    33   ar
    33    33    34   ar
    34    29     2   ar
    35    34    30   ar
    36    15     9    1
    37    28    17   ar
    38    27    22   ar
    39     1    35    1
    40     1    36    1
    41     1    37    1
    42     3    38    1
    43     4    39    1
    44     5    40    1
    45    10    41    1
    46    10    42    1
    47    11    43    1
    48    12    44    1
    49    12    45    1
    50    12    46    1
    51    14    47    1
    52    14    48    1
    53    15    49    1
    54    16    50    1
    55    16    51    1
    56    18    52    1
    57    19    53    1
    58    20    54    1
    59    24    55    1
    60    25    56    1
    61    26    57    1
    62    28    58    1
    63    32    59    1
    64    33    60    1
