@<TRIPOS>MOLECULE
*****
 44 46 0 0 0
SMALL
GASTEIGER

@<TRIPOS>ATOM
      1 O           2.5516    0.7711   -0.8530 O.2     1  UNL1       -0.2701
      2 C           2.8306    0.0865    0.1582 C.2     1  UNL1        0.2455
      3 N           1.7635   -0.3665    0.9546 N.am    1  UNL1       -0.3113
      4 C           0.3739   -0.0897    0.6754 C.3     1  UNL1        0.0127
      5 C          -0.0736   -0.6098   -0.6417 C.3     1  UNL1       -0.0265
      6 C          -1.4736   -0.3552   -1.0370 C.3     1  UNL1        0.0106
      7 C          -1.8927    1.0464   -1.1766 C.ar    1  UNL1       -0.0399
      8 C          -0.9810    2.0681   -1.2325 C.ar    1  UNL1       -0.0580
      9 C          -1.4458    3.3802   -1.3507 C.ar    1  UNL1       -0.0615
     10 C          -2.8078    3.6358   -1.4102 C.ar    1  UNL1       -0.0617
     11 C          -3.7204    2.6060   -1.3542 C.ar    1  UNL1       -0.0615
     12 C          -3.2662    1.3162   -1.2378 C.ar    1  UNL1       -0.0580
     13 C          -2.4186   -1.0708   -0.0940 C.ar    1  UNL1       -0.0399
     14 C          -2.9757   -2.2535   -0.5017 C.ar    1  UNL1       -0.0580
     15 C          -3.8456   -2.9050    0.3376 C.ar    1  UNL1       -0.0615
     16 C          -4.1796   -2.4100    1.5805 C.ar    1  UNL1       -0.0617
     17 C          -3.6033   -1.2154    1.9662 C.ar    1  UNL1       -0.0615
     18 C          -2.7245   -0.5416    1.1367 C.ar    1  UNL1       -0.0580
     19 C           4.2430   -0.1946    0.4413 C.ar    1  UNL1        0.0547
     20 C           5.2362    0.2842   -0.3864 C.ar    1  UNL1       -0.0467
     21 C           6.5917    0.0393   -0.1526 C.ar    1  UNL1       -0.0429
     22 C           6.9085   -0.7071    0.9481 C.ar    1  UNL1        0.0276
     23 N           5.9531   -1.1791    1.7617 N.ar    1  UNL1       -0.2625
     24 C           4.6339   -0.9357    1.5264 C.ar    1  UNL1        0.0397
     25 H           2.0001   -0.9327    1.7922 H       1  UNL1        0.1490
     26 H          -0.2133   -0.6887    1.4480 H       1  UNL1        0.0462
     27 H           0.1617    0.9428    0.9199 H       1  UNL1        0.0462
     28 H           0.0330   -1.7366   -0.5842 H       1  UNL1        0.0289
     29 H           0.5951   -0.3325   -1.4848 H       1  UNL1        0.0289
     30 H          -1.6373   -0.8265   -2.0281 H       1  UNL1        0.0398
     31 H           0.0837    1.9242   -1.2010 H       1  UNL1        0.0620
     32 H          -0.7723    4.2104   -1.3977 H       1  UNL1        0.0618
     33 H          -3.1969    4.6513   -1.5025 H       1  UNL1        0.0618
     34 H          -4.7877    2.7619   -1.3975 H       1  UNL1        0.0618
     35 H          -3.9929    0.5038   -1.1938 H       1  UNL1        0.0620
     36 H          -2.7782   -2.7263   -1.4592 H       1  UNL1        0.0620
     37 H          -4.3212   -3.8583    0.0592 H       1  UNL1        0.0618
     38 H          -4.8762   -2.9367    2.2470 H       1  UNL1        0.0618
     39 H          -3.8469   -0.8009    2.9386 H       1  UNL1        0.0618
     40 H          -2.2811    0.4172    1.4568 H       1  UNL1        0.0620
     41 H           4.9405    0.8672   -1.2413 H       1  UNL1        0.0626
     42 H           7.3360    0.4266   -0.8162 H       1  UNL1        0.0633
     43 H           7.9427   -0.9129    1.1554 H       1  UNL1        0.0829
     44 H           3.9333   -1.3530    2.2310 H       1  UNL1        0.0837
@<TRIPOS>BOND
     1     1     2    2
     2     2     3   am
     3     3     4    1
     4     4     5    1
     5     5     6    1
     6     6     7    1
     7     7     8   ar
     8     8     9   ar
     9     9    10   ar
    10    10    11   ar
    11    11    12   ar
    12     6    13    1
    13    13    14   ar
    14    14    15   ar
    15    15    16   ar
    16    16    17   ar
    17    17    18   ar
    18     2    19    1
    19    19    20   ar
    20    20    21   ar
    21    21    22   ar
    22    22    23   ar
    23    23    24   ar
    24    12     7   ar
    25    18    13   ar
    26    24    19   ar
    27     3    25    1
    28     4    26    1
    29     4    27    1
    30     5    28    1
    31     5    29    1
    32     6    30    1
    33     8    31    1
    34     9    32    1
    35    10    33    1
    36    11    34    1
    37    12    35    1
    38    14    36    1
    39    15    37    1
    40    16    38    1
    41    17    39    1
    42    18    40    1
    43    20    41    1
    44    21    42    1
    45    22    43    1
    46    24    44    1
