
     RDKit          3D

 63 68  0  0  0  0  0  0  0  0999 V2000
   12.4453    2.5694    0.1097 C   0  0  0  0  0  0  0  0  0  0  0  0
   11.1873    1.7663    0.0314 C   0  0  0  0  0  0  0  0  0  0  0  0
   10.2133    1.8620    0.9992 C   0  0  0  0  0  0  0  0  0  0  0  0
    9.0370    1.1404    0.9691 C   0  0  0  0  0  0  0  0  0  0  0  0
    8.8181    0.2744   -0.0843 C   0  0  0  0  0  0  0  0  0  0  0  0
    7.6103   -0.5321   -0.2057 C   0  0  0  0  0  0  0  0  0  0  0  0
    7.5858   -1.8903   -0.2049 N   0  0  0  0  0  0  0  0  0  0  0  0
    6.3308   -2.3379   -0.3317 C   0  0  0  0  0  0  0  0  0  0  0  0
    5.5637   -1.2230   -0.4125 N   0  0  0  0  0  0  0  0  0  0  0  0
    4.1436   -1.2705   -0.5564 C   0  0  0  0  0  0  0  0  0  0  0  0
    3.5417   -2.2805   -1.2648 C   0  0  0  0  0  0  0  0  0  0  0  0
    2.1852   -2.3744   -1.4297 C   0  0  0  0  0  0  0  0  0  0  0  0
    1.3881   -1.3770   -0.8362 C   0  0  0  0  0  0  0  0  0  0  0  0
    0.0097   -1.5022   -1.0301 N   0  0  0  0  0  0  0  0  0  0  0  0
   -1.0039   -0.7437   -0.3924 C   0  0  0  0  0  0  0  0  0  0  0  0
   -0.7958    0.2004    0.5126 N   0  0  0  0  0  0  0  0  0  0  0  0
   -1.7530    0.9108    1.1144 C   0  0  0  0  0  0  0  0  0  0  0  0
   -3.0869    0.6572    0.7807 C   0  0  0  0  0  0  0  0  0  0  0  0
   -3.3226   -0.3068   -0.1448 C   0  0  0  0  0  0  0  0  0  0  0  0
   -4.6742   -0.6263   -0.5380 C   0  0  0  0  0  0  0  0  0  0  0  0
   -4.8935   -1.6066   -1.4752 C   0  0  0  0  0  0  0  0  0  0  0  0
   -6.1495   -1.9615   -1.8918 C   0  0  0  0  0  0  0  0  0  0  0  0
   -7.2260   -1.2882   -1.3289 C   0  0  0  0  0  0  0  0  0  0  0  0
   -7.0632   -0.3037   -0.3915 C   0  0  0  0  0  0  0  0  0  0  0  0
   -8.1280    0.4015    0.2095 N   0  0  0  0  0  0  0  0  0  0  0  0
   -9.4715   -0.0265   -0.1340 C   0  0  0  0  0  0  0  0  0  0  0  0
  -10.3822    0.4797    0.9917 C   0  0  0  0  0  0  0  0  0  0  0  0
  -10.2605    1.8781    0.9548 O   0  0  0  0  0  0  0  0  0  0  0  0
   -9.0651    2.2784    1.5217 C   0  0  0  0  0  0  0  0  0  0  0  0
   -7.8786    1.4823    1.1057 C   0  0  0  0  0  0  0  0  0  0  0  0
   -5.7547    0.0114   -0.0089 C   0  0  0  0  0  0  0  0  0  0  0  0
   -2.3051   -0.9801   -0.7076 N   0  0  0  0  0  0  0  0  0  0  0  0
    1.9619   -0.3635   -0.1284 C   0  0  0  0  0  0  0  0  0  0  0  0
    3.3559   -0.3115    0.0121 C   0  0  0  0  0  0  0  0  0  0  0  0
    6.3319   -0.1648   -0.3368 N   0  0  0  0  0  0  0  0  0  0  0  0
    9.8261    0.2038   -1.0452 C   0  0  0  0  0  0  0  0  0  0  0  0
   10.9517    0.9166   -0.9847 N   0  0  0  0  0  0  0  0  0  0  0  0
   13.1025    2.1808    0.9342 H   0  0  0  0  0  0  0  0  0  0  0  0
   12.2624    3.6327    0.3063 H   0  0  0  0  0  0  0  0  0  0  0  0
   12.9871    2.4521   -0.8317 H   0  0  0  0  0  0  0  0  0  0  0  0
   10.3978    2.5433    1.8176 H   0  0  0  0  0  0  0  0  0  0  0  0
    8.2809    1.2335    1.7475 H   0  0  0  0  0  0  0  0  0  0  0  0
    5.9553   -3.3573   -0.3674 H   0  0  0  0  0  0  0  0  0  0  0  0
    4.1690   -3.0267   -1.7064 H   0  0  0  0  0  0  0  0  0  0  0  0
    1.7712   -3.1919   -1.9969 H   0  0  0  0  0  0  0  0  0  0  0  0
   -0.3301   -2.2480   -1.7391 H   0  0  0  0  0  0  0  0  0  0  0  0
   -1.4735    1.6570    1.8377 H   0  0  0  0  0  0  0  0  0  0  0  0
   -3.8012    1.2620    1.3001 H   0  0  0  0  0  0  0  0  0  0  0  0
   -4.0272   -2.1158   -1.8975 H   0  0  0  0  0  0  0  0  0  0  0  0
   -6.2933   -2.7326   -2.6271 H   0  0  0  0  0  0  0  0  0  0  0  0
   -8.2241   -1.5631   -1.6551 H   0  0  0  0  0  0  0  0  0  0  0  0
   -9.5551   -1.1327   -0.1916 H   0  0  0  0  0  0  0  0  0  0  0  0
   -9.8494    0.4375   -1.0650 H   0  0  0  0  0  0  0  0  0  0  0  0
   -9.9220    0.0687    1.9339 H   0  0  0  0  0  0  0  0  0  0  0  0
  -11.4194    0.1774    0.8566 H   0  0  0  0  0  0  0  0  0  0  0  0
   -9.1699    2.3317    2.6460 H   0  0  0  0  0  0  0  0  0  0  0  0
   -8.9090    3.3391    1.2169 H   0  0  0  0  0  0  0  0  0  0  0  0
   -7.3595    1.1264    2.0438 H   0  0  0  0  0  0  0  0  0  0  0  0
   -7.1064    2.1456    0.6164 H   0  0  0  0  0  0  0  0  0  0  0  0
   -5.6111    0.7825    0.7279 H   0  0  0  0  0  0  0  0  0  0  0  0
    1.3810    0.4103    0.3262 H   0  0  0  0  0  0  0  0  0  0  0  0
    3.8030    0.4937    0.5740 H   0  0  0  0  0  0  0  0  0  0  0  0
    9.6676   -0.4680   -1.8721 H   0  0  0  0  0  0  0  0  0  0  0  0
  1  2  1  0
  2  3  2  0
  3  4  1  0
  4  5  2  0
  5  6  1  0
  6  7  1  0
  7  8  2  0
  8  9  1  0
  9 10  1  0
 10 11  2  0
 11 12  1  0
 12 13  2  0
 13 14  1  0
 14 15  1  0
 15 16  2  0
 16 17  1  0
 17 18  2  0
 18 19  1  0
 19 20  1  0
 20 21  2  0
 21 22  1  0
 22 23  2  0
 23 24  1  0
 24 25  1  0
 25 26  1  0
 26 27  1  0
 27 28  1  0
 28 29  1  0
 29 30  1  0
 24 31  2  0
 19 32  2  0
 13 33  1  0
 33 34  2  0
  9 35  1  0
  5 36  1  0
 36 37  2  0
 37  2  1  0
 35  6  2  0
 34 10  1  0
 32 15  1  0
 31 20  1  0
 30 25  1  0
  1 38  1  0
  1 39  1  0
  1 40  1  0
  3 41  1  0
  4 42  1  0
  8 43  1  0
 11 44  1  0
 12 45  1  0
 14 46  1  0
 17 47  1  0
 18 48  1  0
 21 49  1  0
 22 50  1  0
 23 51  1  0
 26 52  1  0
 26 53  1  0
 27 54  1  0
 27 55  1  0
 29 56  1  0
 29 57  1  0
 30 58  1  0
 30 59  1  0
 31 60  1  0
 33 61  1  0
 34 62  1  0
 36 63  1  0
M  END
$$$$
