@<TRIPOS>MOLECULE
*****
 63 68 0 0 0
SMALL
GASTEIGER

@<TRIPOS>ATOM
      1 C          12.4453    2.5694    0.1097 C.3     1  UNL1       -0.0224
      2 C          11.1873    1.7663    0.0314 C.ar    1  UNL1        0.0382
      3 C          10.2133    1.8620    0.9992 C.ar    1  UNL1       -0.0400
      4 C           9.0370    1.1404    0.9691 C.ar    1  UNL1       -0.0478
      5 C           8.8181    0.2744   -0.0843 C.ar    1  UNL1        0.0390
      6 C           7.6103   -0.5321   -0.2057 C.ar    1  UNL1        0.1831
      7 N           7.5858   -1.8903   -0.2049 N.ar    1  UNL1       -0.2143
      8 C           6.3308   -2.3379   -0.3317 C.ar    1  UNL1        0.1205
      9 N           5.5637   -1.2230   -0.4125 N.ar    1  UNL1       -0.2197
     10 C           4.1436   -1.2705   -0.5564 C.ar    1  UNL1        0.0672
     11 C           3.5417   -2.2805   -1.2648 C.ar    1  UNL1       -0.0345
     12 C           2.1852   -2.3744   -1.4297 C.ar    1  UNL1       -0.0385
     13 C           1.3881   -1.3770   -0.8362 C.ar    1  UNL1        0.0337
     14 N           0.0097   -1.5022   -1.0301 N.pl3   1  UNL1       -0.2836
     15 C          -1.0039   -0.7437   -0.3924 C.ar    1  UNL1        0.2200
     16 N          -0.7958    0.2004    0.5126 N.ar    1  UNL1       -0.2226
     17 C          -1.7530    0.9108    1.1144 C.ar    1  UNL1        0.0332
     18 C          -3.0869    0.6572    0.7807 C.ar    1  UNL1       -0.0174
     19 C          -3.3226   -0.3068   -0.1448 C.ar    1  UNL1        0.0761
     20 C          -4.6742   -0.6263   -0.5380 C.ar    1  UNL1        0.0023
     21 C          -4.8935   -1.6066   -1.4752 C.ar    1  UNL1       -0.0524
     22 C          -6.1495   -1.9615   -1.8918 C.ar    1  UNL1       -0.0594
     23 C          -7.2260   -1.2882   -1.3289 C.ar    1  UNL1       -0.0406
     24 C          -7.0632   -0.3037   -0.3915 C.ar    1  UNL1        0.0304
     25 N          -8.1280    0.4015    0.2095 N.pl3   1  UNL1       -0.3255
     26 C          -9.4715   -0.0265   -0.1340 C.3     1  UNL1        0.0357
     27 C         -10.3822    0.4797    0.9917 C.3     1  UNL1        0.0634
     28 O         -10.2605    1.8781    0.9548 O.3     1  UNL1       -0.3767
     29 C          -9.0651    2.2784    1.5217 C.3     1  UNL1        0.0634
     30 C          -7.8786    1.4823    1.1057 C.3     1  UNL1        0.0357
     31 C          -5.7547    0.0114   -0.0089 C.ar    1  UNL1       -0.0315
     32 N          -2.3051   -0.9801   -0.7076 N.ar    1  UNL1       -0.2142
     33 C           1.9619   -0.3635   -0.1284 C.ar    1  UNL1       -0.0385
     34 C           3.3559   -0.3115    0.0121 C.ar    1  UNL1       -0.0345
     35 N           6.3319   -0.1648   -0.3368 N.ar    1  UNL1       -0.1448
     36 C           9.8261    0.2038   -1.0452 C.ar    1  UNL1        0.0386
     37 N          10.9517    0.9166   -0.9847 N.ar    1  UNL1       -0.2595
     38 H          13.1025    2.1808    0.9342 H       1  UNL1        0.0292
     39 H          12.2624    3.6327    0.3063 H       1  UNL1        0.0292
     40 H          12.9871    2.4521   -0.8317 H       1  UNL1        0.0292
     41 H          10.3978    2.5433    1.8176 H       1  UNL1        0.0636
     42 H           8.2809    1.2335    1.7475 H       1  UNL1        0.0626
     43 H           5.9553   -3.3573   -0.3674 H       1  UNL1        0.1048
     44 H           4.1690   -3.0267   -1.7064 H       1  UNL1        0.0639
     45 H           1.7712   -3.1919   -1.9969 H       1  UNL1        0.0637
     46 H          -0.3301   -2.2480   -1.7391 H       1  UNL1        0.1550
     47 H          -1.4735    1.6570    1.8377 H       1  UNL1        0.0831
     48 H          -3.8012    1.2620    1.3001 H       1  UNL1        0.0654
     49 H          -4.0272   -2.1158   -1.8975 H       1  UNL1        0.0624
     50 H          -6.2933   -2.7326   -2.6271 H       1  UNL1        0.0618
     51 H          -8.2241   -1.5631   -1.6551 H       1  UNL1        0.0636
     52 H          -9.5551   -1.1327   -0.1916 H       1  UNL1        0.0486
     53 H          -9.8494    0.4375   -1.0650 H       1  UNL1        0.0486
     54 H          -9.9220    0.0687    1.9339 H       1  UNL1        0.0575
     55 H         -11.4194    0.1774    0.8566 H       1  UNL1        0.0575
     56 H          -9.1699    2.3317    2.6460 H       1  UNL1        0.0575
     57 H          -8.9090    3.3391    1.2169 H       1  UNL1        0.0575
     58 H          -7.3595    1.1264    2.0438 H       1  UNL1        0.0486
     59 H          -7.1064    2.1456    0.6164 H       1  UNL1        0.0486
     60 H          -5.6111    0.7825    0.7279 H       1  UNL1        0.0643
     61 H           1.3810    0.4103    0.3262 H       1  UNL1        0.0637
     62 H           3.8030    0.4937    0.5740 H       1  UNL1        0.0639
     63 H           9.6676   -0.4680   -1.8721 H       1  UNL1        0.0837
@<TRIPOS>BOND
     1     1     2    1
     2     2     3   ar
     3     3     4   ar
     4     4     5   ar
     5     5     6    1
     6     6     7   ar
     7     7     8   ar
     8     8     9   ar
     9     9    10    1
    10    10    11   ar
    11    11    12   ar
    12    12    13   ar
    13    13    14    1
    14    14    15    1
    15    15    16   ar
    16    16    17   ar
    17    17    18   ar
    18    18    19   ar
    19    19    20    1
    20    20    21   ar
    21    21    22   ar
    22    22    23   ar
    23    23    24   ar
    24    24    25    1
    25    25    26    1
    26    26    27    1
    27    27    28    1
    28    28    29    1
    29    29    30    1
    30    24    31   ar
    31    19    32   ar
    32    13    33   ar
    33    33    34   ar
    34     9    35   ar
    35     5    36   ar
    36    36    37   ar
    37    37     2   ar
    38    35     6   ar
    39    34    10   ar
    40    32    15   ar
    41    31    20   ar
    42    30    25    1
    43     1    38    1
    44     1    39    1
    45     1    40    1
    46     3    41    1
    47     4    42    1
    48     8    43    1
    49    11    44    1
    50    12    45    1
    51    14    46    1
    52    17    47    1
    53    18    48    1
    54    21    49    1
    55    22    50    1
    56    23    51    1
    57    26    52    1
    58    26    53    1
    59    27    54    1
    60    27    55    1
    61    29    56    1
    62    29    57    1
    63    30    58    1
    64    30    59    1
    65    31    60    1
    66    33    61    1
    67    34    62    1
    68    36    63    1
