
     RDKit          3D

 33 35  0  0  0  0  0  0  0  0999 V2000
    3.7298   -2.4875    0.1979 N   0  0  0  0  0  0  0  0  0  0  0  0
    3.3763   -1.1063    0.2318 C   0  0  0  0  0  0  0  0  0  0  0  0
    2.0913   -0.7381    0.0727 N   0  0  0  0  0  0  0  0  0  0  0  0
    1.7019    0.5557    0.0962 C   0  0  0  0  0  0  0  0  0  0  0  0
    2.6512    1.5399    0.2899 C   0  0  0  0  0  0  0  0  0  0  0  0
    1.9878    2.6985    0.2666 N   0  0  0  0  0  0  0  0  0  0  0  0
    0.6871    2.4705    0.0692 C   0  0  0  0  0  0  0  0  0  0  0  0
    0.5101    1.1393   -0.0366 N   0  0  0  0  0  0  0  0  0  0  0  0
   -0.7704    0.5680   -0.2520 C   0  0  2  0  0  0  0  0  0  0  0  0
   -1.7298    0.9012    0.7122 O   0  0  0  0  0  0  0  0  0  0  0  0
   -2.8385    0.2626    0.1749 C   0  0  2  0  0  0  0  0  0  0  0  0
   -4.0347    0.3079    1.0847 C   0  0  0  0  0  0  0  0  0  0  0  0
   -4.3742    1.6206    1.3201 O   0  0  0  0  0  0  0  0  0  0  0  0
   -2.3380   -1.1516   -0.0422 C   0  0  1  0  0  0  0  0  0  0  0  0
   -2.9593   -1.5773   -1.2327 O   0  0  0  0  0  0  0  0  0  0  0  0
   -0.8372   -0.9114   -0.2590 C   0  0  1  0  0  0  0  0  0  0  0  0
   -0.5313   -1.3956   -1.5040 O   0  0  0  0  0  0  0  0  0  0  0  0
    3.9662    1.1251    0.4504 C   0  0  0  0  0  0  0  0  0  0  0  0
    4.8310    2.0365    0.6277 O   0  0  0  0  0  0  0  0  0  0  0  0
    4.3356   -0.1815    0.4233 N   0  0  0  0  0  0  0  0  0  0  0  0
    4.6980   -2.8001    0.3329 H   0  0  0  0  0  0  0  0  0  0  0  0
    2.9941   -3.2087    0.0323 H   0  0  0  0  0  0  0  0  0  0  0  0
    0.0367    3.3446    0.0304 H   0  0  0  0  0  0  0  0  0  0  0  0
   -1.2163    0.9199   -1.2255 H   0  0  0  0  0  0  0  0  0  0  0  0
   -3.0635    0.7634   -0.7896 H   0  0  0  0  0  0  0  0  0  0  0  0
   -4.8695   -0.1788    0.5063 H   0  0  0  0  0  0  0  0  0  0  0  0
   -3.8906   -0.3036    1.9736 H   0  0  0  0  0  0  0  0  0  0  0  0
   -3.6975    2.2654    0.9945 H   0  0  0  0  0  0  0  0  0  0  0  0
   -2.5500   -1.8121    0.8006 H   0  0  0  0  0  0  0  0  0  0  0  0
   -3.1775   -0.8068   -1.8220 H   0  0  0  0  0  0  0  0  0  0  0  0
   -0.2883   -1.4018    0.5649 H   0  0  0  0  0  0  0  0  0  0  0  0
    0.2118   -2.0220   -1.5601 H   0  0  0  0  0  0  0  0  0  0  0  0
    5.3576   -0.4360    0.5521 H   0  0  0  0  0  0  0  0  0  0  0  0
  1  2  1  0
  2  3  2  0
  3  4  1  0
  4  5  2  0
  5  6  1  0
  6  7  2  0
  7  8  1  0
  8  9  1  0
  9 10  1  0
 10 11  1  0
 11 12  1  0
 12 13  1  0
 11 14  1  0
 14 15  1  0
 14 16  1  0
 16 17  1  0
  5 18  1  0
 18 19  2  0
 18 20  1  0
 20  2  1  0
  8  4  1  0
 16  9  1  0
  1 21  1  0
  1 22  1  0
  7 23  1  0
  9 24  1  6
 11 25  1  6
 12 26  1  0
 12 27  1  0
 13 28  1  0
 14 29  1  1
 15 30  1  0
 16 31  1  1
 17 32  1  0
 20 33  1  0
M  END
$$$$
