@<TRIPOS>MOLECULE
*****
 57 61 0 0 0
SMALL
GASTEIGER

@<TRIPOS>ATOM
      1 C           1.7320   -3.6092   -2.0029 C.3     1  UNL1        0.0790
      2 O           0.7220   -3.0648   -1.1967 O.3     1  UNL1       -0.4914
      3 C           1.0086   -1.9691   -0.3867 C.ar    1  UNL1        0.1623
      4 C           2.2687   -1.4176   -0.3700 C.ar    1  UNL1       -0.0038
      5 C           2.5708   -0.3334    0.4251 C.ar    1  UNL1        0.0441
      6 C           3.8228    0.2312    0.4554 C.ar    1  UNL1        0.1340
      7 N           4.8848   -0.2687   -0.3324 N.pl3   1  UNL1       -0.2966
      8 C           6.1499    0.4026   -0.2179 C.ar    1  UNL1        0.0697
      9 C           7.2404   -0.3093    0.2073 C.ar    1  UNL1       -0.0349
     10 C           8.4583    0.3551    0.3130 C.ar    1  UNL1       -0.0231
     11 C           8.5523    1.7112   -0.0090 C.ar    1  UNL1        0.1445
     12 F           9.7375    2.3695    0.0908 F       1  UNL1       -0.2039
     13 C           7.4597    2.4154   -0.4328 C.ar    1  UNL1        0.1130
     14 CL          7.5682    4.1042   -0.8358 Cl      1  UNL1       -0.0775
     15 C           6.2624    1.7318   -0.5289 C.ar    1  UNL1        0.1654
     16 F           5.1664    2.3950   -0.9431 F       1  UNL1       -0.2019
     17 N           4.0190    1.3036    1.2780 N.ar    1  UNL1       -0.2200
     18 C           3.0104    1.7906    2.0366 C.ar    1  UNL1        0.1187
     19 N           1.7938    1.2210    1.9896 N.ar    1  UNL1       -0.2352
     20 C           1.5407    0.1622    1.1983 C.ar    1  UNL1        0.0797
     21 C           0.2545   -0.3961    1.1856 C.ar    1  UNL1        0.0098
     22 C          -0.0490   -1.4764    0.3932 C.ar    1  UNL1        0.1641
     23 O          -1.2642   -2.0849    0.3095 O.3     1  UNL1       -0.4856
     24 C          -2.4763   -1.8528    0.8841 C.3     1  UNL1        0.1170
     25 C          -3.0955   -0.5355    0.4973 C.3     1  UNL1        0.1053
     26 C          -4.4420   -0.4940    1.1994 C.3     1  UNL1        0.0289
     27 N          -5.2209    0.6553    0.8040 N.3     1  UNL1       -0.2903
     28 C          -6.6341    0.3531    0.6704 C.3     1  UNL1        0.0229
     29 C          -7.3938    1.6222    0.4385 C.3     1  UNL1        0.0605
     30 O          -6.6084    2.6190   -0.1374 O.3     1  UNL1       -0.3769
     31 C          -5.7393    2.1019   -1.1064 C.3     1  UNL1        0.0654
     32 C          -4.7548    1.1735   -0.4703 C.3     1  UNL1        0.0573
     33 C          -4.4203   -0.0231   -1.3335 C.3     1  UNL1        0.0659
     34 O          -3.2439   -0.5676   -0.8875 O.3     1  UNL1       -0.3703
     35 H           2.5189   -3.9995   -1.3244 H       1  UNL1        0.0660
     36 H           2.1746   -2.8195   -2.6386 H       1  UNL1        0.0660
     37 H           1.2871   -4.4439   -2.5983 H       1  UNL1        0.0660
     38 H           3.0516   -1.8457   -0.9999 H       1  UNL1        0.0663
     39 H           4.7924   -1.0801   -0.9746 H       1  UNL1        0.1537
     40 H           7.2230   -1.3524    0.4674 H       1  UNL1        0.0638
     41 H           9.3297   -0.1790    0.6440 H       1  UNL1        0.0647
     42 H           3.1619    2.6421    2.6912 H       1  UNL1        0.1048
     43 H          -0.4976    0.0348    1.8320 H       1  UNL1        0.0677
     44 H          -2.3188   -1.8604    2.0102 H       1  UNL1        0.0723
     45 H          -3.2138   -2.6832    0.7038 H       1  UNL1        0.0723
     46 H          -2.5136    0.3059    0.8431 H       1  UNL1        0.0643
     47 H          -4.9921   -1.4522    1.0986 H       1  UNL1        0.0453
     48 H          -4.2195   -0.3785    2.2887 H       1  UNL1        0.0453
     49 H          -6.8473   -0.3331   -0.1745 H       1  UNL1        0.0449
     50 H          -7.0379   -0.1377    1.5825 H       1  UNL1        0.0449
     51 H          -8.2974    1.4792   -0.2149 H       1  UNL1        0.0572
     52 H          -7.7554    1.9941    1.4173 H       1  UNL1        0.0572
     53 H          -5.1829    2.9878   -1.5071 H       1  UNL1        0.0576
     54 H          -6.2721    1.6445   -1.9562 H       1  UNL1        0.0576
     55 H          -3.7894    1.7093   -0.2676 H       1  UNL1        0.0508
     56 H          -5.2042   -0.8154   -1.2832 H       1  UNL1        0.0576
     57 H          -4.2781    0.2670   -2.3994 H       1  UNL1        0.0576
@<TRIPOS>BOND
     1     1     2    1
     2     2     3    1
     3     3     4   ar
     4     4     5   ar
     5     5     6   ar
     6     6     7    1
     7     7     8    1
     8     8     9   ar
     9     9    10   ar
    10    10    11   ar
    11    11    12    1
    12    11    13   ar
    13    13    14    1
    14    13    15   ar
    15    15    16    1
    16     6    17   ar
    17    17    18   ar
    18    18    19   ar
    19    19    20   ar
    20    20    21   ar
    21    21    22   ar
    22    22    23    1
    23    23    24    1
    24    24    25    1
    25    25    26    1
    26    26    27    1
    27    27    28    1
    28    28    29    1
    29    29    30    1
    30    30    31    1
    31    31    32    1
    32    32    33    1
    33    33    34    1
    34    22     3   ar
    35    34    25    1
    36    20     5   ar
    37    32    27    1
    38    15     8   ar
    39     1    35    1
    40     1    36    1
    41     1    37    1
    42     4    38    1
    43     7    39    1
    44     9    40    1
    45    10    41    1
    46    18    42    1
    47    21    43    1
    48    24    44    1
    49    24    45    1
    50    25    46    1
    51    26    47    1
    52    26    48    1
    53    28    49    1
    54    28    50    1
    55    29    51    1
    56    29    52    1
    57    31    53    1
    58    31    54    1
    59    32    55    1
    60    33    56    1
    61    33    57    1
