@<TRIPOS>MOLECULE
*****
 68 71 0 0 0
SMALL
GASTEIGER

@<TRIPOS>ATOM
      1 C           7.5355   -2.0635   -1.6531 C.3     1  UNL1       -0.0607
      2 C           7.5808   -1.5180   -0.2533 C.3     1  UNL1       -0.0194
      3 C           8.2644   -2.5197    0.6244 C.3     1  UNL1       -0.0607
      4 C           8.1816   -0.1378   -0.1955 C.3     1  UNL1        0.1276
      5 N           8.2171    0.3691    1.1560 N.3     1  UNL1       -0.1759
      6 S           7.2069    1.7451    1.2913 S.O2    1  UNL1        0.0591
      7 O           7.2998    2.2657    2.7032 O.2     1  UNL1       -0.1530
      8 O           7.6915    2.8381    0.3575 O.2     1  UNL1       -0.1530
      9 C           5.5323    1.3929    0.9464 C.ar    1  UNL1        0.1053
     10 C           4.6876    0.9372    1.9388 C.ar    1  UNL1       -0.0348
     11 C           3.3651    0.6534    1.7129 C.ar    1  UNL1       -0.0522
     12 C           2.8068    0.8180    0.4410 C.ar    1  UNL1       -0.0178
     13 C           1.4077    0.5222    0.1982 C.ar    1  UNL1       -0.0179
     14 C           0.7234    1.2391   -0.7602 C.ar    1  UNL1       -0.0537
     15 C          -0.6171    0.9963   -1.0265 C.ar    1  UNL1       -0.0548
     16 C          -1.2609    0.0164   -0.3107 C.ar    1  UNL1       -0.0104
     17 C          -2.7182   -0.2157   -0.6155 C.3     1  UNL1        0.1146
     18 O          -3.4280    0.6240    0.2422 O.3     1  UNL1       -0.4874
     19 C          -4.8080    0.7437    0.3123 C.ar    1  UNL1        0.1210
     20 C          -5.6751    0.0253   -0.4823 C.ar    1  UNL1       -0.0193
     21 C          -7.0595    0.1925   -0.3633 C.ar    1  UNL1       -0.0475
     22 C          -7.6263    1.0647    0.5347 C.ar    1  UNL1        0.0225
     23 C          -9.0573    1.2490    0.6930 C.2     1  UNL1        0.1931
     24 O          -9.4799    2.3339    1.1646 O.2     1  UNL1       -0.2867
     25 C          -9.9976    0.2086    0.3176 C.ar    1  UNL1        0.0224
     26 C         -11.2758    0.5695   -0.1262 C.ar    1  UNL1       -0.0482
     27 C         -12.1982   -0.3876   -0.4714 C.ar    1  UNL1       -0.0258
     28 C         -11.9027   -1.7316   -0.3946 C.ar    1  UNL1        0.1234
     29 F         -12.8038   -2.6913   -0.7338 F       1  UNL1       -0.2055
     30 C         -10.6416   -2.1289    0.0431 C.ar    1  UNL1       -0.0258
     31 C          -9.7436   -1.1445    0.3804 C.ar    1  UNL1       -0.0482
     32 C          -6.7339    1.7899    1.3377 C.ar    1  UNL1       -0.0475
     33 C          -5.3746    1.6254    1.2204 C.ar    1  UNL1       -0.0193
     34 C          -0.6085   -0.7209    0.6548 C.ar    1  UNL1       -0.0548
     35 C           0.7420   -0.4486    0.8968 C.ar    1  UNL1       -0.0537
     36 C           3.6457    1.2730   -0.5533 C.ar    1  UNL1       -0.0522
     37 C           4.9911    1.5579   -0.3082 C.ar    1  UNL1       -0.0348
     38 C           9.5010   -0.0429   -0.8148 C.2     1  UNL1        0.3238
     39 O           9.7706   -0.4057   -1.9877 O.2     1  UNL1       -0.2492
     40 O          10.5507    0.4812   -0.0776 O.3     1  UNL1       -0.4795
     41 H           6.7079   -2.8190   -1.7694 H       1  UNL1        0.0233
     42 H           8.4906   -2.4909   -1.9798 H       1  UNL1        0.0233
     43 H           7.2604   -1.2201   -2.3235 H       1  UNL1        0.0233
     44 H           6.5275   -1.4298    0.1000 H       1  UNL1        0.0316
     45 H           9.3828   -2.5094    0.5062 H       1  UNL1        0.0233
     46 H           7.9688   -3.5370    0.2297 H       1  UNL1        0.0233
     47 H           7.9381   -2.5182    1.6691 H       1  UNL1        0.0233
     48 H           7.4995    0.5113   -0.7992 H       1  UNL1        0.0595
     49 H           7.8462   -0.3592    1.8034 H       1  UNL1        0.1489
     50 H           5.1063    0.8078    2.9167 H       1  UNL1        0.0637
     51 H           2.6779    0.2961    2.4653 H       1  UNL1        0.0624
     52 H           1.2307    2.0087   -1.3210 H       1  UNL1        0.0624
     53 H          -1.1689    1.5444   -1.7710 H       1  UNL1        0.0622
     54 H          -2.9440   -0.0049   -1.6676 H       1  UNL1        0.0748
     55 H          -3.0035   -1.2651   -0.3982 H       1  UNL1        0.0748
     56 H          -5.2551   -0.6716   -1.2004 H       1  UNL1        0.0654
     57 H          -7.6895   -0.3844   -1.0209 H       1  UNL1        0.0626
     58 H         -11.5308    1.6201   -0.1937 H       1  UNL1        0.0625
     59 H         -13.1960   -0.1293   -0.8195 H       1  UNL1        0.0646
     60 H         -10.3536   -3.1518    0.1242 H       1  UNL1        0.0646
     61 H          -8.7616   -1.4743    0.7349 H       1  UNL1        0.0625
     62 H          -7.1737    2.4803    2.0481 H       1  UNL1        0.0626
     63 H          -4.6845    2.1931    1.8484 H       1  UNL1        0.0654
     64 H          -1.1467   -1.4874    1.1990 H       1  UNL1        0.0622
     65 H           1.2188   -1.0408    1.6554 H       1  UNL1        0.0624
     66 H           3.2349    1.4087   -1.5503 H       1  UNL1        0.0624
     67 H           5.6054    1.9157   -1.1210 H       1  UNL1        0.0637
     68 H          11.5209    0.3315   -0.3169 H       1  UNL1        0.2951
@<TRIPOS>BOND
     1     1     2    1
     2     2     3    1
     3     2     4    1
     4     4     5    1
     5     5     6    1
     6     6     7    2
     7     6     8    2
     8     6     9    1
     9     9    10   ar
    10    10    11   ar
    11    11    12   ar
    12    12    13    1
    13    13    14   ar
    14    14    15   ar
    15    15    16   ar
    16    16    17    1
    17    17    18    1
    18    18    19    1
    19    19    20   ar
    20    20    21   ar
    21    21    22   ar
    22    22    23    1
    23    23    24    2
    24    23    25    1
    25    25    26   ar
    26    26    27   ar
    27    27    28   ar
    28    28    29    1
    29    28    30   ar
    30    30    31   ar
    31    22    32   ar
    32    32    33   ar
    33    16    34   ar
    34    34    35   ar
    35    12    36   ar
    36    36    37   ar
    37     4    38    1
    38    38    39    2
    39    38    40    1
    40    37     9   ar
    41    35    13   ar
    42    33    19   ar
    43    31    25   ar
    44     1    41    1
    45     1    42    1
    46     1    43    1
    47     2    44    1
    48     3    45    1
    49     3    46    1
    50     3    47    1
    51     4    48    1
    52     5    49    1
    53    10    50    1
    54    11    51    1
    55    14    52    1
    56    15    53    1
    57    17    54    1
    58    17    55    1
    59    20    56    1
    60    21    57    1
    61    26    58    1
    62    27    59    1
    63    30    60    1
    64    31    61    1
    65    32    62    1
    66    33    63    1
    67    34    64    1
    68    35    65    1
    69    36    66    1
    70    37    67    1
    71    40    68    1
