@<TRIPOS>MOLECULE
*****
 82 82 0 0 0
SMALL
GASTEIGER

@<TRIPOS>ATOM
      1 C           8.8694   -0.5286    0.9856 C.3     1  UNL1       -0.0652
      2 C           8.1288   -0.7476   -0.3085 C.3     1  UNL1       -0.0545
      3 C           6.8341    0.0212   -0.2725 C.3     1  UNL1       -0.0376
      4 C           7.0527    1.4983   -0.1018 C.3     1  UNL1        0.0116
      5 N           5.7878    2.2129   -0.0734 N.am    1  UNL1       -0.3151
      6 C           4.7777    1.9906    0.8974 C.2     1  UNL1        0.2159
      7 O           4.9617    1.1346    1.7984 O.2     1  UNL1       -0.2755
      8 C           3.5036    2.7959    0.8169 C.3     1  UNL1        0.0351
      9 C           2.5844    2.4526    1.9296 C.3     1  UNL1       -0.0540
     10 C           2.9477    2.8198   -0.5547 C.3     1  UNL1       -0.0145
     11 C           2.5870    1.5329   -1.1870 C.3     1  UNL1        0.0725
     12 O           2.1100    1.8514   -2.4899 O.3     1  UNL1       -0.3902
     13 C           1.3645    0.8493   -0.5462 C.3     1  UNL1        0.0471
     14 N           0.2431    1.7447   -0.5361 N.3     1  UNL1       -0.3239
     15 C           1.1114   -0.3949   -1.3393 C.3     1  UNL1        0.0328
     16 N           0.0015   -1.1920   -0.9125 N.am    1  UNL1       -0.2934
     17 C          -1.2880   -0.9014   -1.4906 C.2     1  UNL1        0.2470
     18 O          -1.4425    0.0126   -2.3375 O.2     1  UNL1       -0.2700
     19 C          -2.4801   -1.6542   -1.1221 C.ar    1  UNL1        0.0404
     20 C          -2.6230   -3.0119   -1.3190 C.ar    1  UNL1       -0.0491
     21 C          -3.7698   -3.7010   -0.9622 C.ar    1  UNL1       -0.0544
     22 C          -4.7940   -2.9587   -0.3861 C.ar    1  UNL1       -0.0059
     23 C          -6.0403   -3.6628    0.0098 C.3     1  UNL1       -0.0271
     24 C          -7.1258   -3.3677   -0.9973 C.3     1  UNL1       -0.0611
     25 C          -4.6972   -1.6013   -0.1697 C.ar    1  UNL1        0.1244
     26 O          -5.7813   -0.9611    0.4119 O.3     1  UNL1       -0.4916
     27 C          -5.6420    0.4805    0.6262 C.3     1  UNL1        0.0917
     28 C          -6.8797    1.0116    1.2476 C.3     1  UNL1        0.0049
     29 C          -6.9114    2.4385    1.6272 C.3     1  UNL1        0.0504
     30 O          -6.7700    3.4478    0.7823 O.3     1  UNL1       -0.3829
     31 C          -5.6469    3.7175    0.1126 C.3     1  UNL1        0.0364
     32 C          -3.5333   -0.9397   -0.5389 C.ar    1  UNL1       -0.0076
     33 C           0.1839   -2.2497    0.0333 C.3     1  UNL1        0.0207
     34 C           0.6161   -1.6860    1.3827 C.3     1  UNL1       -0.0467
     35 C           1.2099   -3.2306   -0.4870 C.3     1  UNL1       -0.0467
     36 H           9.4216    0.4103    0.9575 H       1  UNL1        0.0230
     37 H           8.1259   -0.5151    1.8114 H       1  UNL1        0.0230
     38 H           9.6049   -1.3679    1.1509 H       1  UNL1        0.0230
     39 H           8.7286   -0.4519   -1.1936 H       1  UNL1        0.0263
     40 H           7.8751   -1.8189   -0.3620 H       1  UNL1        0.0263
     41 H           6.2760   -0.3535    0.6075 H       1  UNL1        0.0280
     42 H           6.2039   -0.1649   -1.1606 H       1  UNL1        0.0280
     43 H           7.6161    1.8493   -0.9882 H       1  UNL1        0.0462
     44 H           7.6563    1.7105    0.8076 H       1  UNL1        0.0462
     45 H           5.5705    2.9547   -0.8076 H       1  UNL1        0.1487
     46 H           3.8793    3.8541    1.0100 H       1  UNL1        0.0392
     47 H           2.7390    1.4331    2.3456 H       1  UNL1        0.0237
     48 H           2.8479    3.1226    2.8106 H       1  UNL1        0.0237
     49 H           1.5568    2.7145    1.6890 H       1  UNL1        0.0237
     50 H           2.0000    3.4413   -0.5270 H       1  UNL1        0.0298
     51 H           3.6320    3.4439   -1.1925 H       1  UNL1        0.0298
     52 H           3.3668    0.7764   -1.2347 H       1  UNL1        0.0609
     53 H           2.4045    1.2034   -3.1531 H       1  UNL1        0.2098
     54 H           1.5809    0.5697    0.4825 H       1  UNL1        0.0499
     55 H          -0.5762    1.3010   -0.0783 H       1  UNL1        0.1186
     56 H          -0.0099    2.1663   -1.4351 H       1  UNL1        0.1186
     57 H           2.0703   -0.9700   -1.3484 H       1  UNL1        0.0481
     58 H           0.9686   -0.1042   -2.4202 H       1  UNL1        0.0481
     59 H          -1.8066   -3.5592   -1.7700 H       1  UNL1        0.0625
     60 H          -3.8786   -4.7659   -1.1178 H       1  UNL1        0.0622
     61 H          -6.3962   -3.3102    0.9966 H       1  UNL1        0.0312
     62 H          -5.8465   -4.7682    0.1095 H       1  UNL1        0.0312
     63 H          -6.7585   -3.2671   -2.0243 H       1  UNL1        0.0233
     64 H          -7.9019   -4.1584   -0.9767 H       1  UNL1        0.0233
     65 H          -7.5491   -2.3600   -0.7237 H       1  UNL1        0.0233
     66 H          -5.5497    0.9200   -0.4129 H       1  UNL1        0.0697
     67 H          -4.7008    0.6993    1.1419 H       1  UNL1        0.0697
     68 H          -7.1640    0.3793    2.1562 H       1  UNL1        0.0320
     69 H          -7.7836    0.8310    0.5720 H       1  UNL1        0.0320
     70 H          -7.8884    2.6331    2.2072 H       1  UNL1        0.0561
     71 H          -6.1479    2.5387    2.5107 H       1  UNL1        0.0561
     72 H          -5.8038    4.6881   -0.5067 H       1  UNL1        0.0523
     73 H          -5.2551    3.0175   -0.6209 H       1  UNL1        0.0523
     74 H          -4.8091    3.9810    0.8281 H       1  UNL1        0.0523
     75 H          -3.4576    0.1263   -0.3688 H       1  UNL1        0.0662
     76 H          -0.7563   -2.8044    0.2503 H       1  UNL1        0.0495
     77 H           0.3437   -2.4328    2.1960 H       1  UNL1        0.0247
     78 H           0.0140   -0.8055    1.6073 H       1  UNL1        0.0247
     79 H           1.7011   -1.5834    1.4584 H       1  UNL1        0.0247
     80 H           2.2290   -2.9481   -0.1496 H       1  UNL1        0.0247
     81 H           1.2150   -3.2180   -1.5979 H       1  UNL1        0.0247
     82 H           0.9616   -4.2608   -0.1812 H       1  UNL1        0.0247
@<TRIPOS>BOND
     1     1     2    1
     2     2     3    1
     3     3     4    1
     4     4     5    1
     5     5     6   am
     6     6     7    2
     7     6     8    1
     8     8     9    1
     9     8    10    1
    10    10    11    1
    11    11    12    1
    12    11    13    1
    13    13    14    1
    14    13    15    1
    15    15    16    1
    16    16    17   am
    17    17    18    2
    18    17    19    1
    19    19    20   ar
    20    20    21   ar
    21    21    22   ar
    22    22    23    1
    23    23    24    1
    24    22    25   ar
    25    25    26    1
    26    26    27    1
    27    27    28    1
    28    28    29    1
    29    29    30    1
    30    30    31    1
    31    25    32   ar
    32    16    33    1
    33    33    34    1
    34    33    35    1
    35    32    19   ar
    36     1    36    1
    37     1    37    1
    38     1    38    1
    39     2    39    1
    40     2    40    1
    41     3    41    1
    42     3    42    1
    43     4    43    1
    44     4    44    1
    45     5    45    1
    46     8    46    1
    47     9    47    1
    48     9    48    1
    49     9    49    1
    50    10    50    1
    51    10    51    1
    52    11    52    1
    53    12    53    1
    54    13    54    1
    55    14    55    1
    56    14    56    1
    57    15    57    1
    58    15    58    1
    59    20    59    1
    60    21    60    1
    61    23    61    1
    62    23    62    1
    63    24    63    1
    64    24    64    1
    65    24    65    1
    66    27    66    1
    67    27    67    1
    68    28    68    1
    69    28    69    1
    70    29    70    1
    71    29    71    1
    72    31    72    1
    73    31    73    1
    74    31    74    1
    75    32    75    1
    76    33    76    1
    77    34    77    1
    78    34    78    1
    79    34    79    1
    80    35    80    1
    81    35    81    1
    82    35    82    1
