
     RDKit          3D

 82 82  0  0  0  0  0  0  0  0999 V2000
    8.8694   -0.5286    0.9856 C   0  0  0  0  0  0  0  0  0  0  0  0
    8.1288   -0.7476   -0.3085 C   0  0  0  0  0  0  0  0  0  0  0  0
    6.8341    0.0212   -0.2725 C   0  0  0  0  0  0  0  0  0  0  0  0
    7.0527    1.4983   -0.1018 C   0  0  0  0  0  0  0  0  0  0  0  0
    5.7878    2.2129   -0.0734 N   0  0  0  0  0  0  0  0  0  0  0  0
    4.7777    1.9906    0.8974 C   0  0  0  0  0  0  0  0  0  0  0  0
    4.9617    1.1346    1.7984 O   0  0  0  0  0  0  0  0  0  0  0  0
    3.5036    2.7959    0.8169 C   0  0  2  0  0  0  0  0  0  0  0  0
    2.5844    2.4526    1.9296 C   0  0  0  0  0  0  0  0  0  0  0  0
    2.9477    2.8198   -0.5547 C   0  0  0  0  0  0  0  0  0  0  0  0
    2.5870    1.5329   -1.1870 C   0  0  2  0  0  0  0  0  0  0  0  0
    2.1100    1.8514   -2.4899 O   0  0  0  0  0  0  0  0  0  0  0  0
    1.3645    0.8493   -0.5462 C   0  0  1  0  0  0  0  0  0  0  0  0
    0.2431    1.7447   -0.5361 N   0  0  0  0  0  0  0  0  0  0  0  0
    1.1114   -0.3949   -1.3393 C   0  0  0  0  0  0  0  0  0  0  0  0
    0.0015   -1.1920   -0.9125 N   0  0  0  0  0  0  0  0  0  0  0  0
   -1.2880   -0.9014   -1.4906 C   0  0  0  0  0  0  0  0  0  0  0  0
   -1.4425    0.0126   -2.3375 O   0  0  0  0  0  0  0  0  0  0  0  0
   -2.4801   -1.6542   -1.1221 C   0  0  0  0  0  0  0  0  0  0  0  0
   -2.6230   -3.0119   -1.3190 C   0  0  0  0  0  0  0  0  0  0  0  0
   -3.7698   -3.7010   -0.9622 C   0  0  0  0  0  0  0  0  0  0  0  0
   -4.7940   -2.9587   -0.3861 C   0  0  0  0  0  0  0  0  0  0  0  0
   -6.0403   -3.6628    0.0098 C   0  0  0  0  0  0  0  0  0  0  0  0
   -7.1258   -3.3677   -0.9973 C   0  0  0  0  0  0  0  0  0  0  0  0
   -4.6972   -1.6013   -0.1697 C   0  0  0  0  0  0  0  0  0  0  0  0
   -5.7813   -0.9611    0.4119 O   0  0  0  0  0  0  0  0  0  0  0  0
   -5.6420    0.4805    0.6262 C   0  0  0  0  0  0  0  0  0  0  0  0
   -6.8797    1.0116    1.2476 C   0  0  0  0  0  0  0  0  0  0  0  0
   -6.9114    2.4385    1.6272 C   0  0  0  0  0  0  0  0  0  0  0  0
   -6.7700    3.4478    0.7823 O   0  0  0  0  0  0  0  0  0  0  0  0
   -5.6469    3.7175    0.1126 C   0  0  0  0  0  0  0  0  0  0  0  0
   -3.5333   -0.9397   -0.5389 C   0  0  0  0  0  0  0  0  0  0  0  0
    0.1839   -2.2497    0.0333 C   0  0  0  0  0  0  0  0  0  0  0  0
    0.6161   -1.6860    1.3827 C   0  0  0  0  0  0  0  0  0  0  0  0
    1.2099   -3.2306   -0.4870 C   0  0  0  0  0  0  0  0  0  0  0  0
    9.4216    0.4103    0.9575 H   0  0  0  0  0  0  0  0  0  0  0  0
    8.1259   -0.5151    1.8114 H   0  0  0  0  0  0  0  0  0  0  0  0
    9.6049   -1.3679    1.1509 H   0  0  0  0  0  0  0  0  0  0  0  0
    8.7286   -0.4519   -1.1936 H   0  0  0  0  0  0  0  0  0  0  0  0
    7.8751   -1.8189   -0.3620 H   0  0  0  0  0  0  0  0  0  0  0  0
    6.2760   -0.3535    0.6075 H   0  0  0  0  0  0  0  0  0  0  0  0
    6.2039   -0.1649   -1.1606 H   0  0  0  0  0  0  0  0  0  0  0  0
    7.6161    1.8493   -0.9882 H   0  0  0  0  0  0  0  0  0  0  0  0
    7.6563    1.7105    0.8076 H   0  0  0  0  0  0  0  0  0  0  0  0
    5.5705    2.9547   -0.8076 H   0  0  0  0  0  0  0  0  0  0  0  0
    3.8793    3.8541    1.0100 H   0  0  0  0  0  0  0  0  0  0  0  0
    2.7390    1.4331    2.3456 H   0  0  0  0  0  0  0  0  0  0  0  0
    2.8479    3.1226    2.8106 H   0  0  0  0  0  0  0  0  0  0  0  0
    1.5568    2.7145    1.6890 H   0  0  0  0  0  0  0  0  0  0  0  0
    2.0000    3.4413   -0.5270 H   0  0  0  0  0  0  0  0  0  0  0  0
    3.6320    3.4439   -1.1925 H   0  0  0  0  0  0  0  0  0  0  0  0
    3.3668    0.7764   -1.2347 H   0  0  0  0  0  0  0  0  0  0  0  0
    2.4045    1.2034   -3.1531 H   0  0  0  0  0  0  0  0  0  0  0  0
    1.5809    0.5697    0.4825 H   0  0  0  0  0  0  0  0  0  0  0  0
   -0.5762    1.3010   -0.0783 H   0  0  0  0  0  0  0  0  0  0  0  0
   -0.0099    2.1663   -1.4351 H   0  0  0  0  0  0  0  0  0  0  0  0
    2.0703   -0.9700   -1.3484 H   0  0  0  0  0  0  0  0  0  0  0  0
    0.9686   -0.1042   -2.4202 H   0  0  0  0  0  0  0  0  0  0  0  0
   -1.8066   -3.5592   -1.7700 H   0  0  0  0  0  0  0  0  0  0  0  0
   -3.8786   -4.7659   -1.1178 H   0  0  0  0  0  0  0  0  0  0  0  0
   -6.3962   -3.3102    0.9966 H   0  0  0  0  0  0  0  0  0  0  0  0
   -5.8465   -4.7682    0.1095 H   0  0  0  0  0  0  0  0  0  0  0  0
   -6.7585   -3.2671   -2.0243 H   0  0  0  0  0  0  0  0  0  0  0  0
   -7.9019   -4.1584   -0.9767 H   0  0  0  0  0  0  0  0  0  0  0  0
   -7.5491   -2.3600   -0.7237 H   0  0  0  0  0  0  0  0  0  0  0  0
   -5.5497    0.9200   -0.4129 H   0  0  0  0  0  0  0  0  0  0  0  0
   -4.7008    0.6993    1.1419 H   0  0  0  0  0  0  0  0  0  0  0  0
   -7.1640    0.3793    2.1562 H   0  0  0  0  0  0  0  0  0  0  0  0
   -7.7836    0.8310    0.5720 H   0  0  0  0  0  0  0  0  0  0  0  0
   -7.8884    2.6331    2.2072 H   0  0  0  0  0  0  0  0  0  0  0  0
   -6.1479    2.5387    2.5107 H   0  0  0  0  0  0  0  0  0  0  0  0
   -5.8038    4.6881   -0.5067 H   0  0  0  0  0  0  0  0  0  0  0  0
   -5.2551    3.0175   -0.6209 H   0  0  0  0  0  0  0  0  0  0  0  0
   -4.8091    3.9810    0.8281 H   0  0  0  0  0  0  0  0  0  0  0  0
   -3.4576    0.1263   -0.3688 H   0  0  0  0  0  0  0  0  0  0  0  0
   -0.7563   -2.8044    0.2503 H   0  0  0  0  0  0  0  0  0  0  0  0
    0.3437   -2.4328    2.1960 H   0  0  0  0  0  0  0  0  0  0  0  0
    0.0140   -0.8055    1.6073 H   0  0  0  0  0  0  0  0  0  0  0  0
    1.7011   -1.5834    1.4584 H   0  0  0  0  0  0  0  0  0  0  0  0
    2.2290   -2.9481   -0.1496 H   0  0  0  0  0  0  0  0  0  0  0  0
    1.2150   -3.2180   -1.5979 H   0  0  0  0  0  0  0  0  0  0  0  0
    0.9616   -4.2608   -0.1812 H   0  0  0  0  0  0  0  0  0  0  0  0
  1  2  1  0
  2  3  1  0
  3  4  1  0
  4  5  1  0
  5  6  1  0
  6  7  2  0
  6  8  1  0
  8  9  1  0
  8 10  1  0
 10 11  1  0
 11 12  1  0
 11 13  1  0
 13 14  1  0
 13 15  1  0
 15 16  1  0
 16 17  1  0
 17 18  2  0
 17 19  1  0
 19 20  2  0
 20 21  1  0
 21 22  2  0
 22 23  1  0
 23 24  1  0
 22 25  1  0
 25 26  1  0
 26 27  1  0
 27 28  1  0
 28 29  1  0
 29 30  1  0
 30 31  1  0
 25 32  2  0
 16 33  1  0
 33 34  1  0
 33 35  1  0
 32 19  1  0
  1 36  1  0
  1 37  1  0
  1 38  1  0
  2 39  1  0
  2 40  1  0
  3 41  1  0
  3 42  1  0
  4 43  1  0
  4 44  1  0
  5 45  1  0
  8 46  1  1
  9 47  1  0
  9 48  1  0
  9 49  1  0
 10 50  1  0
 10 51  1  0
 11 52  1  6
 12 53  1  0
 13 54  1  1
 14 55  1  0
 14 56  1  0
 15 57  1  0
 15 58  1  0
 20 59  1  0
 21 60  1  0
 23 61  1  0
 23 62  1  0
 24 63  1  0
 24 64  1  0
 24 65  1  0
 27 66  1  0
 27 67  1  0
 28 68  1  0
 28 69  1  0
 29 70  1  0
 29 71  1  0
 31 72  1  0
 31 73  1  0
 31 74  1  0
 32 75  1  0
 33 76  1  0
 34 77  1  0
 34 78  1  0
 34 79  1  0
 35 80  1  0
 35 81  1  0
 35 82  1  0
M  END
$$$$
