@<TRIPOS>MOLECULE
*****
 36 39 0 0 0
SMALL
GASTEIGER

@<TRIPOS>ATOM
      1 N           7.7621    1.2474    0.9959 N.pl3   1  UNL1       -0.3375
      2 C           6.4069    0.9302    0.6115 C.ar    1  UNL1        0.1566
      3 N           5.7152    0.6355   -0.2865 N.ar    1  UNL1       -0.2251
      4 C           4.4340    0.3977   -0.3179 C.ar    1  UNL1        0.0803
      5 C           3.6342    0.0440   -1.4113 C.ar    1  UNL1       -0.0346
      6 C           2.2931   -0.1700   -1.2467 C.ar    1  UNL1       -0.0520
      7 C           1.6228   -0.0641   -0.0409 C.ar    1  UNL1       -0.0165
      8 C           0.2127   -0.3100    0.0836 C.ar    1  UNL1       -0.0114
      9 C          -0.3541   -1.2561   -0.7475 C.ar    1  UNL1       -0.0376
     10 C          -1.6991   -1.5305   -0.6713 C.ar    1  UNL1        0.0085
     11 N          -2.5385   -0.9029    0.2064 N.ar    1  UNL1       -0.3149
     12 C          -3.9481   -1.2205    0.2347 C.3     1  UNL1        0.0289
     13 C          -4.7879   -0.4624   -0.7387 C.3     1  UNL1       -0.0229
     14 C          -4.8716    1.0047   -0.6962 C.3     1  UNL1       -0.0483
     15 C          -6.0282    0.1769   -0.1539 C.3     1  UNL1       -0.0483
     16 C          -1.9845    0.0090    1.0055 C.ar    1  UNL1        0.2519
     17 O          -2.6780    0.6439    1.8555 O.2     1  UNL1       -0.2677
     18 C          -0.6217    0.3322    0.9752 C.ar    1  UNL1        0.0107
     19 C           2.4223    0.2891    1.0493 C.ar    1  UNL1       -0.0381
     20 C           3.7719    0.5054    0.8877 C.ar    1  UNL1        0.0413
     21 S           5.0963    0.9525    1.9850 S.2     1  UNL1       -0.0526
     22 H           8.3045    0.6281    1.6318 H       1  UNL1        0.1442
     23 H           8.2533    2.1014    0.6575 H       1  UNL1        0.1442
     24 H           4.0217   -0.0744   -2.4130 H       1  UNL1        0.0639
     25 H           1.6783   -0.4464   -2.1112 H       1  UNL1        0.0624
     26 H           0.2819   -1.7841   -1.4672 H       1  UNL1        0.0638
     27 H          -2.1228   -2.2678   -1.3235 H       1  UNL1        0.0810
     28 H          -4.3424   -1.0833    1.2683 H       1  UNL1        0.0495
     29 H          -4.0763   -2.3178    0.0306 H       1  UNL1        0.0495
     30 H          -5.0323   -0.9812   -1.7150 H       1  UNL1        0.0318
     31 H          -4.3281    1.6319   -0.0045 H       1  UNL1        0.0269
     32 H          -5.1577    1.5098   -1.6679 H       1  UNL1        0.0269
     33 H          -6.9816    0.1494   -0.6861 H       1  UNL1        0.0269
     34 H          -6.1363    0.2140    0.9544 H       1  UNL1        0.0269
     35 H          -0.2111    1.0763    1.6378 H       1  UNL1        0.0678
     36 H           1.9890    0.3923    2.0190 H       1  UNL1        0.0635
@<TRIPOS>BOND
     1     1     2    1
     2     2     3   ar
     3     3     4   ar
     4     4     5   ar
     5     5     6   ar
     6     6     7   ar
     7     7     8    1
     8     8     9   ar
     9     9    10   ar
    10    10    11   ar
    11    11    12    1
    12    12    13    1
    13    13    14    1
    14    14    15    1
    15    11    16   ar
    16    16    17    2
    17    16    18   ar
    18     7    19   ar
    19    19    20   ar
    20    20    21   ar
    21    21     2   ar
    22    20     4   ar
    23    18     8   ar
    24    15    13    1
    25     1    22    1
    26     1    23    1
    27     5    24    1
    28     6    25    1
    29     9    26    1
    30    10    27    1
    31    12    28    1
    32    12    29    1
    33    13    30    1
    34    14    31    1
    35    14    32    1
    36    15    33    1
    37    15    34    1
    38    18    35    1
    39    19    36    1
