
     RDKit          3D

 54 57  0  0  0  0  0  0  0  0999 V2000
   -0.0960    0.8109   -0.6376 C   0  0  1  0  0  0  0  0  0  0  0  0
    0.1337   -0.9711   -0.4185 S   0  0  0  0  0  0  0  0  0  0  0  0
   -0.9839   -1.4517    0.8967 C   0  0  0  0  0  0  0  0  0  0  0  0
   -1.6115   -0.3604    1.6359 C   0  0  0  0  0  0  0  0  0  0  0  0
   -2.6333   -0.8768    2.5428 C   0  0  0  0  0  0  0  0  0  0  0  0
   -4.0207   -1.7031    1.7194 S   0  0  0  0  0  0  0  0  0  0  0  0
   -4.9498   -0.4771    0.8139 C   0  0  0  0  0  0  0  0  0  0  0  0
   -5.8978    0.0751    1.5986 N   0  0  0  0  0  0  0  0  0  0  0  0
   -6.7154    1.0355    1.0728 C   0  0  0  0  0  0  0  0  0  0  0  0
   -7.6355    1.6055    1.7464 O   0  0  0  0  0  0  0  0  0  0  0  0
   -6.5974    1.4550   -0.2367 C   0  0  0  0  0  0  0  0  0  0  0  0
   -7.3332    2.3389   -0.7558 O   0  0  0  0  0  0  0  0  0  0  0  0
   -5.6287    0.8506   -0.9387 N   0  0  0  0  0  0  0  0  0  0  0  0
   -4.8225   -0.0799   -0.4617 N   0  0  0  0  0  0  0  0  0  0  0  0
   -3.7874   -0.7395   -1.2077 C   0  0  0  0  0  0  0  0  0  0  0  0
   -1.3350    0.9192    1.5740 C   0  0  0  0  0  0  0  0  0  0  0  0
   -0.3100    1.3462    0.6998 N   0  0  0  0  0  0  0  0  0  0  0  0
    0.8024    2.2083    0.4810 C   0  0  0  0  0  0  0  0  0  0  0  0
    1.3480    3.2294    1.0097 O   0  0  0  0  0  0  0  0  0  0  0  0
    1.2519    1.4975   -0.7319 C   0  0  1  0  0  0  0  0  0  0  0  0
    2.3719    0.6201   -0.4570 N   0  0  0  0  0  0  0  0  0  0  0  0
    3.5152    0.4730   -1.2824 C   0  0  0  0  0  0  0  0  0  0  0  0
    3.3803    1.2425   -2.2944 O   0  0  0  0  0  0  0  0  0  0  0  0
    4.6806   -0.3704   -1.0997 C   0  0  0  0  0  0  0  0  0  0  0  0
    5.5660   -0.2789   -2.0448 N   0  0  0  0  0  0  0  0  0  0  0  0
    5.3951    0.5685   -3.1431 O   0  0  0  0  0  0  0  0  0  0  0  0
    5.6764   -0.0063   -4.4272 C   0  0  0  0  0  0  0  0  0  0  0  0
    4.9198   -1.2787    0.0175 C   0  0  0  0  0  0  0  0  0  0  0  0
    6.1311   -2.0311    0.0017 C   0  0  0  0  0  0  0  0  0  0  0  0
    5.9470   -2.9729    1.5622 S   0  0  0  0  0  0  0  0  0  0  0  0
    4.2614   -2.1822    1.9622 C   0  0  0  0  0  0  0  0  0  0  0  0
    3.3934   -2.4026    3.0920 N   0  0  0  0  0  0  0  0  0  0  0  0
    4.0338   -1.3864    0.9997 N   0  0  0  0  0  0  0  0  0  0  0  0
   -2.0265    1.9751    2.3329 C   0  0  0  0  0  0  0  0  0  0  0  0
   -1.7608    3.3312    2.3110 O   0  0  0  0  0  0  0  0  0  0  0  0
   -2.9730    2.0587    3.1611 O   0  0  0  0  0  0  0  0  0  0  0  0
   -0.8189    1.1133   -1.3890 H   0  0  0  0  0  0  0  0  0  0  0  0
   -0.5259   -2.1888    1.5997 H   0  0  0  0  0  0  0  0  0  0  0  0
   -1.8034   -2.0499    0.4014 H   0  0  0  0  0  0  0  0  0  0  0  0
   -2.9924   -0.1567    3.2996 H   0  0  0  0  0  0  0  0  0  0  0  0
   -2.1317   -1.6890    3.1722 H   0  0  0  0  0  0  0  0  0  0  0  0
   -5.4913    1.1286   -1.9423 H   0  0  0  0  0  0  0  0  0  0  0  0
   -3.7715   -1.8212   -0.9364 H   0  0  0  0  0  0  0  0  0  0  0  0
   -4.0683   -0.7391   -2.2990 H   0  0  0  0  0  0  0  0  0  0  0  0
   -2.7895   -0.3100   -1.0514 H   0  0  0  0  0  0  0  0  0  0  0  0
    1.3302    2.0973   -1.6490 H   0  0  0  0  0  0  0  0  0  0  0  0
    2.3307    0.0547    0.4149 H   0  0  0  0  0  0  0  0  0  0  0  0
    5.4268    0.6782   -5.2424 H   0  0  0  0  0  0  0  0  0  0  0  0
    6.7688   -0.2059   -4.5094 H   0  0  0  0  0  0  0  0  0  0  0  0
    5.1377   -0.9691   -4.5628 H   0  0  0  0  0  0  0  0  0  0  0  0
    6.9212   -2.1110   -0.6156 H   0  0  0  0  0  0  0  0  0  0  0  0
    2.8282   -3.2658    3.3253 H   0  0  0  0  0  0  0  0  0  0  0  0
    3.4292   -1.5079    3.6630 H   0  0  0  0  0  0  0  0  0  0  0  0
   -1.4696    3.8701    3.1490 H   0  0  0  0  0  0  0  0  0  0  0  0
  1  2  1  0
  2  3  1  0
  3  4  1  0
  4  5  1  0
  5  6  1  0
  6  7  1  0
  7  8  2  0
  8  9  1  0
  9 10  2  0
  9 11  1  0
 11 12  2  0
 11 13  1  0
 13 14  1  0
 14 15  1  0
  4 16  2  0
 16 17  1  0
 17 18  1  0
 18 19  2  0
 18 20  1  0
 20 21  1  0
 21 22  1  0
 22 23  2  0
 22 24  1  0
 24 25  2  0
 25 26  1  0
 26 27  1  0
 24 28  1  0
 28 29  2  0
 29 30  1  0
 30 31  1  0
 31 32  1  0
 31 33  2  0
 16 34  1  0
 34 35  1  0
 34 36  2  0
 17  1  1  0
 33 28  1  0
 20  1  1  0
 14  7  1  0
  1 37  1  6
  3 38  1  0
  3 39  1  0
  5 40  1  0
  5 41  1  0
 13 42  1  0
 15 43  1  0
 15 44  1  0
 15 45  1  0
 20 46  1  6
 21 47  1  0
 27 48  1  0
 27 49  1  0
 27 50  1  0
 29 51  1  0
 32 52  1  0
 32 53  1  0
 35 54  1  0
M  END
$$$$
