@<TRIPOS>MOLECULE
*****
 56 58 0 0 0
SMALL
GASTEIGER

@<TRIPOS>ATOM
      1 C           5.4293   -2.8593    0.0165 C.3     1  UNL1       -0.0524
      2 C           5.9868   -1.6632    0.7629 C.3     1  UNL1       -0.0039
      3 N           5.6139   -0.4047    0.1257 N.3     1  UNL1       -0.3014
      4 C           6.2143    0.6868    0.8694 C.3     1  UNL1       -0.0039
      5 C           5.9163    2.0226    0.2923 C.3     1  UNL1       -0.0524
      6 C           4.1796   -0.2703    0.0254 C.3     1  UNL1        0.0145
      7 C           3.4706   -0.0719    1.3133 C.3     1  UNL1        0.0247
      8 N           2.0458    0.0267    1.0872 N.am    1  UNL1       -0.3101
      9 C           1.3324    0.9752    0.3161 C.2     1  UNL1        0.2461
     10 O           2.1449    1.7980   -0.1966 O.2     1  UNL1       -0.2701
     11 C          -0.0804    1.1142    0.0579 C.ar    1  UNL1        0.0604
     12 C          -0.5273    2.0719   -0.8580 C.ar    1  UNL1        0.0257
     13 C           0.2406    3.0431   -1.6865 C.3     1  UNL1       -0.0237
     14 N          -1.8730    1.9712   -0.8786 N.ar    1  UNL1       -0.3578
     15 C          -2.3464    1.0087   -0.0357 C.ar    1  UNL1        0.0438
     16 C          -3.7751    0.8026    0.0894 C.2     1  UNL1       -0.0253
     17 C          -4.5298   -0.2566   -0.0991 C.2     1  UNL1        0.0479
     18 C          -3.9984   -1.5375   -0.5175 C.2     1  UNL1        0.2490
     19 O          -2.8035   -1.8088   -0.7734 O.2     1  UNL1       -0.2698
     20 N          -5.1159   -2.4096   -0.5768 N.am    1  UNL1       -0.2809
     21 C          -6.2880   -1.6677   -0.2036 C.ar    1  UNL1        0.0417
     22 C          -5.9696   -0.3594    0.0920 C.ar    1  UNL1        0.0111
     23 C          -6.9560    0.5431    0.4774 C.ar    1  UNL1       -0.0168
     24 C          -8.2764    0.1470    0.5723 C.ar    1  UNL1        0.1241
     25 F          -9.2152    1.0493    0.9505 F       1  UNL1       -0.2055
     26 C          -8.6072   -1.1764    0.2744 C.ar    1  UNL1       -0.0247
     27 C          -7.6213   -2.0771   -0.1105 C.ar    1  UNL1       -0.0372
     28 C          -1.2153    0.4991    0.5288 C.ar    1  UNL1       -0.0134
     29 C          -1.2178   -0.5526    1.5627 C.3     1  UNL1       -0.0370
     30 H           5.2340   -2.5489   -1.0295 H       1  UNL1        0.0242
     31 H           6.2318   -3.6469   -0.0822 H       1  UNL1        0.0242
     32 H           4.5770   -3.2534    0.5676 H       1  UNL1        0.0242
     33 H           7.1050   -1.7083    0.6582 H       1  UNL1        0.0424
     34 H           5.7700   -1.7057    1.8308 H       1  UNL1        0.0424
     35 H           7.3278    0.5106    0.7986 H       1  UNL1        0.0424
     36 H           5.9753    0.6492    1.9425 H       1  UNL1        0.0424
     37 H           5.1793    2.0162   -0.5150 H       1  UNL1        0.0242
     38 H           5.4794    2.6622    1.1162 H       1  UNL1        0.0242
     39 H           6.8406    2.5003   -0.1093 H       1  UNL1        0.0242
     40 H           3.7905   -1.2468   -0.3968 H       1  UNL1        0.0442
     41 H           3.9284    0.4691   -0.7478 H       1  UNL1        0.0442
     42 H           3.7418    0.8852    1.8257 H       1  UNL1        0.0475
     43 H           3.6704   -0.9099    1.9936 H       1  UNL1        0.0475
     44 H           1.4450   -0.6943    1.5415 H       1  UNL1        0.1491
     45 H           0.5156    3.9501   -1.1472 H       1  UNL1        0.0292
     46 H           1.1324    2.5614   -2.1334 H       1  UNL1        0.0292
     47 H          -0.3982    3.3624   -2.5478 H       1  UNL1        0.0292
     48 H          -2.4758    2.5961   -1.5006 H       1  UNL1        0.1656
     49 H          -4.3175    1.7081    0.4025 H       1  UNL1        0.0646
     50 H          -5.0103   -3.4113   -0.8547 H       1  UNL1        0.1552
     51 H          -6.6852    1.5686    0.7060 H       1  UNL1        0.0653
     52 H          -9.6520   -1.4244    0.3663 H       1  UNL1        0.0647
     53 H          -7.9156   -3.1090   -0.3379 H       1  UNL1        0.0637
     54 H          -2.2648   -0.7487    1.9065 H       1  UNL1        0.0278
     55 H          -0.6468   -0.1821    2.4461 H       1  UNL1        0.0278
     56 H          -0.7358   -1.4942    1.2243 H       1  UNL1        0.0278
@<TRIPOS>BOND
     1     1     2    1
     2     2     3    1
     3     3     4    1
     4     4     5    1
     5     3     6    1
     6     6     7    1
     7     7     8    1
     8     8     9   am
     9     9    10    2
    10     9    11    1
    11    11    12   ar
    12    12    13    1
    13    12    14   ar
    14    14    15   ar
    15    15    16    1
    16    16    17    2
    17    17    18    1
    18    18    19    2
    19    18    20   am
    20    20    21    1
    21    21    22   ar
    22    22    23   ar
    23    23    24   ar
    24    24    25    1
    25    24    26   ar
    26    26    27   ar
    27    15    28   ar
    28    28    29    1
    29    28    11   ar
    30    22    17    1
    31    27    21   ar
    32     1    30    1
    33     1    31    1
    34     1    32    1
    35     2    33    1
    36     2    34    1
    37     4    35    1
    38     4    36    1
    39     5    37    1
    40     5    38    1
    41     5    39    1
    42     6    40    1
    43     6    41    1
    44     7    42    1
    45     7    43    1
    46     8    44    1
    47    13    45    1
    48    13    46    1
    49    13    47    1
    50    14    48    1
    51    16    49    1
    52    20    50    1
    53    23    51    1
    54    26    52    1
    55    27    53    1
    56    29    54    1
    57    29    55    1
    58    29    56    1
