
     RDKit          3D

 30 31  0  0  0  0  0  0  0  0999 V2000
    2.6972    2.6982    0.4440 N   0  0  0  0  0  0  0  0  0  0  0  0
    3.3975    1.6268    0.3695 C   0  0  0  0  0  0  0  0  0  0  0  0
    4.8029    1.7127    0.4634 N   0  0  0  0  0  0  0  0  0  0  0  0
    2.7390    0.3455    0.1904 C   0  0  0  0  0  0  0  0  0  0  0  0
    3.4728   -0.8237    0.1073 C   0  0  0  0  0  0  0  0  0  0  0  0
    2.8768   -2.0250   -0.0593 C   0  0  0  0  0  0  0  0  0  0  0  0
    1.4789   -2.0630   -0.1475 C   0  0  0  0  0  0  0  0  0  0  0  0
    0.7566   -0.9065   -0.0651 C   0  0  0  0  0  0  0  0  0  0  0  0
   -0.7199   -0.9346   -0.1570 C   0  0  0  0  0  0  0  0  0  0  0  0
   -1.4420   -2.0870   -0.3259 C   0  0  0  0  0  0  0  0  0  0  0  0
   -2.8210   -2.0532   -0.4051 C   0  0  0  0  0  0  0  0  0  0  0  0
   -3.4566   -0.8450   -0.3118 C   0  0  0  0  0  0  0  0  0  0  0  0
   -2.7234    0.3340   -0.1394 C   0  0  0  0  0  0  0  0  0  0  0  0
   -3.4369    1.5986   -0.0446 C   0  0  0  0  0  0  0  0  0  0  0  0
   -2.7850    2.6793    0.1122 N   0  0  0  0  0  0  0  0  0  0  0  0
   -4.8447    1.6015   -0.1290 N   0  0  0  0  0  0  0  0  0  0  0  0
   -1.4001    0.2391   -0.0701 N   0  0  0  0  0  0  0  0  0  0  0  0
    1.3960    0.2747    0.1020 N   0  0  0  0  0  0  0  0  0  0  0  0
    1.6660    2.7317    0.3857 H   0  0  0  0  0  0  0  0  0  0  0  0
    5.3080    2.3761   -0.1451 H   0  0  0  0  0  0  0  0  0  0  0  0
    5.3571    1.1325    1.1240 H   0  0  0  0  0  0  0  0  0  0  0  0
    4.5671   -0.7222    0.1842 H   0  0  0  0  0  0  0  0  0  0  0  0
    3.4773   -2.9125   -0.1198 H   0  0  0  0  0  0  0  0  0  0  0  0
    1.0380   -3.0461   -0.2811 H   0  0  0  0  0  0  0  0  0  0  0  0
   -0.9157   -3.0452   -0.3985 H   0  0  0  0  0  0  0  0  0  0  0  0
   -3.3624   -2.9723   -0.5378 H   0  0  0  0  0  0  0  0  0  0  0  0
   -4.5467   -0.7622   -0.3684 H   0  0  0  0  0  0  0  0  0  0  0  0
   -1.7465    2.6644    0.1731 H   0  0  0  0  0  0  0  0  0  0  0  0
   -5.3942    1.9450   -0.9483 H   0  0  0  0  0  0  0  0  0  0  0  0
   -5.4360    1.2384    0.6722 H   0  0  0  0  0  0  0  0  0  0  0  0
  1  2  2  3
  2  3  1  0
  2  4  1  0
  4  5  2  0
  5  6  1  0
  6  7  2  0
  7  8  1  0
  8  9  1  0
  9 10  2  0
 10 11  1  0
 11 12  2  0
 12 13  1  0
 13 14  1  0
 14 15  2  3
 14 16  1  0
 13 17  2  0
  8 18  2  0
 18  4  1  0
 17  9  1  0
  1 19  1  0
  3 20  1  0
  3 21  1  0
  5 22  1  0
  6 23  1  0
  7 24  1  0
 10 25  1  0
 11 26  1  0
 12 27  1  0
 15 28  1  0
 16 29  1  0
 16 30  1  0
M  END
$$$$
