@<TRIPOS>MOLECULE
*****
 30 31 0 0 0
SMALL
GASTEIGER

@<TRIPOS>ATOM
      1 N           2.6972    2.6982    0.4440 N.2     1  UNL1       -0.0981
      2 C           3.3975    1.6268    0.3695 C.2     1  UNL1        0.3267
      3 N           4.8029    1.7127    0.4634 N.pl3   1  UNL1       -0.2453
      4 C           2.7390    0.3455    0.1904 C.ar    1  UNL1        0.1539
      5 C           3.4728   -0.8237    0.1073 C.ar    1  UNL1       -0.0283
      6 C           2.8768   -2.0250   -0.0593 C.ar    1  UNL1       -0.0574
      7 C           1.4789   -2.0630   -0.1475 C.ar    1  UNL1       -0.0341
      8 C           0.7566   -0.9065   -0.0651 C.ar    1  UNL1        0.0901
      9 C          -0.7199   -0.9346   -0.1570 C.ar    1  UNL1        0.0901
     10 C          -1.4420   -2.0870   -0.3259 C.ar    1  UNL1       -0.0341
     11 C          -2.8210   -2.0532   -0.4051 C.ar    1  UNL1       -0.0574
     12 C          -3.4566   -0.8450   -0.3118 C.ar    1  UNL1       -0.0283
     13 C          -2.7234    0.3340   -0.1394 C.ar    1  UNL1        0.1539
     14 C          -3.4369    1.5986   -0.0446 C.2     1  UNL1        0.3267
     15 N          -2.7850    2.6793    0.1122 N.2     1  UNL1       -0.0981
     16 N          -4.8447    1.6015   -0.1290 N.pl3   1  UNL1       -0.2453
     17 N          -1.4001    0.2391   -0.0701 N.ar    1  UNL1       -0.2377
     18 N           1.3960    0.2747    0.1020 N.ar    1  UNL1       -0.2377
     19 H           1.6660    2.7317    0.3857 H       1  UNL1        0.3633
     20 H           5.3080    2.3761   -0.1451 H       1  UNL1        0.2885
     21 H           5.3571    1.1325    1.1240 H       1  UNL1        0.2885
     22 H           4.5671   -0.7222    0.1842 H       1  UNL1        0.0641
     23 H           3.4773   -2.9125   -0.1198 H       1  UNL1        0.0619
     24 H           1.0380   -3.0461   -0.2811 H       1  UNL1        0.0639
     25 H          -0.9157   -3.0452   -0.3985 H       1  UNL1        0.0639
     26 H          -3.3624   -2.9723   -0.5378 H       1  UNL1        0.0619
     27 H          -4.5467   -0.7622   -0.3684 H       1  UNL1        0.0641
     28 H          -1.7465    2.6644    0.1731 H       1  UNL1        0.3633
     29 H          -5.3942    1.9450   -0.9483 H       1  UNL1        0.2885
     30 H          -5.4360    1.2384    0.6722 H       1  UNL1        0.2885
@<TRIPOS>BOND
     1     1     2    2
     2     2     3    1
     3     2     4    1
     4     4     5   ar
     5     5     6   ar
     6     6     7   ar
     7     7     8   ar
     8     8     9    1
     9     9    10   ar
    10    10    11   ar
    11    11    12   ar
    12    12    13   ar
    13    13    14    1
    14    14    15    2
    15    14    16    1
    16    13    17   ar
    17     8    18   ar
    18    18     4   ar
    19    17     9   ar
    20     1    19    1
    21     3    20    1
    22     3    21    1
    23     5    22    1
    24     6    23    1
    25     7    24    1
    26    10    25    1
    27    11    26    1
    28    12    27    1
    29    15    28    1
    30    16    29    1
    31    16    30    1
