@<TRIPOS>MOLECULE
*****
 40 40 0 0 0
SMALL
GASTEIGER

@<TRIPOS>ATOM
      1 C           4.2806   -0.9664    1.6331 C.3     1  UNL1       -0.0492
      2 C           4.5456   -0.8761    0.1245 C.3     1  UNL1        0.0147
      3 N           3.9591    0.3802   -0.3039 N.am    1  UNL1       -0.2704
      4 C           4.8107    1.5482   -0.2654 C.3     1  UNL1        0.0063
      5 C           2.6179    0.4916   -0.7450 C.2     1  UNL1        0.4079
      6 O           2.1997    1.6213   -1.0961 O.2     1  UNL1       -0.2258
      7 O           1.7349   -0.5612   -0.8159 O.3     1  UNL1       -0.4114
      8 C           0.4069   -0.3929   -1.2640 C.ar    1  UNL1        0.1335
      9 C           0.1144   -0.5308   -2.6062 C.ar    1  UNL1       -0.0192
     10 C          -1.1671   -0.3755   -3.0898 C.ar    1  UNL1       -0.0580
     11 C          -2.1471   -0.0750   -2.1680 C.ar    1  UNL1       -0.0569
     12 C          -1.9024    0.0718   -0.8216 C.ar    1  UNL1       -0.0271
     13 C          -3.0300    0.3934    0.0681 C.3     1  UNL1        0.0323
     14 C          -2.9441    1.8431    0.4371 C.3     1  UNL1       -0.0454
     15 N          -3.0232   -0.4014    1.2793 N.3     1  UNL1       -0.3017
     16 C          -4.1794    0.0010    2.0676 C.3     1  UNL1       -0.0125
     17 C          -3.2074   -1.8088    0.9657 C.3     1  UNL1       -0.0125
     18 C          -0.6053   -0.0919   -0.3784 C.ar    1  UNL1       -0.0145
     19 H           4.4402   -1.9697    2.0248 H       1  UNL1        0.0245
     20 H           3.2553   -0.5706    1.7788 H       1  UNL1        0.0245
     21 H           4.9647   -0.2589    2.1458 H       1  UNL1        0.0245
     22 H           4.1291   -1.7479   -0.3847 H       1  UNL1        0.0463
     23 H           5.6428   -0.8500    0.0164 H       1  UNL1        0.0463
     24 H           5.0958    1.8489    0.7582 H       1  UNL1        0.0429
     25 H           5.7230    1.3054   -0.8779 H       1  UNL1        0.0429
     26 H           4.3445    2.4190   -0.7860 H       1  UNL1        0.0429
     27 H           0.9363   -0.7669   -3.2662 H       1  UNL1        0.0654
     28 H          -1.3963   -0.4862   -4.1602 H       1  UNL1        0.0619
     29 H          -3.1571    0.0419   -2.5878 H       1  UNL1        0.0621
     30 H          -3.9788    0.1705   -0.4582 H       1  UNL1        0.0509
     31 H          -1.9120    2.2372    0.2428 H       1  UNL1        0.0248
     32 H          -3.6247    2.4761   -0.1662 H       1  UNL1        0.0248
     33 H          -3.1694    2.0243    1.5141 H       1  UNL1        0.0248
     34 H          -4.7437   -0.8709    2.4425 H       1  UNL1        0.0391
     35 H          -4.8809    0.6340    1.4875 H       1  UNL1        0.0391
     36 H          -3.8744    0.6106    2.9498 H       1  UNL1        0.0391
     37 H          -2.7010   -2.1056    0.0306 H       1  UNL1        0.0391
     38 H          -2.8668   -2.3915    1.8466 H       1  UNL1        0.0391
     39 H          -4.2919   -2.0404    0.8447 H       1  UNL1        0.0391
     40 H          -0.3987    0.0200    0.6729 H       1  UNL1        0.0657
@<TRIPOS>BOND
     1     1     2    1
     2     2     3    1
     3     3     4    1
     4     3     5   am
     5     5     6    2
     6     5     7    1
     7     7     8    1
     8     8     9   ar
     9     9    10   ar
    10    10    11   ar
    11    11    12   ar
    12    12    13    1
    13    13    14    1
    14    13    15    1
    15    15    16    1
    16    15    17    1
    17    12    18   ar
    18    18     8   ar
    19     1    19    1
    20     1    20    1
    21     1    21    1
    22     2    22    1
    23     2    23    1
    24     4    24    1
    25     4    25    1
    26     4    26    1
    27     9    27    1
    28    10    28    1
    29    11    29    1
    30    13    30    1
    31    14    31    1
    32    14    32    1
    33    14    33    1
    34    16    34    1
    35    16    35    1
    36    16    36    1
    37    17    37    1
    38    17    38    1
    39    17    39    1
    40    18    40    1
