
     RDKit          3D

 40 40  0  0  0  0  0  0  0  0999 V2000
    4.2806   -0.9664    1.6331 C   0  0  0  0  0  0  0  0  0  0  0  0
    4.5456   -0.8761    0.1245 C   0  0  0  0  0  0  0  0  0  0  0  0
    3.9591    0.3802   -0.3039 N   0  0  0  0  0  0  0  0  0  0  0  0
    4.8107    1.5482   -0.2654 C   0  0  0  0  0  0  0  0  0  0  0  0
    2.6179    0.4916   -0.7450 C   0  0  0  0  0  0  0  0  0  0  0  0
    2.1997    1.6213   -1.0961 O   0  0  0  0  0  0  0  0  0  0  0  0
    1.7349   -0.5612   -0.8159 O   0  0  0  0  0  0  0  0  0  0  0  0
    0.4069   -0.3929   -1.2640 C   0  0  0  0  0  0  0  0  0  0  0  0
    0.1144   -0.5308   -2.6062 C   0  0  0  0  0  0  0  0  0  0  0  0
   -1.1671   -0.3755   -3.0898 C   0  0  0  0  0  0  0  0  0  0  0  0
   -2.1471   -0.0750   -2.1680 C   0  0  0  0  0  0  0  0  0  0  0  0
   -1.9024    0.0718   -0.8216 C   0  0  0  0  0  0  0  0  0  0  0  0
   -3.0300    0.3934    0.0681 C   0  0  2  0  0  0  0  0  0  0  0  0
   -2.9441    1.8431    0.4371 C   0  0  0  0  0  0  0  0  0  0  0  0
   -3.0232   -0.4014    1.2793 N   0  0  0  0  0  0  0  0  0  0  0  0
   -4.1794    0.0010    2.0676 C   0  0  0  0  0  0  0  0  0  0  0  0
   -3.2074   -1.8088    0.9657 C   0  0  0  0  0  0  0  0  0  0  0  0
   -0.6053   -0.0919   -0.3784 C   0  0  0  0  0  0  0  0  0  0  0  0
    4.4402   -1.9697    2.0248 H   0  0  0  0  0  0  0  0  0  0  0  0
    3.2553   -0.5706    1.7788 H   0  0  0  0  0  0  0  0  0  0  0  0
    4.9647   -0.2589    2.1458 H   0  0  0  0  0  0  0  0  0  0  0  0
    4.1291   -1.7479   -0.3847 H   0  0  0  0  0  0  0  0  0  0  0  0
    5.6428   -0.8500    0.0164 H   0  0  0  0  0  0  0  0  0  0  0  0
    5.0958    1.8489    0.7582 H   0  0  0  0  0  0  0  0  0  0  0  0
    5.7230    1.3054   -0.8779 H   0  0  0  0  0  0  0  0  0  0  0  0
    4.3445    2.4190   -0.7860 H   0  0  0  0  0  0  0  0  0  0  0  0
    0.9363   -0.7669   -3.2662 H   0  0  0  0  0  0  0  0  0  0  0  0
   -1.3963   -0.4862   -4.1602 H   0  0  0  0  0  0  0  0  0  0  0  0
   -3.1571    0.0419   -2.5878 H   0  0  0  0  0  0  0  0  0  0  0  0
   -3.9788    0.1705   -0.4582 H   0  0  0  0  0  0  0  0  0  0  0  0
   -1.9120    2.2372    0.2428 H   0  0  0  0  0  0  0  0  0  0  0  0
   -3.6247    2.4761   -0.1662 H   0  0  0  0  0  0  0  0  0  0  0  0
   -3.1694    2.0243    1.5141 H   0  0  0  0  0  0  0  0  0  0  0  0
   -4.7437   -0.8709    2.4425 H   0  0  0  0  0  0  0  0  0  0  0  0
   -4.8809    0.6340    1.4875 H   0  0  0  0  0  0  0  0  0  0  0  0
   -3.8744    0.6106    2.9498 H   0  0  0  0  0  0  0  0  0  0  0  0
   -2.7010   -2.1056    0.0306 H   0  0  0  0  0  0  0  0  0  0  0  0
   -2.8668   -2.3915    1.8466 H   0  0  0  0  0  0  0  0  0  0  0  0
   -4.2919   -2.0404    0.8447 H   0  0  0  0  0  0  0  0  0  0  0  0
   -0.3987    0.0200    0.6729 H   0  0  0  0  0  0  0  0  0  0  0  0
  1  2  1  0
  2  3  1  0
  3  4  1  0
  3  5  1  0
  5  6  2  0
  5  7  1  0
  7  8  1  0
  8  9  2  0
  9 10  1  0
 10 11  2  0
 11 12  1  0
 12 13  1  0
 13 14  1  0
 13 15  1  0
 15 16  1  0
 15 17  1  0
 12 18  2  0
 18  8  1  0
  1 19  1  0
  1 20  1  0
  1 21  1  0
  2 22  1  0
  2 23  1  0
  4 24  1  0
  4 25  1  0
  4 26  1  0
  9 27  1  0
 10 28  1  0
 11 29  1  0
 13 30  1  6
 14 31  1  0
 14 32  1  0
 14 33  1  0
 16 34  1  0
 16 35  1  0
 16 36  1  0
 17 37  1  0
 17 38  1  0
 17 39  1  0
 18 40  1  0
M  END
$$$$
