@<TRIPOS>MOLECULE
*****
 46 49 0 0 0
SMALL
GASTEIGER

@<TRIPOS>ATOM
      1 C          -2.0655    3.7497    0.5293 C.3     1  UNL1       -0.0394
      2 C          -1.0889    2.6932    0.6040 C.ar    1  UNL1       -0.0447
      3 C           0.2177    3.0955    0.9574 C.ar    1  UNL1       -0.0568
      4 C           1.2784    2.2371    1.0426 C.ar    1  UNL1       -0.0402
      5 C           1.0569    0.8968    0.7659 C.ar    1  UNL1        0.0341
      6 N           2.1638    0.0384    0.8591 N.am    1  UNL1       -0.2802
      7 C           2.1454   -1.3428    0.6195 C.2     1  UNL1        0.2666
      8 O           1.1373   -1.9835    0.2927 O.2     1  UNL1       -0.2682
      9 C           3.3875   -2.1381    0.7519 C.ar    1  UNL1        0.1257
     10 C           3.3964   -3.5056    0.5230 C.ar    1  UNL1       -0.0300
     11 C           4.5569   -4.1992    0.6550 C.ar    1  UNL1       -0.0407
     12 C           5.7021   -3.5378    1.0125 C.ar    1  UNL1        0.0699
     13 C           6.9305   -4.2533    1.1552 C.1     1  UNL1        0.1007
     14 N           7.9438   -4.8290    1.2885 N.1     1  UNL1       -0.1908
     15 C           5.6749   -2.1981    1.2328 C.ar    1  UNL1        0.0458
     16 N           4.5221   -1.5226    1.0994 N.ar    1  UNL1       -0.2491
     17 C          -0.2015    0.5134    0.4271 C.ar    1  UNL1       -0.0345
     18 C          -1.3173    1.4008    0.3364 C.ar    1  UNL1       -0.0095
     19 C          -2.6311    0.8508    0.0013 C.3     1  UNL1        0.1579
     20 C          -3.7699    1.0124    0.9222 C.3     1  UNL1        0.2685
     21 F          -4.8540    0.3366    0.2841 F       1  UNL1       -0.2062
     22 F          -4.2507    2.2635    1.1158 F       1  UNL1       -0.2062
     23 N          -3.0502    1.5840   -1.1834 N.2     1  UNL1       -0.2195
     24 C          -2.8055    1.3190   -2.3733 C.2     1  UNL1        0.2764
     25 N          -3.3134    2.1786   -3.4122 N.pl3   1  UNL1       -0.3134
     26 O          -2.0596    0.2159   -2.6721 O.2     1  UNL1       -0.4622
     27 C          -2.1814   -0.8909   -1.8019 C.3     1  UNL1        0.1091
     28 C          -3.5832   -1.2007   -1.2716 C.3     1  UNL1       -0.0064
     29 C          -2.5079   -0.6237   -0.4231 C.3     1  UNL1        0.0343
     30 H          -1.4780    4.7097    0.2250 H       1  UNL1        0.0278
     31 H          -2.7231    3.6768   -0.3559 H       1  UNL1        0.0278
     32 H          -2.5205    4.1159    1.4554 H       1  UNL1        0.0278
     33 H           0.3882    4.1621    1.1787 H       1  UNL1        0.0621
     34 H           2.2574    2.6126    1.3206 H       1  UNL1        0.0636
     35 H           3.1115    0.4377    1.1320 H       1  UNL1        0.1552
     36 H           2.4776   -4.0008    0.2424 H       1  UNL1        0.0641
     37 H           4.5570   -5.2829    0.4721 H       1  UNL1        0.0631
     38 H           6.5755   -1.6346    1.5210 H       1  UNL1        0.0843
     39 H          -0.4227   -0.5043    0.1963 H       1  UNL1        0.0640
     40 H          -3.7093    0.4951    1.8868 H       1  UNL1        0.1047
     41 H          -2.6929    2.5827   -4.1400 H       1  UNL1        0.1466
     42 H          -4.3337    2.4285   -3.4706 H       1  UNL1        0.1466
     43 H          -1.5532   -1.7439   -2.1192 H       1  UNL1        0.0737
     44 H          -4.3638   -0.6013   -1.7442 H       1  UNL1        0.0306
     45 H          -3.8618   -2.2698   -1.1840 H       1  UNL1        0.0306
     46 H          -2.1417   -1.3431    0.3265 H       1  UNL1        0.0366
@<TRIPOS>BOND
     1     1     2    1
     2     2     3   ar
     3     3     4   ar
     4     4     5   ar
     5     5     6    1
     6     6     7   am
     7     7     8    2
     8     7     9    1
     9     9    10   ar
    10    10    11   ar
    11    11    12   ar
    12    12    13    1
    13    13    14    3
    14    12    15   ar
    15    15    16   ar
    16     5    17   ar
    17    17    18   ar
    18    18    19    1
    19    19    20    1
    20    20    21    1
    21    20    22    1
    22    19    23    1
    23    23    24    2
    24    24    25    1
    25    24    26    1
    26    26    27    1
    27    27    28    1
    28    28    29    1
    29    18     2   ar
    30    29    19    1
    31    16     9   ar
    32    29    27    1
    33     1    30    1
    34     1    31    1
    35     1    32    1
    36     3    33    1
    37     4    34    1
    38     6    35    1
    39    10    36    1
    40    11    37    1
    41    15    38    1
    42    17    39    1
    43    20    40    1
    44    25    41    1
    45    25    42    1
    46    27    43    1
    47    28    44    1
    48    28    45    1
    49    29    46    1
