@<TRIPOS>MOLECULE
*****
 48 50 0 0 0
SMALL
GASTEIGER

@<TRIPOS>ATOM
      1 C          -1.5258   -1.2006    0.3418 C.3     1  UNL1        0.0511
      2 C          -0.4583   -2.2061    0.2586 C.3     1  UNL1       -0.0137
      3 C           0.9136   -1.8337    0.0472 C.ar    1  UNL1       -0.0453
      4 C           1.9194   -1.5904    0.9600 C.ar    1  UNL1       -0.0441
      5 C           3.2131   -1.2281    0.6545 C.ar    1  UNL1        0.0276
      6 BR          4.4489   -0.9393    2.0957 Br      1  UNL1       -0.0498
      7 C           3.5696   -1.0873   -0.6683 C.ar    1  UNL1        0.0467
      8 C           2.6111   -1.3164   -1.6341 C.ar    1  UNL1       -0.0510
      9 C           1.3359   -1.6751   -1.2795 C.ar    1  UNL1       -0.0580
     10 C           4.9570   -0.7002   -0.9524 C.3     1  UNL1        0.3721
     11 F           5.0956   -0.6167   -2.3387 F       1  UNL1       -0.1866
     12 F           5.8802   -1.5944   -0.4817 F       1  UNL1       -0.1866
     13 P           5.2725    0.9455   -0.2610 P.3     1  UNL1        0.4007
     14 O           5.7230    2.0344   -1.4831 O.3     1  UNL1       -0.3199
     15 O           6.5021    0.8260    0.9026 O.3     1  UNL1       -0.3199
     16 O           4.0517    1.4934    0.4514 O.2     1  UNL1       -0.2522
     17 C          -1.4145   -0.1972    1.4153 C.2     1  UNL1        0.1708
     18 O          -0.3486    0.0985    2.0159 O.2     1  UNL1       -0.2914
     19 C          -2.5425    0.5805    1.9146 C.ar    1  UNL1        0.0180
     20 C          -2.3833    1.5252    2.9042 C.ar    1  UNL1       -0.0512
     21 C          -3.4368    2.2922    3.4202 C.ar    1  UNL1       -0.0611
     22 C          -4.7067    2.1080    2.9263 C.ar    1  UNL1       -0.0617
     23 C          -4.9098    1.1838    1.9468 C.ar    1  UNL1       -0.0611
     24 C          -3.8437    0.4625    1.4800 C.ar    1  UNL1       -0.0512
     25 C          -1.9115   -0.6131   -0.9805 C.ar    1  UNL1       -0.0365
     26 C          -2.9331   -0.8795   -1.8412 C.ar    1  UNL1       -0.0579
     27 C          -3.0611   -0.1690   -3.0128 C.ar    1  UNL1       -0.0615
     28 C          -2.1757    0.8254   -3.3584 C.ar    1  UNL1       -0.0617
     29 C          -1.1361    1.1093   -2.5009 C.ar    1  UNL1       -0.0615
     30 C          -0.9942    0.3943   -1.3060 C.ar    1  UNL1       -0.0579
     31 H          -2.4642   -1.7967    0.6024 H       1  UNL1        0.0433
     32 H          -0.7197   -2.9707   -0.5328 H       1  UNL1        0.0323
     33 H          -0.5082   -2.8177    1.2116 H       1  UNL1        0.0323
     34 H           1.6539   -1.7076    1.9995 H       1  UNL1        0.0631
     35 H           2.9271   -1.1967   -2.6576 H       1  UNL1        0.0623
     36 H           0.6727   -1.8280   -2.1311 H       1  UNL1        0.0620
     37 H           4.9167    2.5305   -1.7445 H       1  UNL1        0.2199
     38 H           6.4353    1.6220    1.4708 H       1  UNL1        0.2199
     39 H          -1.4367    1.7391    3.3495 H       1  UNL1        0.0624
     40 H          -3.2819    3.0272    4.1977 H       1  UNL1        0.0618
     41 H          -5.5253    2.6927    3.3157 H       1  UNL1        0.0618
     42 H          -5.9116    1.0470    1.5657 H       1  UNL1        0.0618
     43 H          -4.0729   -0.2551    0.7086 H       1  UNL1        0.0624
     44 H          -3.5557   -1.6792   -1.4545 H       1  UNL1        0.0620
     45 H          -3.8926   -0.4466   -3.6264 H       1  UNL1        0.0618
     46 H          -2.3417    1.3420   -4.2990 H       1  UNL1        0.0618
     47 H          -0.4874    1.9013   -2.8448 H       1  UNL1        0.0618
     48 H          -0.1197    0.7646   -0.7672 H       1  UNL1        0.0620
@<TRIPOS>BOND
     1     1     2    1
     2     2     3    1
     3     3     4   ar
     4     4     5   ar
     5     5     6    1
     6     5     7   ar
     7     7     8   ar
     8     8     9   ar
     9     7    10    1
    10    10    11    1
    11    10    12    1
    12    10    13    1
    13    13    14    1
    14    13    15    1
    15    13    16    2
    16     1    17    1
    17    17    18    2
    18    17    19    1
    19    19    20   ar
    20    20    21   ar
    21    21    22   ar
    22    22    23   ar
    23    23    24   ar
    24     1    25    1
    25    25    26   ar
    26    26    27   ar
    27    27    28   ar
    28    28    29   ar
    29    29    30   ar
    30     9     3   ar
    31    24    19   ar
    32    30    25   ar
    33     1    31    1
    34     2    32    1
    35     2    33    1
    36     4    34    1
    37     8    35    1
    38     9    36    1
    39    14    37    1
    40    15    38    1
    41    20    39    1
    42    21    40    1
    43    22    41    1
    44    23    42    1
    45    24    43    1
    46    26    44    1
    47    27    45    1
    48    28    46    1
    49    29    47    1
    50    30    48    1
