@<TRIPOS>MOLECULE
*****
 51 54 0 0 0
SMALL
GASTEIGER

@<TRIPOS>ATOM
      1 C           4.5442   -3.3411    0.6952 C.3     1  UNL1       -0.0429
      2 C           5.0983   -2.0952    1.3252 C.3     1  UNL1        0.0471
      3 C           6.5792   -2.0011    1.1444 C.3     1  UNL1       -0.0429
      4 N           4.4392   -0.9224    0.7410 N.ar    1  UNL1       -0.2683
      5 C           3.0971   -0.7319    0.7597 C.ar    1  UNL1        0.0350
      6 C           2.8051    0.4586    0.1321 C.ar    1  UNL1        0.0380
      7 C           1.4711    1.0605   -0.0761 C.ar    1  UNL1        0.0798
      8 C           1.4472    2.2682   -0.7378 C.ar    1  UNL1       -0.0076
      9 C           0.1959    2.8339   -0.9336 C.ar    1  UNL1        0.0999
     10 N          -0.1637    3.9835   -1.5325 N.ar    1  UNL1       -0.1712
     11 N          -1.4618    4.0918   -1.4726 N.ar    1  UNL1       -0.2732
     12 C          -2.2169    5.1953   -2.0097 C.3     1  UNL1        0.0302
     13 C          -1.9917    3.0263   -0.8381 C.ar    1  UNL1        0.0380
     14 C          -0.9491    2.2115   -0.4862 C.ar    1  UNL1        0.0812
     15 C          -0.9051    0.9861    0.1835 C.ar    1  UNL1        0.2265
     16 O          -1.9576    0.3133    0.6501 O.3     1  UNL1       -0.4725
     17 C          -3.2581    0.2328    0.8141 C.3     1  UNL1        0.1037
     18 C          -3.7073    0.1773    2.3013 C.3     1  UNL1       -0.0274
     19 C          -3.9312   -1.0030    0.2118 C.3     1  UNL1        0.0196
     20 C          -3.7372   -1.0981   -1.2640 C.3     1  UNL1        0.0182
     21 N          -3.9637   -2.5129   -1.5170 N.am    1  UNL1       -0.3149
     22 C          -3.7269   -3.2506   -0.3278 C.2     1  UNL1        0.2135
     23 O          -3.8170   -4.4904   -0.1756 O.2     1  UNL1       -0.2758
     24 C          -3.3459   -2.2781    0.7264 C.3     1  UNL1        0.0315
     25 N           0.3662    0.4606    0.3553 N.ar    1  UNL1       -0.2121
     26 C           4.0172    0.9715   -0.2613 C.ar    1  UNL1        0.0586
     27 N           4.9910    0.1079    0.1239 N.ar    1  UNL1       -0.1787
     28 H           5.1211   -3.5436   -0.2300 H       1  UNL1        0.0250
     29 H           3.4798   -3.1544    0.4527 H       1  UNL1        0.0250
     30 H           4.6770   -4.2357    1.3490 H       1  UNL1        0.0250
     31 H           4.8590   -2.1213    2.4084 H       1  UNL1        0.0539
     32 H           6.8198   -1.3562    0.2572 H       1  UNL1        0.0250
     33 H           7.0462   -2.9918    1.0342 H       1  UNL1        0.0250
     34 H           7.0820   -1.4918    2.0059 H       1  UNL1        0.0250
     35 H           2.3703   -1.3928    1.1898 H       1  UNL1        0.0833
     36 H           2.3271    2.7603   -1.0893 H       1  UNL1        0.0661
     37 H          -1.7544    6.1263   -1.6296 H       1  UNL1        0.0473
     38 H          -3.2828    5.1831   -1.7104 H       1  UNL1        0.0473
     39 H          -2.1434    5.2203   -3.1151 H       1  UNL1        0.0473
     40 H          -3.0256    2.8508   -0.6465 H       1  UNL1        0.0834
     41 H          -3.8401    1.0803    0.4020 H       1  UNL1        0.0734
     42 H          -3.0049   -0.4273    2.8886 H       1  UNL1        0.0265
     43 H          -3.7744    1.2130    2.6880 H       1  UNL1        0.0265
     44 H          -4.7247   -0.2522    2.3722 H       1  UNL1        0.0265
     45 H          -4.9925   -0.9647    0.4524 H       1  UNL1        0.0356
     46 H          -4.4693   -0.4491   -1.7671 H       1  UNL1        0.0466
     47 H          -2.6911   -0.8928   -1.5677 H       1  UNL1        0.0466
     48 H          -4.2549   -2.8961   -2.4409 H       1  UNL1        0.1487
     49 H          -2.2191   -2.2534    0.7243 H       1  UNL1        0.0363
     50 H          -3.7094   -2.5714    1.7269 H       1  UNL1        0.0363
     51 H           4.1857    1.9062   -0.7906 H       1  UNL1        0.0854
@<TRIPOS>BOND
     1     1     2    1
     2     2     3    1
     3     2     4    1
     4     4     5   ar
     5     5     6   ar
     6     6     7    1
     7     7     8   ar
     8     8     9   ar
     9     9    10   ar
    10    10    11   ar
    11    11    12    1
    12    11    13   ar
    13    13    14   ar
    14    14    15   ar
    15    15    16    1
    16    16    17    1
    17    17    18    1
    18    17    19    1
    19    19    20    1
    20    20    21    1
    21    21    22   am
    22    22    23    2
    23    22    24    1
    24    15    25   ar
    25     6    26   ar
    26    26    27   ar
    27    27     4   ar
    28    25     7   ar
    29    14     9   ar
    30    24    19    1
    31     1    28    1
    32     1    29    1
    33     1    30    1
    34     2    31    1
    35     3    32    1
    36     3    33    1
    37     3    34    1
    38     5    35    1
    39     8    36    1
    40    12    37    1
    41    12    38    1
    42    12    39    1
    43    13    40    1
    44    17    41    1
    45    18    42    1
    46    18    43    1
    47    18    44    1
    48    19    45    1
    49    20    46    1
    50    20    47    1
    51    21    48    1
    52    24    49    1
    53    24    50    1
    54    26    51    1
