@<TRIPOS>MOLECULE
*****
 38 40 0 0 0
SMALL
GASTEIGER

@<TRIPOS>ATOM
      1 F           5.1738   -1.0023    1.2977 F       1  UNL1       -0.2054
      2 C           4.0927   -1.0238    0.4779 C.ar    1  UNL1        0.1269
      3 C           4.2800   -1.5588   -0.7774 C.ar    1  UNL1       -0.0262
      4 C           3.2016   -1.5940   -1.6307 C.ar    1  UNL1       -0.0556
      5 C           1.9511   -1.0976   -1.2268 C.ar    1  UNL1       -0.0197
      6 C           1.7626   -0.5656    0.0195 C.ar    1  UNL1        0.1241
      7 O           0.5524   -0.0836    0.4134 O.3     1  UNL1       -0.4841
      8 C          -0.6534    0.0025   -0.2269 C.3     1  UNL1        0.1256
      9 C          -1.2845    1.3475   -0.1042 C.3     1  UNL1       -0.0064
     10 C          -0.5142    2.4969   -0.6354 C.3     1  UNL1       -0.0123
     11 C           0.8116    2.8482   -0.0423 C.3     1  UNL1        0.0000
     12 N           0.1072    3.7733    0.8693 N.3     1  UNL1       -0.3154
     13 C          -0.9861    3.8154   -0.0635 C.3     1  UNL1        0.0000
     14 C          -1.6005   -1.0809    0.1771 C.ar    1  UNL1       -0.0046
     15 C          -1.1763   -2.3814    0.2086 C.ar    1  UNL1       -0.0535
     16 C          -2.0448   -3.4128    0.5901 C.ar    1  UNL1       -0.0402
     17 C          -3.3356   -3.1008    0.9345 C.ar    1  UNL1        0.0761
     18 CL         -4.4435   -4.3774    1.4164 Cl      1  UNL1       -0.0806
     19 C          -3.7754   -1.8174    0.9098 C.ar    1  UNL1        0.1420
     20 F          -5.0537   -1.5346    1.2540 F       1  UNL1       -0.2040
     21 C          -2.8874   -0.7888    0.5229 C.ar    1  UNL1       -0.0183
     22 C           2.8604   -0.5388    0.8649 C.ar    1  UNL1        0.0153
     23 H           5.2542   -1.9446   -1.0898 H       1  UNL1        0.0646
     24 H           3.3457   -2.0138   -2.6178 H       1  UNL1        0.0620
     25 H           1.1586   -1.1596   -1.9426 H       1  UNL1        0.0654
     26 H          -0.4366   -0.1452   -1.3367 H       1  UNL1        0.0784
     27 H          -2.2567    1.3417   -0.6983 H       1  UNL1        0.0308
     28 H          -1.5886    1.5682    0.9662 H       1  UNL1        0.0308
     29 H          -0.5124    2.5285   -1.7760 H       1  UNL1        0.0327
     30 H           1.4111    3.4223   -0.8083 H       1  UNL1        0.0427
     31 H           1.3763    2.0969    0.5040 H       1  UNL1        0.0427
     32 H           0.6193    4.6674    1.0291 H       1  UNL1        0.1220
     33 H          -0.9192    4.6342   -0.8256 H       1  UNL1        0.0427
     34 H          -2.0013    3.7351    0.3934 H       1  UNL1        0.0427
     35 H          -0.1748   -2.6678   -0.0531 H       1  UNL1        0.0622
     36 H          -1.7424   -4.4483    0.6256 H       1  UNL1        0.0633
     37 H          -3.3061    0.1855    0.5332 H       1  UNL1        0.0650
     38 H           2.7349   -0.1256    1.8479 H       1  UNL1        0.0683
@<TRIPOS>BOND
     1     1     2    1
     2     2     3   ar
     3     3     4   ar
     4     4     5   ar
     5     5     6   ar
     6     6     7    1
     7     7     8    1
     8     8     9    1
     9     9    10    1
    10    10    11    1
    11    11    12    1
    12    12    13    1
    13     8    14    1
    14    14    15   ar
    15    15    16   ar
    16    16    17   ar
    17    17    18    1
    18    17    19   ar
    19    19    20    1
    20    19    21   ar
    21     6    22   ar
    22    22     2   ar
    23    13    10    1
    24    21    14   ar
    25     3    23    1
    26     4    24    1
    27     5    25    1
    28     8    26    1
    29     9    27    1
    30     9    28    1
    31    10    29    1
    32    11    30    1
    33    11    31    1
    34    12    32    1
    35    13    33    1
    36    13    34    1
    37    15    35    1
    38    16    36    1
    39    21    37    1
    40    22    38    1
