
     RDKit          3D

 38 40  0  0  0  0  0  0  0  0999 V2000
    5.1738   -1.0023    1.2977 F   0  0  0  0  0  0  0  0  0  0  0  0
    4.0927   -1.0238    0.4779 C   0  0  0  0  0  0  0  0  0  0  0  0
    4.2800   -1.5588   -0.7774 C   0  0  0  0  0  0  0  0  0  0  0  0
    3.2016   -1.5940   -1.6307 C   0  0  0  0  0  0  0  0  0  0  0  0
    1.9511   -1.0976   -1.2268 C   0  0  0  0  0  0  0  0  0  0  0  0
    1.7626   -0.5656    0.0195 C   0  0  0  0  0  0  0  0  0  0  0  0
    0.5524   -0.0836    0.4134 O   0  0  0  0  0  0  0  0  0  0  0  0
   -0.6534    0.0025   -0.2269 C   0  0  0  0  0  0  0  0  0  0  0  0
   -1.2845    1.3475   -0.1042 C   0  0  0  0  0  0  0  0  0  0  0  0
   -0.5142    2.4969   -0.6354 C   0  0  0  0  0  0  0  0  0  0  0  0
    0.8116    2.8482   -0.0423 C   0  0  0  0  0  0  0  0  0  0  0  0
    0.1072    3.7733    0.8693 N   0  0  0  0  0  0  0  0  0  0  0  0
   -0.9861    3.8154   -0.0635 C   0  0  0  0  0  0  0  0  0  0  0  0
   -1.6005   -1.0809    0.1771 C   0  0  0  0  0  0  0  0  0  0  0  0
   -1.1763   -2.3814    0.2086 C   0  0  0  0  0  0  0  0  0  0  0  0
   -2.0448   -3.4128    0.5901 C   0  0  0  0  0  0  0  0  0  0  0  0
   -3.3356   -3.1008    0.9345 C   0  0  0  0  0  0  0  0  0  0  0  0
   -4.4435   -4.3774    1.4164 Cl  0  0  0  0  0  0  0  0  0  0  0  0
   -3.7754   -1.8174    0.9098 C   0  0  0  0  0  0  0  0  0  0  0  0
   -5.0537   -1.5346    1.2540 F   0  0  0  0  0  0  0  0  0  0  0  0
   -2.8874   -0.7888    0.5229 C   0  0  0  0  0  0  0  0  0  0  0  0
    2.8604   -0.5388    0.8649 C   0  0  0  0  0  0  0  0  0  0  0  0
    5.2542   -1.9446   -1.0898 H   0  0  0  0  0  0  0  0  0  0  0  0
    3.3457   -2.0138   -2.6178 H   0  0  0  0  0  0  0  0  0  0  0  0
    1.1586   -1.1596   -1.9426 H   0  0  0  0  0  0  0  0  0  0  0  0
   -0.4366   -0.1452   -1.3367 H   0  0  0  0  0  0  0  0  0  0  0  0
   -2.2567    1.3417   -0.6983 H   0  0  0  0  0  0  0  0  0  0  0  0
   -1.5886    1.5682    0.9662 H   0  0  0  0  0  0  0  0  0  0  0  0
   -0.5124    2.5285   -1.7760 H   0  0  0  0  0  0  0  0  0  0  0  0
    1.4111    3.4223   -0.8083 H   0  0  0  0  0  0  0  0  0  0  0  0
    1.3763    2.0969    0.5040 H   0  0  0  0  0  0  0  0  0  0  0  0
    0.6193    4.6674    1.0291 H   0  0  0  0  0  0  0  0  0  0  0  0
   -0.9192    4.6342   -0.8256 H   0  0  0  0  0  0  0  0  0  0  0  0
   -2.0013    3.7351    0.3934 H   0  0  0  0  0  0  0  0  0  0  0  0
   -0.1748   -2.6678   -0.0531 H   0  0  0  0  0  0  0  0  0  0  0  0
   -1.7424   -4.4483    0.6256 H   0  0  0  0  0  0  0  0  0  0  0  0
   -3.3061    0.1855    0.5332 H   0  0  0  0  0  0  0  0  0  0  0  0
    2.7349   -0.1256    1.8479 H   0  0  0  0  0  0  0  0  0  0  0  0
  1  2  1  0
  2  3  2  0
  3  4  1  0
  4  5  2  0
  5  6  1  0
  6  7  1  0
  7  8  1  0
  8  9  1  0
  9 10  1  0
 10 11  1  0
 11 12  1  0
 12 13  1  0
  8 14  1  0
 14 15  2  0
 15 16  1  0
 16 17  2  0
 17 18  1  0
 17 19  1  0
 19 20  1  0
 19 21  2  0
  6 22  2  0
 22  2  1  0
 13 10  1  0
 21 14  1  0
  3 23  1  0
  4 24  1  0
  5 25  1  0
  8 26  1  0
  9 27  1  0
  9 28  1  0
 10 29  1  0
 11 30  1  0
 11 31  1  0
 12 32  1  0
 13 33  1  0
 13 34  1  0
 15 35  1  0
 16 36  1  0
 21 37  1  0
 22 38  1  0
M  END
$$$$
