@<TRIPOS>MOLECULE
*****
 24 25 0 0 0
SMALL
GASTEIGER

@<TRIPOS>ATOM
      1 N           3.7589    0.3001    1.3187 N.3     1  UNL1       -0.2035
      2 S           3.1447   -0.2920   -0.1794 S.O2    1  UNL1        0.0560
      3 O           3.2976   -1.7902   -0.1812 O.2     1  UNL1       -0.1533
      4 O           3.8475    0.3133   -1.3721 O.2     1  UNL1       -0.1533
      5 C           1.4405    0.0472   -0.3560 C.ar    1  UNL1        0.1053
      6 C           1.0324    1.2443   -0.9552 C.ar    1  UNL1       -0.0351
      7 C          -0.3240    1.5442   -1.1108 C.ar    1  UNL1       -0.0565
      8 C          -1.2236    0.5974   -0.6421 C.ar    1  UNL1       -0.0441
      9 C          -2.7100    0.6465   -0.6731 C.3     1  UNL1       -0.0271
     10 C          -3.0420   -0.2011    0.5503 C.3     1  UNL1       -0.0450
     11 C          -2.0642   -1.3539    0.3283 C.3     1  UNL1       -0.0271
     12 C          -0.8311   -0.5854   -0.0500 C.ar    1  UNL1       -0.0423
     13 C           0.5095   -0.8703    0.0979 C.ar    1  UNL1       -0.0319
     14 H           4.7692    0.5304    1.1888 H       1  UNL1        0.1442
     15 H           3.6079   -0.4606    2.0468 H       1  UNL1        0.1442
     16 H           1.7421    1.9850   -1.3219 H       1  UNL1        0.0637
     17 H          -0.6606    2.4635   -1.5711 H       1  UNL1        0.0621
     18 H          -3.0084    0.1446   -1.6106 H       1  UNL1        0.0313
     19 H          -3.1036    1.6735   -0.5818 H       1  UNL1        0.0313
     20 H          -4.0779   -0.5230    0.5951 H       1  UNL1        0.0272
     21 H          -2.6884    0.3541    1.4409 H       1  UNL1        0.0272
     22 H          -1.9094   -1.9505    1.2436 H       1  UNL1        0.0313
     23 H          -2.3668   -2.0326   -0.4720 H       1  UNL1        0.0313
     24 H           0.8598   -1.7844    0.5557 H       1  UNL1        0.0640
@<TRIPOS>BOND
     1     1     2    1
     2     2     3    2
     3     2     4    2
     4     2     5    1
     5     5     6   ar
     6     6     7   ar
     7     7     8   ar
     8     8     9    1
     9     9    10    1
    10    10    11    1
    11    11    12    1
    12    12    13   ar
    13    13     5   ar
    14    12     8   ar
    15     1    14    1
    16     1    15    1
    17     6    16    1
    18     7    17    1
    19     9    18    1
    20     9    19    1
    21    10    20    1
    22    10    21    1
    23    11    22    1
    24    11    23    1
    25    13    24    1
