
     RDKit          3D

 15 16  0  0  0  0  0  0  0  0999 V2000
    3.1060    0.1564   -0.0215 N   0  0  0  0  0  0  0  0  0  0  0  0
    1.6901    0.0139   -0.0101 C   0  0  0  0  0  0  0  0  0  0  0  0
    1.1254   -1.1834   -0.3434 N   0  0  0  0  0  0  0  0  0  0  0  0
   -0.2296   -1.3157   -0.3313 C   0  0  0  0  0  0  0  0  0  0  0  0
   -0.9570   -0.2018    0.0263 C   0  0  0  0  0  0  0  0  0  0  0  0
   -2.2823   -0.4980   -0.0113 N   0  0  0  0  0  0  0  0  0  0  0  0
   -2.3626   -1.7522   -0.3798 N   0  0  0  0  0  0  0  0  0  0  0  0
   -1.1566   -2.2571   -0.5751 N   0  0  0  0  0  0  0  0  0  0  0  0
   -0.4032    1.0307    0.3705 C   0  0  0  0  0  0  0  0  0  0  0  0
   -1.1874    2.1136    0.7210 O   0  0  0  0  0  0  0  0  0  0  0  0
    0.9597    1.1034    0.3404 N   0  0  0  0  0  0  0  0  0  0  0  0
    3.3499    0.8003   -0.8144 H   0  0  0  0  0  0  0  0  0  0  0  0
    3.4101   -0.4425    0.7801 H   0  0  0  0  0  0  0  0  0  0  0  0
   -3.1619    0.0363    0.1803 H   0  0  0  0  0  0  0  0  0  0  0  0
   -1.9006    2.3959    0.0681 H   0  0  0  0  0  0  0  0  0  0  0  0
  1  2  1  0
  2  3  2  0
  3  4  1  0
  4  5  2  0
  5  6  1  0
  6  7  1  0
  7  8  2  0
  5  9  1  0
  9 10  1  0
  9 11  2  0
 11  2  1  0
  8  4  1  0
  1 12  1  0
  1 13  1  0
  6 14  1  0
 10 15  1  0
M  END
$$$$
