@<TRIPOS>MOLECULE
*****
 15 16 0 0 0
SMALL
GASTEIGER

@<TRIPOS>ATOM
      1 N           3.1060    0.1564   -0.0215 N.pl3   1  UNL1       -0.3273
      2 C           1.6901    0.0139   -0.0101 C.ar    1  UNL1        0.2177
      3 N           1.1254   -1.1834   -0.3434 N.ar    1  UNL1       -0.1914
      4 C          -0.2296   -1.3157   -0.3313 C.ar    1  UNL1        0.2094
      5 C          -0.9570   -0.2018    0.0263 C.ar    1  UNL1        0.1660
      6 N          -2.2823   -0.4980   -0.0113 N.ar    1  UNL1       -0.2507
      7 N          -2.3626   -1.7522   -0.3798 N.ar    1  UNL1       -0.0656
      8 N          -1.1566   -2.2571   -0.5751 N.ar    1  UNL1       -0.1092
      9 C          -0.4032    1.0307    0.3705 C.ar    1  UNL1        0.2447
     10 O          -1.1874    2.1136    0.7210 O.3     1  UNL1       -0.4908
     11 N           0.9597    1.1034    0.3404 N.ar    1  UNL1       -0.1779
     12 H           3.3499    0.8003   -0.8144 H       1  UNL1        0.1452
     13 H           3.4101   -0.4425    0.7801 H       1  UNL1        0.1452
     14 H          -3.1619    0.0363    0.1803 H       1  UNL1        0.1909
     15 H          -1.9006    2.3959    0.0681 H       1  UNL1        0.2938
@<TRIPOS>BOND
     1     1     2    1
     2     2     3   ar
     3     3     4   ar
     4     4     5   ar
     5     5     6   ar
     6     6     7   ar
     7     7     8   ar
     8     5     9   ar
     9     9    10    1
    10     9    11   ar
    11    11     2   ar
    12     8     4   ar
    13     1    12    1
    14     1    13    1
    15     6    14    1
    16    10    15    1
