@<TRIPOS>MOLECULE
*****
 53 56 0 0 0
SMALL
GASTEIGER

@<TRIPOS>ATOM
      1 F          -7.5163   -0.7171    2.3846 F       1  UNL1       -0.2046
      2 C          -6.7467    0.0522    1.5474 C.ar    1  UNL1        0.1377
      3 C          -5.7242   -0.5298    0.8152 C.ar    1  UNL1        0.0980
      4 C          -5.4467   -1.8789    0.8990 C.ar    1  UNL1        0.2645
      5 O          -6.1487   -2.5967    1.6666 O.2     1  UNL1       -0.2670
      6 N          -4.4429   -2.3478    0.1562 N.ar    1  UNL1       -0.2743
      7 C          -3.7186   -1.5488   -0.6496 C.ar    1  UNL1        0.3298
      8 O          -2.7954   -2.1497   -1.2926 O.2     1  UNL1       -0.2465
      9 N          -3.9415   -0.2072   -0.7781 N.ar    1  UNL1       -0.2933
     10 C          -3.1254    0.5703   -1.6567 C.3     1  UNL1        0.0281
     11 C          -1.8954    1.1527   -1.0049 C.3     1  UNL1       -0.0336
     12 C          -0.9606    0.1350   -0.4367 C.3     1  UNL1       -0.0386
     13 C           0.1968    0.9042    0.1656 C.3     1  UNL1       -0.0007
     14 N           1.1902    0.0282    0.7591 N.3     1  UNL1       -0.2984
     15 C           2.2322    0.8669    1.2951 C.3     1  UNL1        0.0032
     16 C           3.2767    1.0546    0.1864 C.3     1  UNL1       -0.0146
     17 C           3.9607   -0.2555    0.0806 C.2     1  UNL1       -0.0417
     18 C           3.1037   -1.2444   -0.0950 C.2     1  UNL1       -0.0663
     19 C           1.6638   -0.9573   -0.1619 C.3     1  UNL1        0.0177
     20 C           5.3948   -0.4581    0.1569 C.ar    1  UNL1       -0.0221
     21 C           5.9919   -1.6877    0.0555 C.ar    1  UNL1       -0.0543
     22 C           7.3570   -1.8706    0.1289 C.ar    1  UNL1       -0.0612
     23 C           8.2036   -0.8205    0.3097 C.ar    1  UNL1       -0.0617
     24 C           7.6450    0.4411    0.4175 C.ar    1  UNL1       -0.0612
     25 C           6.2761    0.5789    0.3385 C.ar    1  UNL1       -0.0543
     26 C          -4.9588    0.2419   -0.0190 C.ar    1  UNL1        0.0614
     27 C          -5.2436    1.5886   -0.0958 C.ar    1  UNL1       -0.0371
     28 C          -6.2540    2.1979    0.6196 C.ar    1  UNL1       -0.0571
     29 C          -7.0252    1.4148    1.4614 C.ar    1  UNL1       -0.0256
     30 H          -4.2562   -3.3682    0.2394 H       1  UNL1        0.1734
     31 H          -3.6289    1.3528   -2.2252 H       1  UNL1        0.0493
     32 H          -2.7193   -0.1321   -2.4445 H       1  UNL1        0.0493
     33 H          -1.3538    1.6882   -1.8144 H       1  UNL1        0.0283
     34 H          -2.1142    1.8772   -0.2169 H       1  UNL1        0.0283
     35 H          -1.4617   -0.4384    0.3968 H       1  UNL1        0.0278
     36 H          -0.5539   -0.5613   -1.1732 H       1  UNL1        0.0278
     37 H           0.6939    1.4055   -0.7120 H       1  UNL1        0.0427
     38 H          -0.1040    1.7178    0.8346 H       1  UNL1        0.0427
     39 H           1.7978    1.8345    1.6077 H       1  UNL1        0.0430
     40 H           2.7333    0.3824    2.1789 H       1  UNL1        0.0430
     41 H           3.9440    1.8779    0.4302 H       1  UNL1        0.0326
     42 H           2.7276    1.2586   -0.7667 H       1  UNL1        0.0326
     43 H           3.4251   -2.2713   -0.1928 H       1  UNL1        0.0588
     44 H           1.4858   -0.5448   -1.1945 H       1  UNL1        0.0470
     45 H           1.0537   -1.8909   -0.0299 H       1  UNL1        0.0470
     46 H           5.4121   -2.5859   -0.0891 H       1  UNL1        0.0624
     47 H           7.7960   -2.8533    0.0453 H       1  UNL1        0.0618
     48 H           9.2614   -0.9780    0.3648 H       1  UNL1        0.0618
     49 H           8.3255    1.2685    0.5608 H       1  UNL1        0.0618
     50 H           5.9498    1.6014    0.4345 H       1  UNL1        0.0624
     51 H          -4.6840    2.2426   -0.7269 H       1  UNL1        0.0638
     52 H          -6.4507    3.2699    0.5329 H       1  UNL1        0.0619
     53 H          -7.8276    1.8899    2.0316 H       1  UNL1        0.0646
@<TRIPOS>BOND
     1     1     2    1
     2     2     3   ar
     3     3     4   ar
     4     4     5    2
     5     4     6   ar
     6     6     7   ar
     7     7     8    2
     8     7     9   ar
     9     9    10    1
    10    10    11    1
    11    11    12    1
    12    12    13    1
    13    13    14    1
    14    14    15    1
    15    15    16    1
    16    16    17    1
    17    17    18    2
    18    18    19    1
    19    17    20    1
    20    20    21   ar
    21    21    22   ar
    22    22    23   ar
    23    23    24   ar
    24    24    25   ar
    25     9    26   ar
    26    26    27   ar
    27    27    28   ar
    28    28    29   ar
    29    29     2   ar
    30    26     3   ar
    31    19    14    1
    32    25    20   ar
    33     6    30    1
    34    10    31    1
    35    10    32    1
    36    11    33    1
    37    11    34    1
    38    12    35    1
    39    12    36    1
    40    13    37    1
    41    13    38    1
    42    15    39    1
    43    15    40    1
    44    16    41    1
    45    16    42    1
    46    18    43    1
    47    19    44    1
    48    19    45    1
    49    21    46    1
    50    22    47    1
    51    23    48    1
    52    24    49    1
    53    25    50    1
    54    27    51    1
    55    28    52    1
    56    29    53    1
