
     RDKit          3D

 52 55  0  0  0  0  0  0  0  0999 V2000
   -1.9015   -1.9775   -1.6014 C   0  0  0  0  0  0  0  0  0  0  0  0
   -1.5896   -0.8345   -0.6927 C   0  0  0  0  0  0  0  0  0  0  0  0
   -2.3499   -0.3966    0.3712 C   0  0  0  0  0  0  0  0  0  0  0  0
   -3.5552   -0.9255    0.8137 O   0  0  0  0  0  0  0  0  0  0  0  0
   -4.7338   -0.4125    0.2727 C   0  0  0  0  0  0  0  0  0  0  0  0
   -5.9770   -0.8754    0.6509 C   0  0  0  0  0  0  0  0  0  0  0  0
   -7.1469   -0.3739    0.1211 C   0  0  0  0  0  0  0  0  0  0  0  0
   -7.1143    0.6312   -0.8273 C   0  0  0  0  0  0  0  0  0  0  0  0
   -8.6014    1.2838   -1.5150 Cl  0  0  0  0  0  0  0  0  0  0  0  0
   -5.8778    1.1034   -1.2147 C   0  0  0  0  0  0  0  0  0  0  0  0
   -4.7150    0.5930   -0.6768 C   0  0  0  0  0  0  0  0  0  0  0  0
   -1.6489    0.6782    0.8941 C   0  0  0  0  0  0  0  0  0  0  0  0
   -1.9081    1.5165    1.9575 C   0  0  0  0  0  0  0  0  0  0  0  0
   -1.0478    2.5393    2.2979 C   0  0  0  0  0  0  0  0  0  0  0  0
    0.0963    2.7211    1.5520 C   0  0  0  0  0  0  0  0  0  0  0  0
    1.2239    4.0198    1.9555 Cl  0  0  0  0  0  0  0  0  0  0  0  0
    0.3281    1.8905    0.5188 N   0  0  0  0  0  0  0  0  0  0  0  0
   -0.4948    0.8859    0.1664 C   0  0  0  0  0  0  0  0  0  0  0  0
   -0.4823   -0.0593   -0.8050 N   0  0  0  0  0  0  0  0  0  0  0  0
    0.5786   -0.1705   -1.7812 C   0  0  0  0  0  0  0  0  0  0  0  0
    1.6725   -1.0514   -1.3495 C   0  0  0  0  0  0  0  0  0  0  0  0
    1.7002   -2.4021   -1.6063 C   0  0  0  0  0  0  0  0  0  0  0  0
    2.7416   -3.1766   -1.1825 C   0  0  0  0  0  0  0  0  0  0  0  0
    3.7877   -2.6106   -0.4859 C   0  0  0  0  0  0  0  0  0  0  0  0
    5.1436   -3.5678    0.0763 Cl  0  0  0  0  0  0  0  0  0  0  0  0
    3.7858   -1.2376   -0.2102 C   0  0  0  0  0  0  0  0  0  0  0  0
    4.8357   -0.7282    0.4771 O   0  0  0  0  0  0  0  0  0  0  0  0
    5.0083    0.5883    0.8385 C   0  0  1  0  0  0  0  0  0  0  0  0
    5.1133    0.7003    2.3653 C   0  0  0  0  0  0  0  0  0  0  0  0
    6.2743    1.1230    0.2671 C   0  0  0  0  0  0  0  0  0  0  0  0
    6.9861    0.3699   -0.4262 O   0  0  0  0  0  0  0  0  0  0  0  0
    6.6507    2.4202    0.4993 O   0  0  0  0  0  0  0  0  0  0  0  0
    2.7345   -0.4840   -0.6438 C   0  0  0  0  0  0  0  0  0  0  0  0
   -1.4314   -1.8682   -2.5833 H   0  0  0  0  0  0  0  0  0  0  0  0
   -1.6538   -2.9422   -1.1253 H   0  0  0  0  0  0  0  0  0  0  0  0
   -3.0153   -2.0096   -1.7804 H   0  0  0  0  0  0  0  0  0  0  0  0
   -6.0294   -1.6607    1.3906 H   0  0  0  0  0  0  0  0  0  0  0  0
   -8.1287   -0.7367    0.4173 H   0  0  0  0  0  0  0  0  0  0  0  0
   -5.8541    1.8890   -1.9560 H   0  0  0  0  0  0  0  0  0  0  0  0
   -3.7471    0.9728   -0.9897 H   0  0  0  0  0  0  0  0  0  0  0  0
   -2.8203    1.3268    2.5067 H   0  0  0  0  0  0  0  0  0  0  0  0
   -1.2719    3.1898    3.1418 H   0  0  0  0  0  0  0  0  0  0  0  0
    0.1548   -0.5914   -2.7161 H   0  0  0  0  0  0  0  0  0  0  0  0
    1.0213    0.8145   -2.0328 H   0  0  0  0  0  0  0  0  0  0  0  0
    0.8749   -2.8714   -2.1605 H   0  0  0  0  0  0  0  0  0  0  0  0
    2.7686   -4.2393   -1.3816 H   0  0  0  0  0  0  0  0  0  0  0  0
    4.2187    1.2887    0.5401 H   0  0  0  0  0  0  0  0  0  0  0  0
    5.2115    1.7754    2.5970 H   0  0  0  0  0  0  0  0  0  0  0  0
    5.9499    0.0867    2.7412 H   0  0  0  0  0  0  0  0  0  0  0  0
    4.1605    0.3164    2.7890 H   0  0  0  0  0  0  0  0  0  0  0  0
    7.3785    2.9007   -0.0242 H   0  0  0  0  0  0  0  0  0  0  0  0
    2.6964    0.5781   -0.4510 H   0  0  0  0  0  0  0  0  0  0  0  0
  1  2  1  0
  2  3  2  0
  3  4  1  0
  4  5  1  0
  5  6  2  0
  6  7  1  0
  7  8  2  0
  8  9  1  0
  8 10  1  0
 10 11  2  0
  3 12  1  0
 12 13  2  0
 13 14  1  0
 14 15  2  0
 15 16  1  0
 15 17  1  0
 17 18  2  0
 18 19  1  0
 19 20  1  0
 20 21  1  0
 21 22  2  0
 22 23  1  0
 23 24  2  0
 24 25  1  0
 24 26  1  0
 26 27  1  0
 27 28  1  0
 28 29  1  0
 28 30  1  0
 30 31  2  0
 30 32  1  0
 26 33  2  0
 19  2  1  0
 33 21  1  0
 11  5  1  0
 18 12  1  0
  1 34  1  0
  1 35  1  0
  1 36  1  0
  6 37  1  0
  7 38  1  0
 10 39  1  0
 11 40  1  0
 13 41  1  0
 14 42  1  0
 20 43  1  0
 20 44  1  0
 22 45  1  0
 23 46  1  0
 28 47  1  6
 29 48  1  0
 29 49  1  0
 29 50  1  0
 32 51  1  0
 33 52  1  0
M  END
$$$$
