@<TRIPOS>MOLECULE
*****
 52 55 0 0 0
SMALL
GASTEIGER

@<TRIPOS>ATOM
      1 C          -1.9015   -1.9775   -1.6014 C.3     1  UNL1       -0.0206
      2 C          -1.5896   -0.8345   -0.6927 C.ar    1  UNL1        0.0607
      3 C          -2.3499   -0.3966    0.3712 C.ar    1  UNL1        0.1580
      4 O          -3.5552   -0.9255    0.8137 O.3     1  UNL1       -0.4536
      5 C          -4.7338   -0.4125    0.2727 C.ar    1  UNL1        0.1286
      6 C          -5.9770   -0.8754    0.6509 C.ar    1  UNL1       -0.0180
      7 C          -7.1469   -0.3739    0.1211 C.ar    1  UNL1       -0.0399
      8 C          -7.1143    0.6312   -0.8273 C.ar    1  UNL1        0.0412
      9 CL         -8.6014    1.2838   -1.5150 Cl      1  UNL1       -0.0835
     10 C          -5.8778    1.1034   -1.2147 C.ar    1  UNL1       -0.0399
     11 C          -4.7150    0.5930   -0.6768 C.ar    1  UNL1       -0.0180
     12 C          -1.6489    0.6782    0.8941 C.ar    1  UNL1        0.0615
     13 C          -1.9081    1.5165    1.9575 C.ar    1  UNL1       -0.0446
     14 C          -1.0478    2.5393    2.2979 C.ar    1  UNL1       -0.0240
     15 C           0.0963    2.7211    1.5520 C.ar    1  UNL1        0.1316
     16 CL          1.2239    4.0198    1.9555 Cl      1  UNL1       -0.0619
     17 N           0.3281    1.8905    0.5188 N.ar    1  UNL1       -0.2174
     18 C          -0.4948    0.8859    0.1664 C.ar    1  UNL1        0.1465
     19 N          -0.4823   -0.0593   -0.8050 N.ar    1  UNL1       -0.3214
     20 C           0.5786   -0.1705   -1.7812 C.3     1  UNL1        0.0501
     21 C           1.6725   -1.0514   -1.3495 C.ar    1  UNL1       -0.0242
     22 C           1.7002   -2.4021   -1.6063 C.ar    1  UNL1       -0.0553
     23 C           2.7416   -3.1766   -1.1825 C.ar    1  UNL1       -0.0395
     24 C           3.7877   -2.6106   -0.4859 C.ar    1  UNL1        0.0826
     25 CL          5.1436   -3.5678    0.0763 Cl      1  UNL1       -0.0798
     26 C           3.7858   -1.2376   -0.2102 C.ar    1  UNL1        0.1402
     27 O           4.8357   -0.7282    0.4771 O.3     1  UNL1       -0.4765
     28 C           5.0083    0.5883    0.8385 C.3     1  UNL1        0.1931
     29 C           5.1133    0.7003    2.3653 C.3     1  UNL1       -0.0172
     30 C           6.2743    1.1230    0.2671 C.2     1  UNL1        0.3456
     31 O           6.9861    0.3699   -0.4262 O.2     1  UNL1       -0.2468
     32 O           6.6507    2.4202    0.4993 O.3     1  UNL1       -0.4781
     33 C           2.7345   -0.4840   -0.6438 C.ar    1  UNL1       -0.0136
     34 H          -1.4314   -1.8682   -2.5833 H       1  UNL1        0.0293
     35 H          -1.6538   -2.9422   -1.1253 H       1  UNL1        0.0293
     36 H          -3.0153   -2.0096   -1.7804 H       1  UNL1        0.0293
     37 H          -6.0294   -1.6607    1.3906 H       1  UNL1        0.0655
     38 H          -8.1287   -0.7367    0.4173 H       1  UNL1        0.0633
     39 H          -5.8541    1.8890   -1.9560 H       1  UNL1        0.0633
     40 H          -3.7471    0.9728   -0.9897 H       1  UNL1        0.0655
     41 H          -2.8203    1.3268    2.5067 H       1  UNL1        0.0627
     42 H          -1.2719    3.1898    3.1418 H       1  UNL1        0.0648
     43 H           0.1548   -0.5914   -2.7161 H       1  UNL1        0.0542
     44 H           1.0213    0.8145   -2.0328 H       1  UNL1        0.0542
     45 H           0.8749   -2.8714   -2.1605 H       1  UNL1        0.0621
     46 H           2.7686   -4.2393   -1.3816 H       1  UNL1        0.0633
     47 H           4.2187    1.2887    0.5401 H       1  UNL1        0.0849
     48 H           5.2115    1.7754    2.5970 H       1  UNL1        0.0271
     49 H           5.9499    0.0867    2.7412 H       1  UNL1        0.0271
     50 H           4.1605    0.3164    2.7890 H       1  UNL1        0.0271
     51 H           7.3785    2.9007   -0.0242 H       1  UNL1        0.2952
     52 H           2.6964    0.5781   -0.4510 H       1  UNL1        0.0658
@<TRIPOS>BOND
     1     1     2    1
     2     2     3   ar
     3     3     4    1
     4     4     5    1
     5     5     6   ar
     6     6     7   ar
     7     7     8   ar
     8     8     9    1
     9     8    10   ar
    10    10    11   ar
    11     3    12   ar
    12    12    13   ar
    13    13    14   ar
    14    14    15   ar
    15    15    16    1
    16    15    17   ar
    17    17    18   ar
    18    18    19   ar
    19    19    20    1
    20    20    21    1
    21    21    22   ar
    22    22    23   ar
    23    23    24   ar
    24    24    25    1
    25    24    26   ar
    26    26    27    1
    27    27    28    1
    28    28    29    1
    29    28    30    1
    30    30    31    2
    31    30    32    1
    32    26    33   ar
    33    19     2   ar
    34    33    21   ar
    35    11     5   ar
    36    18    12   ar
    37     1    34    1
    38     1    35    1
    39     1    36    1
    40     6    37    1
    41     7    38    1
    42    10    39    1
    43    11    40    1
    44    13    41    1
    45    14    42    1
    46    20    43    1
    47    20    44    1
    48    22    45    1
    49    23    46    1
    50    28    47    1
    51    29    48    1
    52    29    49    1
    53    29    50    1
    54    32    51    1
    55    33    52    1
