
     RDKit          3D

 36 37  0  0  0  0  0  0  0  0999 V2000
   -1.6936   -2.6219   -0.5002 C   0  0  0  0  0  0  0  0  0  0  0  0
   -1.8782   -1.4619    0.4237 C   0  0  0  0  0  0  0  0  0  0  0  0
   -1.2702   -0.1748   -0.0187 C   0  0  0  0  0  0  0  0  0  0  0  0
   -1.6004    0.8284    1.0646 C   0  0  0  0  0  0  0  0  0  0  0  0
   -0.9872    0.6834    2.1544 O   0  0  0  0  0  0  0  0  0  0  0  0
   -2.5409    1.8803    0.8904 N   0  0  0  0  0  0  0  0  0  0  0  0
   -3.0657    2.0700   -0.3989 C   0  0  0  0  0  0  0  0  0  0  0  0
   -3.9125    2.9951   -0.6214 O   0  0  0  0  0  0  0  0  0  0  0  0
   -2.7305    1.2925   -1.5447 N   0  0  0  0  0  0  0  0  0  0  0  0
   -1.7812    0.2413   -1.3376 C   0  0  0  0  0  0  0  0  0  0  0  0
   -1.3486   -0.3723   -2.3289 O   0  0  0  0  0  0  0  0  0  0  0  0
    0.2163   -0.1798   -0.0889 C   0  0  0  0  0  0  0  0  0  0  0  0
    0.9858   -1.1817    0.2419 C   0  0  0  0  0  0  0  0  0  0  0  0
    2.4489   -1.4166    0.2566 C   0  0  0  0  0  0  0  0  0  0  0  0
    3.2316   -0.3894    1.0086 C   0  0  0  0  0  0  0  0  0  0  0  0
    3.2261    0.8717    0.1676 C   0  0  0  0  0  0  0  0  0  0  0  0
    1.9273    1.5789    0.3819 C   0  0  0  0  0  0  0  0  0  0  0  0
    0.8267    1.1145   -0.5802 C   0  0  0  0  0  0  0  0  0  0  0  0
   -2.6522   -2.9357   -1.0017 H   0  0  0  0  0  0  0  0  0  0  0  0
   -1.3659   -3.5630    0.0285 H   0  0  0  0  0  0  0  0  0  0  0  0
   -0.9838   -2.4544   -1.3312 H   0  0  0  0  0  0  0  0  0  0  0  0
   -1.5609   -1.6926    1.4720 H   0  0  0  0  0  0  0  0  0  0  0  0
   -2.9738   -1.2889    0.5039 H   0  0  0  0  0  0  0  0  0  0  0  0
   -2.8006    2.4601    1.7107 H   0  0  0  0  0  0  0  0  0  0  0  0
   -3.1374    1.4604   -2.4817 H   0  0  0  0  0  0  0  0  0  0  0  0
    0.3911   -2.0276    0.5884 H   0  0  0  0  0  0  0  0  0  0  0  0
    2.8765   -1.4383   -0.7862 H   0  0  0  0  0  0  0  0  0  0  0  0
    2.6768   -2.4154    0.6690 H   0  0  0  0  0  0  0  0  0  0  0  0
    2.8295   -0.1597    2.0072 H   0  0  0  0  0  0  0  0  0  0  0  0
    4.2745   -0.7584    1.0670 H   0  0  0  0  0  0  0  0  0  0  0  0
    4.0452    1.5174    0.5447 H   0  0  0  0  0  0  0  0  0  0  0  0
    3.4338    0.6260   -0.8942 H   0  0  0  0  0  0  0  0  0  0  0  0
    2.0318    2.6828    0.2214 H   0  0  0  0  0  0  0  0  0  0  0  0
    1.5700    1.3632    1.4057 H   0  0  0  0  0  0  0  0  0  0  0  0
    0.0528    1.8935   -0.5176 H   0  0  0  0  0  0  0  0  0  0  0  0
    1.2390    0.9731   -1.5893 H   0  0  0  0  0  0  0  0  0  0  0  0
  1  2  1  0
  2  3  1  0
  3  4  1  0
  4  5  2  0
  4  6  1  0
  6  7  1  0
  7  8  2  0
  7  9  1  0
  9 10  1  0
 10 11  2  0
  3 12  1  0
 12 13  2  0
 13 14  1  0
 14 15  1  0
 15 16  1  0
 16 17  1  0
 17 18  1  0
 10  3  1  0
 18 12  1  0
  1 19  1  0
  1 20  1  0
  1 21  1  0
  2 22  1  0
  2 23  1  0
  6 24  1  0
  9 25  1  0
 13 26  1  0
 14 27  1  0
 14 28  1  0
 15 29  1  0
 15 30  1  0
 16 31  1  0
 16 32  1  0
 17 33  1  0
 17 34  1  0
 18 35  1  0
 18 36  1  0
M  END
$$$$
