@<TRIPOS>MOLECULE
*****
 36 37 0 0 0
SMALL
GASTEIGER

@<TRIPOS>ATOM
      1 C          -1.6936   -2.6219   -0.5002 C.3     1  UNL1       -0.0636
      2 C          -1.8782   -1.4619    0.4237 C.3     1  UNL1       -0.0296
      3 C          -1.2702   -0.1748   -0.0187 C.3     1  UNL1        0.1440
      4 C          -1.6004    0.8284    1.0646 C.2     1  UNL1        0.2395
      5 O          -0.9872    0.6834    2.1544 O.2     1  UNL1       -0.2739
      6 N          -2.5409    1.8803    0.8904 N.am    1  UNL1       -0.2387
      7 C          -3.0657    2.0700   -0.3989 C.2     1  UNL1        0.3122
      8 O          -3.9125    2.9951   -0.6214 O.2     1  UNL1       -0.2520
      9 N          -2.7305    1.2925   -1.5447 N.am    1  UNL1       -0.2387
     10 C          -1.7812    0.2413   -1.3376 C.2     1  UNL1        0.2395
     11 O          -1.3486   -0.3723   -2.3289 O.2     1  UNL1       -0.2739
     12 C           0.2163   -0.1798   -0.0889 C.2     1  UNL1       -0.0499
     13 C           0.9858   -1.1817    0.2419 C.2     1  UNL1       -0.0833
     14 C           2.4489   -1.4166    0.2566 C.3     1  UNL1       -0.0345
     15 C           3.2316   -0.3894    1.0086 C.3     1  UNL1       -0.0496
     16 C           3.2261    0.8717    0.1676 C.3     1  UNL1       -0.0525
     17 C           1.9273    1.5789    0.3819 C.3     1  UNL1       -0.0493
     18 C           0.8267    1.1145   -0.5802 C.3     1  UNL1       -0.0303
     19 H          -2.6522   -2.9357   -1.0017 H       1  UNL1        0.0230
     20 H          -1.3659   -3.5630    0.0285 H       1  UNL1        0.0230
     21 H          -0.9838   -2.4544   -1.3312 H       1  UNL1        0.0230
     22 H          -1.5609   -1.6926    1.4720 H       1  UNL1        0.0280
     23 H          -2.9738   -1.2889    0.5039 H       1  UNL1        0.0280
     24 H          -2.8006    2.4601    1.7107 H       1  UNL1        0.1591
     25 H          -3.1374    1.4604   -2.4817 H       1  UNL1        0.1591
     26 H           0.3911   -2.0276    0.5884 H       1  UNL1        0.0572
     27 H           2.8765   -1.4383   -0.7862 H       1  UNL1        0.0307
     28 H           2.6768   -2.4154    0.6690 H       1  UNL1        0.0307
     29 H           2.8295   -0.1597    2.0072 H       1  UNL1        0.0268
     30 H           4.2745   -0.7584    1.0670 H       1  UNL1        0.0268
     31 H           4.0452    1.5174    0.5447 H       1  UNL1        0.0265
     32 H           3.4338    0.6260   -0.8942 H       1  UNL1        0.0265
     33 H           2.0318    2.6828    0.2214 H       1  UNL1        0.0268
     34 H           1.5700    1.3632    1.4057 H       1  UNL1        0.0268
     35 H           0.0528    1.8935   -0.5176 H       1  UNL1        0.0310
     36 H           1.2390    0.9731   -1.5893 H       1  UNL1        0.0310
@<TRIPOS>BOND
     1     1     2    1
     2     2     3    1
     3     3     4    1
     4     4     5    2
     5     4     6   am
     6     6     7   am
     7     7     8    2
     8     7     9   am
     9     9    10   am
    10    10    11    2
    11     3    12    1
    12    12    13    2
    13    13    14    1
    14    14    15    1
    15    15    16    1
    16    16    17    1
    17    17    18    1
    18    10     3    1
    19    18    12    1
    20     1    19    1
    21     1    20    1
    22     1    21    1
    23     2    22    1
    24     2    23    1
    25     6    24    1
    26     9    25    1
    27    13    26    1
    28    14    27    1
    29    14    28    1
    30    15    29    1
    31    15    30    1
    32    16    31    1
    33    16    32    1
    34    17    33    1
    35    17    34    1
    36    18    35    1
    37    18    36    1
