@<TRIPOS>MOLECULE
*****
 43 46 0 0 0
SMALL
GASTEIGER

@<TRIPOS>ATOM
      1 C           5.2378   -2.0291    2.0494 C.3     1  UNL1        0.0790
      2 O           4.7979   -1.2660    0.9521 O.3     1  UNL1       -0.4915
      3 C           3.5083   -0.8616    0.7441 C.ar    1  UNL1        0.1615
      4 C           3.2396   -0.1165   -0.3842 C.ar    1  UNL1        0.1621
      5 O           4.2565    0.1996   -1.2626 O.3     1  UNL1       -0.4914
      6 C           4.0139    0.9611   -2.4272 C.3     1  UNL1        0.0790
      7 C           1.9608    0.3211   -0.6505 C.ar    1  UNL1       -0.0071
      8 C           0.9019    0.0431    0.1814 C.ar    1  UNL1        0.0065
      9 C           1.2370   -0.7156    1.3080 C.ar    1  UNL1       -0.0488
     10 C           2.4966   -1.1775    1.6203 C.ar    1  UNL1       -0.0157
     11 C          -0.4910    0.4377    0.0651 C.ar    1  UNL1        0.1054
     12 N          -1.4611   -0.5151    0.1969 N.ar    1  UNL1       -0.1683
     13 N          -2.6529    0.0131    0.0720 N.ar    1  UNL1       -0.2426
     14 C          -3.9012   -0.7149    0.1569 C.3     1  UNL1        0.0549
     15 C          -3.7706   -2.1890   -0.2521 C.3     1  UNL1       -0.0304
     16 C          -4.7586   -2.4873    0.8712 C.3     1  UNL1       -0.0492
     17 C          -4.2030   -1.2550    1.5565 C.3     1  UNL1       -0.0304
     18 C          -2.5631    1.3372   -0.1484 C.ar    1  UNL1        0.1641
     19 N          -3.4053    2.3679   -0.3429 N.ar    1  UNL1       -0.2161
     20 C          -2.8632    3.6040   -0.5293 C.ar    1  UNL1        0.1204
     21 N          -1.5240    3.8632   -0.5312 N.ar    1  UNL1       -0.2204
     22 C          -0.6734    2.8386   -0.3377 C.ar    1  UNL1        0.1308
     23 N           0.7187    3.1095   -0.3252 N.pl3   1  UNL1       -0.3425
     24 C          -1.2112    1.5920   -0.1503 C.ar    1  UNL1        0.0859
     25 H           4.7756   -1.6051    2.9761 H       1  UNL1        0.0660
     26 H           4.9075   -3.0871    1.9382 H       1  UNL1        0.0660
     27 H           6.3425   -2.0036    2.1097 H       1  UNL1        0.0660
     28 H           3.9714    2.0382   -2.1077 H       1  UNL1        0.0660
     29 H           4.9112    0.8857   -3.0921 H       1  UNL1        0.0660
     30 H           3.1305    0.6441   -2.9985 H       1  UNL1        0.0660
     31 H           1.7383    0.8876   -1.5275 H       1  UNL1        0.0662
     32 H           0.4551   -0.9873    2.0304 H       1  UNL1        0.0625
     33 H           2.6726   -1.7592    2.5125 H       1  UNL1        0.0655
     34 H          -4.7399   -0.2434   -0.3585 H       1  UNL1        0.0545
     35 H          -2.8057   -2.6542   -0.0017 H       1  UNL1        0.0286
     36 H          -4.1778   -2.4119   -1.2391 H       1  UNL1        0.0286
     37 H          -4.5805   -3.4357    1.4076 H       1  UNL1        0.0267
     38 H          -5.8056   -2.2947    0.5423 H       1  UNL1        0.0267
     39 H          -3.2362   -1.4247    2.0651 H       1  UNL1        0.0286
     40 H          -4.9289   -0.6565    2.1263 H       1  UNL1        0.0286
     41 H          -3.5679    4.4088   -0.6827 H       1  UNL1        0.1048
     42 H           1.0585    3.1647    0.6591 H       1  UNL1        0.1437
     43 H           0.9889    3.1735   -1.3502 H       1  UNL1        0.1437
@<TRIPOS>BOND
     1     1     2    1
     2     2     3    1
     3     3     4   ar
     4     4     5    1
     5     5     6    1
     6     4     7   ar
     7     7     8   ar
     8     8     9   ar
     9     9    10   ar
    10     8    11    1
    11    11    12   ar
    12    12    13   ar
    13    13    14    1
    14    14    15    1
    15    15    16    1
    16    16    17    1
    17    13    18   ar
    18    18    19   ar
    19    19    20   ar
    20    20    21   ar
    21    21    22   ar
    22    22    23    1
    23    22    24   ar
    24    10     3   ar
    25    24    11   ar
    26    17    14    1
    27    24    18   ar
    28     1    25    1
    29     1    26    1
    30     1    27    1
    31     6    28    1
    32     6    29    1
    33     6    30    1
    34     7    31    1
    35     9    32    1
    36    10    33    1
    37    14    34    1
    38    15    35    1
    39    15    36    1
    40    16    37    1
    41    16    38    1
    42    17    39    1
    43    17    40    1
    44    20    41    1
    45    23    42    1
    46    23    43    1
