@<TRIPOS>MOLECULE
*****
 64 68 0 0 0
SMALL
GASTEIGER

@<TRIPOS>ATOM
      1 C           4.9080    1.6930   -4.8249 C.3     1  UNL1       -0.0024
      2 N           4.2031    1.2549   -3.6158 N.pl3   1  UNL1       -0.3461
      3 C           4.8912    0.7629   -2.4903 C.ar    1  UNL1        0.0458
      4 C           6.2923    0.7668   -2.6117 C.ar    1  UNL1       -0.0233
      5 C           7.0243    0.3314   -1.5456 C.ar    1  UNL1        0.0150
      6 N           6.4534   -0.0899   -0.4130 N.ar    1  UNL1       -0.2834
      7 C           7.2290   -0.5445    0.6998 C.ar    1  UNL1        0.0495
      8 C           7.6107   -1.8615    0.8363 C.ar    1  UNL1       -0.0377
      9 C           8.3655   -2.3053    1.9184 C.ar    1  UNL1       -0.0598
     10 C           8.7530   -1.4100    2.8963 C.ar    1  UNL1       -0.0616
     11 C           8.3807   -0.0863    2.7779 C.ar    1  UNL1       -0.0598
     12 C           7.6226    0.3387    1.6831 C.ar    1  UNL1       -0.0377
     13 C           5.0939   -0.0898   -0.3074 C.ar    1  UNL1        0.2697
     14 O           4.6196   -0.4909    0.7613 O.2     1  UNL1       -0.2664
     15 C           4.2662    0.3394   -1.3504 C.ar    1  UNL1        0.1225
     16 C           2.8288    0.2936   -1.2529 C.2     1  UNL1        0.2564
     17 O           2.0407    0.4858   -2.2468 O.2     1  UNL1       -0.2696
     18 N           2.0838    0.0330   -0.0475 N.am    1  UNL1       -0.2662
     19 C           0.6439    0.0090   -0.0737 C.ar    1  UNL1        0.1253
     20 C          -0.0406    1.1772    0.1543 C.ar    1  UNL1       -0.0180
     21 C          -1.4373    1.1925    0.1369 C.ar    1  UNL1       -0.0146
     22 C          -2.0812    0.0068   -0.1142 C.ar    1  UNL1        0.1466
     23 O          -3.4697    0.0158   -0.1327 O.3     1  UNL1       -0.4538
     24 C          -4.1833   -0.2152    1.0143 C.ar    1  UNL1        0.1392
     25 C          -3.5599   -0.4663    2.2359 C.ar    1  UNL1       -0.0006
     26 C          -4.3120   -0.6935    3.3652 C.ar    1  UNL1        0.0318
     27 N          -5.6731   -0.6737    3.2929 N.ar    1  UNL1       -0.2546
     28 C          -6.2853   -0.4302    2.1087 C.ar    1  UNL1        0.0782
     29 C          -7.6693   -0.4092    2.0311 C.ar    1  UNL1        0.0098
     30 C          -8.2954   -0.1635    0.8369 C.ar    1  UNL1        0.1635
     31 O          -9.6819   -0.1442    0.7679 O.3     1  UNL1       -0.4914
     32 C         -10.4844   -0.3710    1.8961 C.3     1  UNL1        0.0790
     33 C          -7.5601    0.0676   -0.3115 C.ar    1  UNL1        0.1623
     34 O          -8.1830    0.3163   -1.5206 O.3     1  UNL1       -0.4914
     35 C          -7.4169    0.5481   -2.6731 C.3     1  UNL1        0.0790
     36 C          -6.1941    0.0497   -0.2491 C.ar    1  UNL1       -0.0036
     37 C          -5.5642   -0.1992    0.9611 C.ar    1  UNL1        0.0463
     38 C          -1.3841   -1.1583   -0.3413 C.ar    1  UNL1        0.0719
     39 N          -0.0217   -1.1246   -0.3144 N.ar    1  UNL1       -0.2365
     40 H           5.6419    2.4822   -4.4940 H       1  UNL1        0.0425
     41 H           4.1706    2.1843   -5.4811 H       1  UNL1        0.0425
     42 H           5.4841    0.8947   -5.2912 H       1  UNL1        0.0425
     43 H           3.1903    1.3407   -3.6475 H       1  UNL1        0.1458
     44 H           6.7681    1.1012   -3.5148 H       1  UNL1        0.0651
     45 H           8.1232    0.3027   -1.5583 H       1  UNL1        0.0814
     46 H           7.3031   -2.5662    0.0622 H       1  UNL1        0.0638
     47 H           8.6577   -3.3457    2.0108 H       1  UNL1        0.0618
     48 H           9.3402   -1.7274    3.7488 H       1  UNL1        0.0618
     49 H           8.6947    0.6060    3.5578 H       1  UNL1        0.0618
     50 H           7.3525    1.3742    1.6254 H       1  UNL1        0.0638
     51 H           2.5738   -0.1285    0.8415 H       1  UNL1        0.1566
     52 H           0.4656    2.0997    0.3496 H       1  UNL1        0.0653
     53 H          -1.9185    2.1224    0.3192 H       1  UNL1        0.0656
     54 H          -2.4654   -0.4746    2.2566 H       1  UNL1        0.0670
     55 H          -3.8438   -0.8899    4.3208 H       1  UNL1        0.0831
     56 H          -8.2113   -0.5973    2.9653 H       1  UNL1        0.0677
     57 H         -10.5869    0.5340    2.5095 H       1  UNL1        0.0660
     58 H         -10.0902   -1.2341    2.4901 H       1  UNL1        0.0660
     59 H         -11.4875   -0.7254    1.5256 H       1  UNL1        0.0660
     60 H          -8.0099    0.5447   -3.5989 H       1  UNL1        0.0660
     61 H          -6.8233    1.4837   -2.5824 H       1  UNL1        0.0660
     62 H          -6.6516   -0.2679   -2.7830 H       1  UNL1        0.0660
     63 H          -5.5821    0.2231   -1.1113 H       1  UNL1        0.0663
     64 H          -1.9085   -2.0919   -0.5393 H       1  UNL1        0.0868
@<TRIPOS>BOND
     1     1     2    1
     2     2     3    1
     3     3     4   ar
     4     4     5   ar
     5     5     6   ar
     6     6     7    1
     7     7     8   ar
     8     8     9   ar
     9     9    10   ar
    10    10    11   ar
    11    11    12   ar
    12     6    13   ar
    13    13    14    2
    14    13    15   ar
    15    15    16    1
    16    16    17    2
    17    16    18   am
    18    18    19    1
    19    19    20   ar
    20    20    21   ar
    21    21    22   ar
    22    22    23    1
    23    23    24    1
    24    24    25   ar
    25    25    26   ar
    26    26    27   ar
    27    27    28   ar
    28    28    29   ar
    29    29    30   ar
    30    30    31    1
    31    31    32    1
    32    30    33   ar
    33    33    34    1
    34    34    35    1
    35    33    36   ar
    36    36    37   ar
    37    22    38   ar
    38    38    39   ar
    39    15     3   ar
    40    39    19   ar
    41    12     7   ar
    42    37    24   ar
    43    37    28   ar
    44     1    40    1
    45     1    41    1
    46     1    42    1
    47     2    43    1
    48     4    44    1
    49     5    45    1
    50     8    46    1
    51     9    47    1
    52    10    48    1
    53    11    49    1
    54    12    50    1
    55    18    51    1
    56    20    52    1
    57    21    53    1
    58    25    54    1
    59    26    55    1
    60    29    56    1
    61    32    57    1
    62    32    58    1
    63    32    59    1
    64    35    60    1
    65    35    61    1
    66    35    62    1
    67    36    63    1
    68    38    64    1
