
     RDKit          3D

 64 68  0  0  0  0  0  0  0  0999 V2000
    4.9080    1.6930   -4.8249 C   0  0  0  0  0  0  0  0  0  0  0  0
    4.2031    1.2549   -3.6158 N   0  0  0  0  0  0  0  0  0  0  0  0
    4.8912    0.7629   -2.4903 C   0  0  0  0  0  0  0  0  0  0  0  0
    6.2923    0.7668   -2.6117 C   0  0  0  0  0  0  0  0  0  0  0  0
    7.0243    0.3314   -1.5456 C   0  0  0  0  0  0  0  0  0  0  0  0
    6.4534   -0.0899   -0.4130 N   0  0  0  0  0  0  0  0  0  0  0  0
    7.2290   -0.5445    0.6998 C   0  0  0  0  0  0  0  0  0  0  0  0
    7.6107   -1.8615    0.8363 C   0  0  0  0  0  0  0  0  0  0  0  0
    8.3655   -2.3053    1.9184 C   0  0  0  0  0  0  0  0  0  0  0  0
    8.7530   -1.4100    2.8963 C   0  0  0  0  0  0  0  0  0  0  0  0
    8.3807   -0.0863    2.7779 C   0  0  0  0  0  0  0  0  0  0  0  0
    7.6226    0.3387    1.6831 C   0  0  0  0  0  0  0  0  0  0  0  0
    5.0939   -0.0898   -0.3074 C   0  0  0  0  0  0  0  0  0  0  0  0
    4.6196   -0.4909    0.7613 O   0  0  0  0  0  0  0  0  0  0  0  0
    4.2662    0.3394   -1.3504 C   0  0  0  0  0  0  0  0  0  0  0  0
    2.8288    0.2936   -1.2529 C   0  0  0  0  0  0  0  0  0  0  0  0
    2.0407    0.4858   -2.2468 O   0  0  0  0  0  0  0  0  0  0  0  0
    2.0838    0.0330   -0.0475 N   0  0  0  0  0  0  0  0  0  0  0  0
    0.6439    0.0090   -0.0737 C   0  0  0  0  0  0  0  0  0  0  0  0
   -0.0406    1.1772    0.1543 C   0  0  0  0  0  0  0  0  0  0  0  0
   -1.4373    1.1925    0.1369 C   0  0  0  0  0  0  0  0  0  0  0  0
   -2.0812    0.0068   -0.1142 C   0  0  0  0  0  0  0  0  0  0  0  0
   -3.4697    0.0158   -0.1327 O   0  0  0  0  0  0  0  0  0  0  0  0
   -4.1833   -0.2152    1.0143 C   0  0  0  0  0  0  0  0  0  0  0  0
   -3.5599   -0.4663    2.2359 C   0  0  0  0  0  0  0  0  0  0  0  0
   -4.3120   -0.6935    3.3652 C   0  0  0  0  0  0  0  0  0  0  0  0
   -5.6731   -0.6737    3.2929 N   0  0  0  0  0  0  0  0  0  0  0  0
   -6.2853   -0.4302    2.1087 C   0  0  0  0  0  0  0  0  0  0  0  0
   -7.6693   -0.4092    2.0311 C   0  0  0  0  0  0  0  0  0  0  0  0
   -8.2954   -0.1635    0.8369 C   0  0  0  0  0  0  0  0  0  0  0  0
   -9.6819   -0.1442    0.7679 O   0  0  0  0  0  0  0  0  0  0  0  0
  -10.4844   -0.3710    1.8961 C   0  0  0  0  0  0  0  0  0  0  0  0
   -7.5601    0.0676   -0.3115 C   0  0  0  0  0  0  0  0  0  0  0  0
   -8.1830    0.3163   -1.5206 O   0  0  0  0  0  0  0  0  0  0  0  0
   -7.4169    0.5481   -2.6731 C   0  0  0  0  0  0  0  0  0  0  0  0
   -6.1941    0.0497   -0.2491 C   0  0  0  0  0  0  0  0  0  0  0  0
   -5.5642   -0.1992    0.9611 C   0  0  0  0  0  0  0  0  0  0  0  0
   -1.3841   -1.1583   -0.3413 C   0  0  0  0  0  0  0  0  0  0  0  0
   -0.0217   -1.1246   -0.3144 N   0  0  0  0  0  0  0  0  0  0  0  0
    5.6419    2.4822   -4.4940 H   0  0  0  0  0  0  0  0  0  0  0  0
    4.1706    2.1843   -5.4811 H   0  0  0  0  0  0  0  0  0  0  0  0
    5.4841    0.8947   -5.2912 H   0  0  0  0  0  0  0  0  0  0  0  0
    3.1903    1.3407   -3.6475 H   0  0  0  0  0  0  0  0  0  0  0  0
    6.7681    1.1012   -3.5148 H   0  0  0  0  0  0  0  0  0  0  0  0
    8.1232    0.3027   -1.5583 H   0  0  0  0  0  0  0  0  0  0  0  0
    7.3031   -2.5662    0.0622 H   0  0  0  0  0  0  0  0  0  0  0  0
    8.6577   -3.3457    2.0108 H   0  0  0  0  0  0  0  0  0  0  0  0
    9.3402   -1.7274    3.7488 H   0  0  0  0  0  0  0  0  0  0  0  0
    8.6947    0.6060    3.5578 H   0  0  0  0  0  0  0  0  0  0  0  0
    7.3525    1.3742    1.6254 H   0  0  0  0  0  0  0  0  0  0  0  0
    2.5738   -0.1285    0.8415 H   0  0  0  0  0  0  0  0  0  0  0  0
    0.4656    2.0997    0.3496 H   0  0  0  0  0  0  0  0  0  0  0  0
   -1.9185    2.1224    0.3192 H   0  0  0  0  0  0  0  0  0  0  0  0
   -2.4654   -0.4746    2.2566 H   0  0  0  0  0  0  0  0  0  0  0  0
   -3.8438   -0.8899    4.3208 H   0  0  0  0  0  0  0  0  0  0  0  0
   -8.2113   -0.5973    2.9653 H   0  0  0  0  0  0  0  0  0  0  0  0
  -10.5869    0.5340    2.5095 H   0  0  0  0  0  0  0  0  0  0  0  0
  -10.0902   -1.2341    2.4901 H   0  0  0  0  0  0  0  0  0  0  0  0
  -11.4875   -0.7254    1.5256 H   0  0  0  0  0  0  0  0  0  0  0  0
   -8.0099    0.5447   -3.5989 H   0  0  0  0  0  0  0  0  0  0  0  0
   -6.8233    1.4837   -2.5824 H   0  0  0  0  0  0  0  0  0  0  0  0
   -6.6516   -0.2679   -2.7830 H   0  0  0  0  0  0  0  0  0  0  0  0
   -5.5821    0.2231   -1.1113 H   0  0  0  0  0  0  0  0  0  0  0  0
   -1.9085   -2.0919   -0.5393 H   0  0  0  0  0  0  0  0  0  0  0  0
  1  2  1  0
  2  3  1  0
  3  4  1  0
  4  5  2  0
  5  6  1  0
  6  7  1  0
  7  8  2  0
  8  9  1  0
  9 10  2  0
 10 11  1  0
 11 12  2  0
  6 13  1  0
 13 14  2  0
 13 15  1  0
 15 16  1  0
 16 17  2  0
 16 18  1  0
 18 19  1  0
 19 20  2  0
 20 21  1  0
 21 22  2  0
 22 23  1  0
 23 24  1  0
 24 25  2  0
 25 26  1  0
 26 27  2  0
 27 28  1  0
 28 29  2  0
 29 30  1  0
 30 31  1  0
 31 32  1  0
 30 33  2  0
 33 34  1  0
 34 35  1  0
 33 36  1  0
 36 37  2  0
 22 38  1  0
 38 39  2  0
 15  3  2  0
 39 19  1  0
 12  7  1  0
 37 24  1  0
 37 28  1  0
  1 40  1  0
  1 41  1  0
  1 42  1  0
  2 43  1  0
  4 44  1  0
  5 45  1  0
  8 46  1  0
  9 47  1  0
 10 48  1  0
 11 49  1  0
 12 50  1  0
 18 51  1  0
 20 52  1  0
 21 53  1  0
 25 54  1  0
 26 55  1  0
 29 56  1  0
 32 57  1  0
 32 58  1  0
 32 59  1  0
 35 60  1  0
 35 61  1  0
 35 62  1  0
 36 63  1  0
 38 64  1  0
M  END
$$$$
