
     RDKit          3D

 56 58  0  0  0  0  0  0  0  0999 V2000
   -8.5559   -2.1239   -0.7413 N   0  0  0  0  0  0  0  0  0  0  0  0
   -7.9338   -2.1334    0.3314 C   0  0  0  0  0  0  0  0  0  0  0  0
   -8.5801   -2.6834    1.4973 N   0  0  0  0  0  0  0  0  0  0  0  0
   -6.6151   -1.6386    0.4952 N   0  0  0  0  0  0  0  0  0  0  0  0
   -5.9082   -1.0928   -0.5705 C   0  0  0  0  0  0  0  0  0  0  0  0
   -6.4339   -1.0214   -1.7350 O   0  0  0  0  0  0  0  0  0  0  0  0
   -4.5376   -0.5597   -0.4875 C   0  0  0  0  0  0  0  0  0  0  0  0
   -3.8807   -0.5705    0.7190 C   0  0  0  0  0  0  0  0  0  0  0  0
   -2.5815   -0.0679    0.7891 C   0  0  0  0  0  0  0  0  0  0  0  0
   -1.9371    0.4406   -0.3230 C   0  0  0  0  0  0  0  0  0  0  0  0
   -0.5624    0.9732   -0.2174 C   0  0  0  0  0  0  0  0  0  0  0  0
   -0.5235    2.3780    0.3612 C   0  0  0  0  0  0  0  0  0  0  0  0
    0.9043    2.8180    0.5016 C   0  0  0  0  0  0  0  0  0  0  0  0
    1.9148    1.8341    0.3843 N   0  0  0  0  0  0  0  0  0  0  0  0
    3.2837    2.3016    0.2134 C   0  0  0  0  0  0  0  0  0  0  0  0
    3.4625    3.5418    0.1806 O   0  0  0  0  0  0  0  0  0  0  0  0
    4.3687    1.3422    0.0901 C   0  0  0  0  0  0  0  0  0  0  0  0
    4.9262    0.8398    1.2453 C   0  0  0  0  0  0  0  0  0  0  0  0
    5.9671   -0.0824    1.1727 C   0  0  0  0  0  0  0  0  0  0  0  0
    6.4496   -0.5014   -0.0247 C   0  0  0  0  0  0  0  0  0  0  0  0
    7.7594   -1.6660   -0.0143 S   0  0  0  0  0  6  0  0  0  0  0  0
    7.1420   -3.2907   -0.0383 N   0  0  0  0  0  0  0  0  0  0  0  0
    8.5690   -1.5407    1.2561 O   0  0  0  0  0  0  0  0  0  0  0  0
    8.6798   -1.5027   -1.1652 O   0  0  0  0  0  0  0  0  0  0  0  0
    5.9030   -0.0087   -1.1863 C   0  0  0  0  0  0  0  0  0  0  0  0
    4.8557    0.9194   -1.1216 C   0  0  0  0  0  0  0  0  0  0  0  0
    1.6750    0.4078    0.4232 C   0  0  0  0  0  0  0  0  0  0  0  0
    0.2576    0.1772    0.8009 C   0  0  0  0  0  0  0  0  0  0  0  0
   -2.5694    0.4579   -1.5174 C   0  0  0  0  0  0  0  0  0  0  0  0
   -2.0200    0.9450   -2.7811 C   0  0  0  0  0  0  0  0  0  0  0  0
   -2.9430    0.8113   -3.8332 F   0  0  0  0  0  0  0  0  0  0  0  0
   -1.8620    2.3152   -2.6771 F   0  0  0  0  0  0  0  0  0  0  0  0
   -0.8521    0.4218   -3.1927 F   0  0  0  0  0  0  0  0  0  0  0  0
   -3.8739   -0.0520   -1.5624 C   0  0  0  0  0  0  0  0  0  0  0  0
   -8.4670   -1.8550   -1.6868 H   0  0  0  0  0  0  0  0  0  0  0  0
   -9.0512   -3.5826    1.4107 H   0  0  0  0  0  0  0  0  0  0  0  0
   -8.5479   -2.1597    2.3738 H   0  0  0  0  0  0  0  0  0  0  0  0
   -6.1649   -1.6866    1.4432 H   0  0  0  0  0  0  0  0  0  0  0  0
   -4.3426   -0.9574    1.6155 H   0  0  0  0  0  0  0  0  0  0  0  0
   -2.0522   -0.0689    1.7271 H   0  0  0  0  0  0  0  0  0  0  0  0
   -0.0284    1.0684   -1.1791 H   0  0  0  0  0  0  0  0  0  0  0  0
   -1.0289    3.1279   -0.2957 H   0  0  0  0  0  0  0  0  0  0  0  0
   -1.0518    2.3886    1.3622 H   0  0  0  0  0  0  0  0  0  0  0  0
    1.0458    3.4093    1.4460 H   0  0  0  0  0  0  0  0  0  0  0  0
    1.0938    3.5874   -0.3069 H   0  0  0  0  0  0  0  0  0  0  0  0
    4.5576    1.1595    2.1952 H   0  0  0  0  0  0  0  0  0  0  0  0
    6.3713   -0.4480    2.1118 H   0  0  0  0  0  0  0  0  0  0  0  0
    6.9620   -3.6440    0.9206 H   0  0  0  0  0  0  0  0  0  0  0  0
    6.1974   -3.2142   -0.5104 H   0  0  0  0  0  0  0  0  0  0  0  0
    6.3005   -0.3540   -2.1260 H   0  0  0  0  0  0  0  0  0  0  0  0
    4.4355    1.2973   -2.0465 H   0  0  0  0  0  0  0  0  0  0  0  0
    1.7952    0.0255   -0.6361 H   0  0  0  0  0  0  0  0  0  0  0  0
    2.4064   -0.1235    1.0644 H   0  0  0  0  0  0  0  0  0  0  0  0
    0.0886    0.5760    1.8217 H   0  0  0  0  0  0  0  0  0  0  0  0
   -0.0474   -0.8803    0.8304 H   0  0  0  0  0  0  0  0  0  0  0  0
   -4.4198   -0.0546   -2.5153 H   0  0  0  0  0  0  0  0  0  0  0  0
  1  2  2  3
  2  3  1  0
  2  4  1  0
  4  5  1  0
  5  6  2  0
  5  7  1  0
  7  8  2  0
  8  9  1  0
  9 10  2  0
 10 11  1  0
 11 12  1  0
 12 13  1  0
 13 14  1  0
 14 15  1  0
 15 16  2  0
 15 17  1  0
 17 18  2  0
 18 19  1  0
 19 20  2  0
 20 21  1  0
 21 22  1  0
 21 23  2  0
 21 24  2  0
 20 25  1  0
 25 26  2  0
 14 27  1  0
 27 28  1  0
 10 29  1  0
 29 30  1  0
 30 31  1  0
 30 32  1  0
 30 33  1  0
 29 34  2  0
 34  7  1  0
 28 11  1  0
 26 17  1  0
  1 35  1  0
  3 36  1  0
  3 37  1  0
  4 38  1  0
  8 39  1  0
  9 40  1  0
 11 41  1  0
 12 42  1  0
 12 43  1  0
 13 44  1  0
 13 45  1  0
 18 46  1  0
 19 47  1  0
 22 48  1  0
 22 49  1  0
 25 50  1  0
 26 51  1  0
 27 52  1  0
 27 53  1  0
 28 54  1  0
 28 55  1  0
 34 56  1  0
M  END
$$$$
