@<TRIPOS>MOLECULE
*****
 56 58 0 0 0
SMALL
GASTEIGER

@<TRIPOS>ATOM
      1 N          -8.5559   -2.1239   -0.7413 N.pl3   1  UNL1       -0.1313
      2 C          -7.9338   -2.1334    0.3314 C.2     1  UNL1        0.3751
      3 N          -8.5801   -2.6834    1.4973 N.pl3   1  UNL1       -0.2906
      4 N          -6.6151   -1.6386    0.4952 N.am    1  UNL1       -0.1709
      5 C          -5.9082   -1.0928   -0.5705 C.2     1  UNL1        0.3066
      6 O          -6.4339   -1.0214   -1.7350 O.2     1  UNL1       -0.2516
      7 C          -4.5376   -0.5597   -0.4875 C.ar    1  UNL1        0.0536
      8 C          -3.8807   -0.5705    0.7190 C.ar    1  UNL1       -0.0479
      9 C          -2.5815   -0.0679    0.7891 C.ar    1  UNL1       -0.0570
     10 C          -1.9371    0.4406   -0.3230 C.ar    1  UNL1       -0.0325
     11 C          -0.5624    0.9732   -0.2174 C.3     1  UNL1       -0.0125
     12 C          -0.5235    2.3780    0.3612 C.3     1  UNL1       -0.0302
     13 C           0.9043    2.8180    0.5016 C.3     1  UNL1        0.0155
     14 N           1.9148    1.8341    0.3843 N.am    1  UNL1       -0.2975
     15 C           3.2837    2.3016    0.2134 C.2     1  UNL1        0.2466
     16 O           3.4625    3.5418    0.1806 O.2     1  UNL1       -0.2700
     17 C           4.3687    1.3422    0.0901 C.ar    1  UNL1        0.0370
     18 C           4.9262    0.8398    1.2453 C.ar    1  UNL1       -0.0478
     19 C           5.9671   -0.0824    1.1727 C.ar    1  UNL1       -0.0346
     20 C           6.4496   -0.5014   -0.0247 C.ar    1  UNL1        0.1050
     21 S           7.7594   -1.6660   -0.0143 S.O2    1  UNL1        0.0559
     22 N           7.1420   -3.2907   -0.0383 N.3     1  UNL1       -0.2035
     23 O           8.5690   -1.5407    1.2561 O.2     1  UNL1       -0.1533
     24 O           8.6798   -1.5027   -1.1652 O.2     1  UNL1       -0.1533
     25 C           5.9030   -0.0087   -1.1863 C.ar    1  UNL1       -0.0346
     26 C           4.8557    0.9194   -1.1216 C.ar    1  UNL1       -0.0478
     27 C           1.6750    0.4078    0.4232 C.3     1  UNL1        0.0155
     28 C           0.2576    0.1772    0.8009 C.3     1  UNL1       -0.0302
     29 C          -2.5694    0.4579   -1.5174 C.ar    1  UNL1        0.0590
     30 C          -2.0200    0.9450   -2.7811 C.3     1  UNL1        0.4177
     31 F          -2.9430    0.8113   -3.8332 F       1  UNL1       -0.1659
     32 F          -1.8620    2.3152   -2.6771 F       1  UNL1       -0.1659
     33 F          -0.8521    0.4218   -3.1927 F       1  UNL1       -0.1659
     34 C          -3.8739   -0.0520   -1.5624 C.ar    1  UNL1       -0.0363
     35 H          -8.4670   -1.8550   -1.6868 H       1  UNL1        0.3060
     36 H          -9.0512   -3.5826    1.4107 H       1  UNL1        0.2545
     37 H          -8.5479   -2.1597    2.3738 H       1  UNL1        0.2545
     38 H          -6.1649   -1.6866    1.4432 H       1  UNL1        0.2545
     39 H          -4.3426   -0.9574    1.6155 H       1  UNL1        0.0626
     40 H          -2.0522   -0.0689    1.7271 H       1  UNL1        0.0621
     41 H          -0.0284    1.0684   -1.1791 H       1  UNL1        0.0350
     42 H          -1.0289    3.1279   -0.2957 H       1  UNL1        0.0286
     43 H          -1.0518    2.3886    1.3622 H       1  UNL1        0.0286
     44 H           1.0458    3.4093    1.4460 H       1  UNL1        0.0465
     45 H           1.0938    3.5874   -0.3069 H       1  UNL1        0.0465
     46 H           4.5576    1.1595    2.1952 H       1  UNL1        0.0626
     47 H           6.3713   -0.4480    2.1118 H       1  UNL1        0.0637
     48 H           6.9620   -3.6440    0.9206 H       1  UNL1        0.1442
     49 H           6.1974   -3.2142   -0.5104 H       1  UNL1        0.1442
     50 H           6.3005   -0.3540   -2.1260 H       1  UNL1        0.0637
     51 H           4.4355    1.2973   -2.0465 H       1  UNL1        0.0626
     52 H           1.7952    0.0255   -0.6361 H       1  UNL1        0.0465
     53 H           2.4064   -0.1235    1.0644 H       1  UNL1        0.0465
     54 H           0.0886    0.5760    1.8217 H       1  UNL1        0.0286
     55 H          -0.0474   -0.8803    0.8304 H       1  UNL1        0.0286
     56 H          -4.4198   -0.0546   -2.5153 H       1  UNL1        0.0631
@<TRIPOS>BOND
     1     1     2    2
     2     2     3    1
     3     2     4    1
     4     4     5   am
     5     5     6    2
     6     5     7    1
     7     7     8   ar
     8     8     9   ar
     9     9    10   ar
    10    10    11    1
    11    11    12    1
    12    12    13    1
    13    13    14    1
    14    14    15   am
    15    15    16    2
    16    15    17    1
    17    17    18   ar
    18    18    19   ar
    19    19    20   ar
    20    20    21    1
    21    21    22    1
    22    21    23    2
    23    21    24    2
    24    20    25   ar
    25    25    26   ar
    26    14    27    1
    27    27    28    1
    28    10    29   ar
    29    29    30    1
    30    30    31    1
    31    30    32    1
    32    30    33    1
    33    29    34   ar
    34    34     7   ar
    35    28    11    1
    36    26    17   ar
    37     1    35    1
    38     3    36    1
    39     3    37    1
    40     4    38    1
    41     8    39    1
    42     9    40    1
    43    11    41    1
    44    12    42    1
    45    12    43    1
    46    13    44    1
    47    13    45    1
    48    18    46    1
    49    19    47    1
    50    22    48    1
    51    22    49    1
    52    25    50    1
    53    26    51    1
    54    27    52    1
    55    27    53    1
    56    28    54    1
    57    28    55    1
    58    34    56    1
