@<TRIPOS>MOLECULE
*****
 72 77 0 0 0
SMALL
GASTEIGER

@<TRIPOS>ATOM
      1 C          10.3457    0.2344    0.2193 C.3     1  UNL1       -0.0126
      2 N           9.0138    0.2876    0.7284 N.3     1  UNL1       -0.3015
      3 C           8.3678    1.5536    0.6330 C.3     1  UNL1       -0.0011
      4 C           7.6487    1.7775   -0.6655 C.3     1  UNL1       -0.0365
      5 C           7.4468    0.5375   -1.4738 C.3     1  UNL1       -0.0088
      6 C           7.0841   -0.5915   -0.5325 C.3     1  UNL1        0.1437
      7 C           8.2048   -0.8456    0.4501 C.3     1  UNL1        0.0402
      8 C           5.8112   -0.3552    0.2120 C.3     1  UNL1        0.0642
      9 N           4.8011   -1.0828   -0.5128 N.am    1  UNL1       -0.2320
     10 C           3.3983   -1.0127   -0.2592 C.ar    1  UNL1        0.0578
     11 C           2.5861   -0.1048   -0.8826 C.ar    1  UNL1       -0.0354
     12 C           1.2274   -0.0635   -0.6121 C.ar    1  UNL1       -0.0197
     13 C           0.6851   -0.9317    0.2824 C.ar    1  UNL1        0.1251
     14 N          -0.6823   -0.9617    0.6180 N.pl3   1  UNL1       -0.2684
     15 C          -1.7077   -0.1346    0.1084 C.ar    1  UNL1        0.2224
     16 N          -1.5159    0.8185   -0.8074 N.ar    1  UNL1       -0.2219
     17 C          -2.4684    1.6049   -1.2951 C.ar    1  UNL1        0.0419
     18 C          -3.7457    1.4112   -0.8103 C.ar    1  UNL1        0.0378
     19 C          -4.9680    2.0000   -1.0522 C.ar    1  UNL1       -0.0209
     20 C          -5.9201    1.3895   -0.2653 C.ar    1  UNL1        0.1070
     21 C          -7.3241    1.7755   -0.2784 C.2     1  UNL1        0.2627
     22 O          -7.8525    2.1909    0.7834 O.2     1  UNL1       -0.2684
     23 N          -8.0990    1.6895   -1.4660 N.am    1  UNL1       -0.3024
     24 C          -7.4642    1.2052   -2.6833 C.3     1  UNL1        0.0032
     25 C          -9.4829    2.0546   -1.5389 C.3     1  UNL1        0.0032
     26 N          -5.3206    0.4319    0.4634 N.ar    1  UNL1       -0.3180
     27 C          -5.9798   -0.4445    1.4224 C.3     1  UNL1        0.0366
     28 C          -5.3769   -0.3252    2.8058 C.3     1  UNL1       -0.0320
     29 C          -5.7047   -1.7103    3.3769 C.3     1  UNL1       -0.0511
     30 C          -5.2096   -2.5982    2.2340 C.3     1  UNL1       -0.0511
     31 C          -5.8268   -1.9123    1.0335 C.3     1  UNL1       -0.0320
     32 C          -3.9975    0.4289    0.1465 C.ar    1  UNL1        0.1466
     33 N          -2.9877   -0.3160    0.5825 N.ar    1  UNL1       -0.1962
     34 N           1.5367   -1.8290    0.8873 N.ar    1  UNL1       -0.2383
     35 C           2.8338   -1.8930    0.6508 C.ar    1  UNL1        0.0512
     36 C           5.4830   -1.8481   -1.4856 C.2     1  UNL1        0.4080
     37 O           4.9041   -2.4601   -2.4425 O.2     1  UNL1       -0.2259
     38 O           6.8641   -1.8108   -1.2130 O.3     1  UNL1       -0.4406
     39 H          10.4682   -0.6573   -0.4557 H       1  UNL1        0.0391
     40 H          10.6909    1.1476   -0.2744 H       1  UNL1        0.0391
     41 H          11.0205    0.0051    1.0960 H       1  UNL1        0.0391
     42 H           7.6536    1.6707    1.4859 H       1  UNL1        0.0426
     43 H           9.1556    2.3385    0.8021 H       1  UNL1        0.0426
     44 H           6.6637    2.2793   -0.5417 H       1  UNL1        0.0279
     45 H           8.2696    2.5000   -1.2697 H       1  UNL1        0.0279
     46 H           6.6300    0.6860   -2.1921 H       1  UNL1        0.0305
     47 H           8.3839    0.2484   -1.9851 H       1  UNL1        0.0305
     48 H           7.7528   -1.2709    1.3663 H       1  UNL1        0.0466
     49 H           8.8812   -1.6558    0.0495 H       1  UNL1        0.0466
     50 H           5.5305    0.7219    0.1871 H       1  UNL1        0.0509
     51 H           5.8700   -0.6574    1.2821 H       1  UNL1        0.0509
     52 H           3.0252    0.5813   -1.5917 H       1  UNL1        0.0638
     53 H           0.6262    0.6803   -1.1365 H       1  UNL1        0.0652
     54 H          -1.0108   -1.6849    1.3397 H       1  UNL1        0.1564
     55 H          -2.2438    2.3554   -2.0341 H       1  UNL1        0.0838
     56 H          -5.0818    2.8097   -1.7636 H       1  UNL1        0.0647
     57 H          -6.5305    0.6621   -2.4451 H       1  UNL1        0.0428
     58 H          -7.2853    2.0791   -3.3260 H       1  UNL1        0.0428
     59 H          -8.1453    0.5075   -3.2163 H       1  UNL1        0.0428
     60 H         -10.1022    1.1161   -1.4664 H       1  UNL1        0.0428
     61 H          -9.6739    2.5175   -2.5344 H       1  UNL1        0.0428
     62 H          -9.7678    2.7848   -0.7484 H       1  UNL1        0.0428
     63 H          -7.0584   -0.2296    1.4595 H       1  UNL1        0.0528
     64 H          -5.8286    0.4689    3.4112 H       1  UNL1        0.0285
     65 H          -4.2934   -0.2872    2.7018 H       1  UNL1        0.0285
     66 H          -6.7957   -1.8267    3.4018 H       1  UNL1        0.0266
     67 H          -5.1859   -1.9087    4.3145 H       1  UNL1        0.0266
     68 H          -5.5777   -3.6366    2.3482 H       1  UNL1        0.0266
     69 H          -4.1065   -2.5163    2.2381 H       1  UNL1        0.0266
     70 H          -6.8108   -2.3949    0.8670 H       1  UNL1        0.0285
     71 H          -5.2235   -2.0286    0.1161 H       1  UNL1        0.0285
     72 H           3.4916   -2.6245    1.1522 H       1  UNL1        0.0849
@<TRIPOS>BOND
     1     1     2    1
     2     2     3    1
     3     3     4    1
     4     4     5    1
     5     5     6    1
     6     6     7    1
     7     6     8    1
     8     8     9    1
     9     9    10    1
    10    10    11   ar
    11    11    12   ar
    12    12    13   ar
    13    13    14    1
    14    14    15    1
    15    15    16   ar
    16    16    17   ar
    17    17    18   ar
    18    18    19   ar
    19    19    20   ar
    20    20    21    1
    21    21    22    2
    22    21    23   am
    23    23    24    1
    24    23    25    1
    25    20    26   ar
    26    26    27    1
    27    27    28    1
    28    28    29    1
    29    29    30    1
    30    30    31    1
    31    26    32   ar
    32    32    33   ar
    33    13    34   ar
    34    34    35   ar
    35     9    36   am
    36    36    37    2
    37    36    38    1
    38     7     2    1
    39    35    10   ar
    40    38     6    1
    41    33    15   ar
    42    32    18   ar
    43    31    27    1
    44     1    39    1
    45     1    40    1
    46     1    41    1
    47     3    42    1
    48     3    43    1
    49     4    44    1
    50     4    45    1
    51     5    46    1
    52     5    47    1
    53     7    48    1
    54     7    49    1
    55     8    50    1
    56     8    51    1
    57    11    52    1
    58    12    53    1
    59    14    54    1
    60    17    55    1
    61    19    56    1
    62    24    57    1
    63    24    58    1
    64    24    59    1
    65    25    60    1
    66    25    61    1
    67    25    62    1
    68    27    63    1
    69    28    64    1
    70    28    65    1
    71    29    66    1
    72    29    67    1
    73    30    68    1
    74    30    69    1
    75    31    70    1
    76    31    71    1
    77    35    72    1
