
     RDKit          3D

 13 13  0  0  0  0  0  0  0  0999 V2000
   -1.8683   -0.8400   -0.1093 N   0  0  0  0  0  0  0  0  0  0  0  0
   -0.5552   -0.2922   -0.0421 C   0  0  0  0  0  0  0  0  0  0  0  0
   -0.4733    1.0989    0.0091 C   0  0  0  0  0  0  0  0  0  0  0  0
   -1.5168    1.9254   -0.0007 F   0  0  0  0  0  0  0  0  0  0  0  0
    0.7891    1.6640    0.0750 C   0  0  0  0  0  0  0  0  0  0  0  0
    1.8782    0.8443    0.0867 N   0  0  0  0  0  0  0  0  0  0  0  0
    1.7589   -0.4945    0.0360 C   0  0  0  0  0  0  0  0  0  0  0  0
    2.7942   -1.2312    0.0485 O   0  0  0  0  0  0  0  0  0  0  0  0
    0.5401   -1.0773   -0.0290 N   0  0  0  0  0  0  0  0  0  0  0  0
   -1.9564   -1.6249    0.5892 H   0  0  0  0  0  0  0  0  0  0  0  0
   -2.6841   -0.5868   -0.7090 H   0  0  0  0  0  0  0  0  0  0  0  0
    0.8975    2.7397    0.1163 H   0  0  0  0  0  0  0  0  0  0  0  0
    0.3961   -2.1254   -0.0706 H   0  0  0  0  0  0  0  0  0  0  0  0
  1  2  1  0
  2  3  2  0
  3  4  1  0
  3  5  1  0
  5  6  2  0
  6  7  1  0
  7  8  2  0
  7  9  1  0
  9  2  1  0
  1 10  1  0
  1 11  1  0
  5 12  1  0
  9 13  1  0
M  END
$$$$
