@<TRIPOS>MOLECULE
*****
 13 13 0 0 0
SMALL
GASTEIGER

@<TRIPOS>ATOM
      1 N          -1.8683   -0.8400   -0.1093 N.pl3   1  UNL1       -0.3422
      2 C          -0.5552   -0.2922   -0.0421 C.ar    1  UNL1        0.1351
      3 C          -0.4733    1.0989    0.0091 C.ar    1  UNL1        0.1790
      4 F          -1.5168    1.9254   -0.0007 F       1  UNL1       -0.2004
      5 C           0.7891    1.6640    0.0750 C.ar    1  UNL1        0.0715
      6 N           1.8782    0.8443    0.0867 N.ar    1  UNL1       -0.1985
      7 C           1.7589   -0.4945    0.0360 C.ar    1  UNL1        0.3473
      8 O           2.7942   -1.2312    0.0485 O.2     1  UNL1       -0.2447
      9 N           0.5401   -1.0773   -0.0290 N.ar    1  UNL1       -0.2924
     10 H          -1.9564   -1.6249    0.5892 H       1  UNL1        0.1437
     11 H          -2.6841   -0.5868   -0.7090 H       1  UNL1        0.1437
     12 H           0.8975    2.7397    0.1163 H       1  UNL1        0.0862
     13 H           0.3961   -2.1254   -0.0706 H       1  UNL1        0.1717
@<TRIPOS>BOND
     1     1     2    1
     2     2     3   ar
     3     3     4    1
     4     3     5   ar
     5     5     6   ar
     6     6     7   ar
     7     7     8    2
     8     7     9   ar
     9     9     2   ar
    10     1    10    1
    11     1    11    1
    12     5    12    1
    13     9    13    1
