@<TRIPOS>MOLECULE
*****
 63 67 0 0 0
SMALL
GASTEIGER

@<TRIPOS>ATOM
      1 C          -0.2022   -2.3037    4.3135 C.3     1  UNL1       -0.0637
      2 C           0.1034   -2.1998    2.8111 C.3     1  UNL1       -0.0378
      3 C           0.1022   -0.7559    2.4519 C.3     1  UNL1        0.0248
      4 N           0.3719   -0.4421    1.0833 N.ar    1  UNL1       -0.3256
      5 C           1.6606   -0.2434    0.6754 C.ar    1  UNL1        0.1140
      6 N           1.6697    0.0475   -0.6544 N.ar    1  UNL1       -0.2313
      7 C           0.3909    0.0381   -1.1103 C.ar    1  UNL1        0.0986
      8 C          -0.3858   -0.2675   -0.0129 C.ar    1  UNL1        0.0952
      9 C          -1.8377   -0.3896    0.0105 C.ar    1  UNL1        0.0945
     10 C          -2.4943   -1.5896    0.1768 C.ar    1  UNL1       -0.0159
     11 C          -3.8710   -1.5401    0.1822 C.ar    1  UNL1        0.0333
     12 N          -4.5243   -0.3833    0.0332 N.ar    1  UNL1       -0.2229
     13 C          -3.9038    0.7923   -0.1294 C.ar    1  UNL1        0.2159
     14 N          -4.5623    2.0414   -0.2900 N.pl3   1  UNL1       -0.3106
     15 C          -5.9839    2.2755   -0.3137 C.3     1  UNL1        0.0234
     16 C          -6.8265    1.8844    0.8494 C.3     1  UNL1       -0.0328
     17 C          -6.9927    1.2308   -0.5028 C.3     1  UNL1       -0.0328
     18 N          -2.5731    0.7229   -0.1319 N.ar    1  UNL1       -0.2129
     19 C          -0.0203    0.3053   -2.4843 C.ar    1  UNL1        0.0040
     20 C          -0.7987    1.3798   -2.8639 C.ar    1  UNL1       -0.0510
     21 C          -1.1975    1.6489   -4.1507 C.ar    1  UNL1       -0.0413
     22 C          -0.8013    0.7924   -5.1580 C.ar    1  UNL1        0.0593
     23 CL         -1.3046    1.1272   -6.7993 Cl      1  UNL1       -0.0820
     24 C          -0.0148   -0.3078   -4.8299 C.ar    1  UNL1        0.0599
     25 CL          0.4375   -1.3354   -6.1702 Cl      1  UNL1       -0.0820
     26 C           0.3687   -0.5473   -3.5186 C.ar    1  UNL1       -0.0327
     27 C           2.9727   -0.2892    1.4027 C.3     1  UNL1        0.0196
     28 C           3.8028   -1.3852    0.7523 C.3     1  UNL1       -0.0305
     29 C           4.7670   -0.8492   -0.2615 C.3     1  UNL1       -0.0008
     30 N           5.7374   -0.0206    0.3858 N.3     1  UNL1       -0.3053
     31 C           6.5611    0.6992   -0.5412 C.3     1  UNL1       -0.0128
     32 C           5.1848    0.7772    1.4495 C.3     1  UNL1       -0.0008
     33 C           3.7119    1.0138    1.3353 C.3     1  UNL1       -0.0305
     34 H           0.1288   -3.2638    4.7252 H       1  UNL1        0.0230
     35 H           0.3377   -1.4628    4.8311 H       1  UNL1        0.0230
     36 H          -1.2877   -2.0958    4.4904 H       1  UNL1        0.0230
     37 H           1.0483   -2.7210    2.5883 H       1  UNL1        0.0280
     38 H          -0.7350   -2.7471    2.3360 H       1  UNL1        0.0280
     39 H          -0.8954   -0.3481    2.7928 H       1  UNL1        0.0492
     40 H           0.8231   -0.2298    3.1435 H       1  UNL1        0.0492
     41 H          -1.9322   -2.5028    0.2913 H       1  UNL1        0.0655
     42 H          -4.4160   -2.4627    0.3104 H       1  UNL1        0.0831
     43 H          -3.9254    2.8877   -0.4027 H       1  UNL1        0.1492
     44 H          -6.2620    3.2638   -0.7871 H       1  UNL1        0.0498
     45 H          -6.4045    1.2770    1.6830 H       1  UNL1        0.0284
     46 H          -7.6273    2.5693    1.1840 H       1  UNL1        0.0284
     47 H          -7.9398    1.4700   -1.0372 H       1  UNL1        0.0284
     48 H          -6.6811    0.1827   -0.6603 H       1  UNL1        0.0284
     49 H          -1.1301    2.0764   -2.1050 H       1  UNL1        0.0625
     50 H          -1.8090    2.5083   -4.3924 H       1  UNL1        0.0633
     51 H           0.9749   -1.4151   -3.3430 H       1  UNL1        0.0639
     52 H           2.7763   -0.5260    2.4598 H       1  UNL1        0.0380
     53 H           3.1595   -2.1437    0.2533 H       1  UNL1        0.0284
     54 H           4.3909   -1.9538    1.5217 H       1  UNL1        0.0284
     55 H           4.2306   -0.2885   -1.0529 H       1  UNL1        0.0427
     56 H           5.2581   -1.7289   -0.7296 H       1  UNL1        0.0427
     57 H           6.4506    1.7979   -0.5028 H       1  UNL1        0.0391
     58 H           7.6388    0.4535   -0.4375 H       1  UNL1        0.0391
     59 H           6.2695    0.3690   -1.5601 H       1  UNL1        0.0391
     60 H           5.7403    1.7489    1.4658 H       1  UNL1        0.0427
     61 H           5.3884    0.2495    2.4093 H       1  UNL1        0.0427
     62 H           3.4815    1.4726    0.3505 H       1  UNL1        0.0284
     63 H           3.4005    1.6363    2.1843 H       1  UNL1        0.0284
@<TRIPOS>BOND
     1     1     2    1
     2     2     3    1
     3     3     4    1
     4     4     5   ar
     5     5     6   ar
     6     6     7   ar
     7     7     8   ar
     8     8     9    1
     9     9    10   ar
    10    10    11   ar
    11    11    12   ar
    12    12    13   ar
    13    13    14    1
    14    14    15    1
    15    15    16    1
    16    16    17    1
    17    13    18   ar
    18     7    19    1
    19    19    20   ar
    20    20    21   ar
    21    21    22   ar
    22    22    23    1
    23    22    24   ar
    24    24    25    1
    25    24    26   ar
    26     5    27    1
    27    27    28    1
    28    28    29    1
    29    29    30    1
    30    30    31    1
    31    30    32    1
    32    32    33    1
    33     8     4   ar
    34    18     9   ar
    35    26    19   ar
    36    33    27    1
    37    17    15    1
    38     1    34    1
    39     1    35    1
    40     1    36    1
    41     2    37    1
    42     2    38    1
    43     3    39    1
    44     3    40    1
    45    10    41    1
    46    11    42    1
    47    14    43    1
    48    15    44    1
    49    16    45    1
    50    16    46    1
    51    17    47    1
    52    17    48    1
    53    20    49    1
    54    21    50    1
    55    26    51    1
    56    27    52    1
    57    28    53    1
    58    28    54    1
    59    29    55    1
    60    29    56    1
    61    31    57    1
    62    31    58    1
    63    31    59    1
    64    32    60    1
    65    32    61    1
    66    33    62    1
    67    33    63    1
