@<TRIPOS>MOLECULE
*****
 32 33 0 0 0
SMALL
GASTEIGER

@<TRIPOS>ATOM
      1 C          -2.3927    0.2711   -0.8533 C.3     1  UNL1        0.0801
      2 C          -3.8571    0.7326   -0.8772 C.3     1  UNL1       -0.0364
      3 O          -1.6294    1.3786   -1.2222 O.3     1  UNL1       -0.3894
      4 C          -2.1512   -0.1948    0.5477 C.3     1  UNL1        0.1004
      5 O          -2.9477   -1.3157    0.8676 O.3     1  UNL1       -0.3874
      6 C          -0.7219   -0.5231    0.8707 C.3     1  UNL1        0.0646
      7 C          -0.2549   -1.8259    0.3385 C.3     1  UNL1        0.0313
      8 N           1.1226   -1.8029   -0.1178 N.pl3   1  UNL1       -0.3270
      9 C           2.0144   -0.7030   -0.2445 C.ar    1  UNL1        0.1255
     10 C           1.4747    0.5179    0.1072 C.ar    1  UNL1        0.1282
     11 N           0.1278    0.6091    0.5538 N.pl3   1  UNL1       -0.3302
     12 C           2.2985    1.6290    0.0040 C.ar    1  UNL1        0.2404
     13 O           1.8051    2.8782    0.3448 O.3     1  UNL1       -0.4910
     14 N           3.5601    1.4475   -0.4284 N.ar    1  UNL1       -0.1761
     15 C           4.0325    0.2274   -0.7582 C.ar    1  UNL1        0.2251
     16 N           5.2707    0.1372   -1.1698 N.2     1  UNL1       -0.2664
     17 N           3.2588   -0.8934   -0.6726 N.ar    1  UNL1       -0.3113
     18 H          -2.2253   -0.5067   -1.6154 H       1  UNL1        0.0617
     19 H          -4.1033    1.2235    0.0966 H       1  UNL1        0.0255
     20 H          -4.5459   -0.0825   -1.1118 H       1  UNL1        0.0255
     21 H          -4.0123    1.5197   -1.6391 H       1  UNL1        0.0255
     22 H          -2.1632    2.0526   -1.7186 H       1  UNL1        0.2099
     23 H          -2.4742    0.6115    1.2384 H       1  UNL1        0.0638
     24 H          -2.5717   -1.7755    1.6612 H       1  UNL1        0.2100
     25 H          -0.6920   -0.6063    1.9963 H       1  UNL1        0.0539
     26 H          -0.2994   -2.6442    1.1154 H       1  UNL1        0.0481
     27 H          -0.9057   -2.2358   -0.4847 H       1  UNL1        0.0481
     28 H           1.4970   -2.7514   -0.3902 H       1  UNL1        0.1475
     29 H          -0.2396    1.5603    0.6483 H       1  UNL1        0.1467
     30 H           2.3985    3.6904    0.1497 H       1  UNL1        0.2938
     31 H           5.6772   -0.8011   -1.4373 H       1  UNL1        0.1898
     32 H           3.6500   -1.8244   -0.9342 H       1  UNL1        0.1700
@<TRIPOS>BOND
     1     1     2    1
     2     1     3    1
     3     1     4    1
     4     4     5    1
     5     4     6    1
     6     6     7    1
     7     7     8    1
     8     8     9    1
     9     9    10   ar
    10    10    11    1
    11    10    12   ar
    12    12    13    1
    13    12    14   ar
    14    14    15   ar
    15    15    16    2
    16    15    17   ar
    17    11     6    1
    18    17     9   ar
    19     1    18    1
    20     2    19    1
    21     2    20    1
    22     2    21    1
    23     3    22    1
    24     4    23    1
    25     5    24    1
    26     6    25    1
    27     7    26    1
    28     7    27    1
    29     8    28    1
    30    11    29    1
    31    13    30    1
    32    16    31    1
    33    17    32    1
