
     RDKit          3D

 45 48  0  0  0  0  0  0  0  0999 V2000
    5.9591   -1.9457    2.3478 C   0  0  0  0  0  0  0  0  0  0  0  0
    4.6303   -1.4757    2.0740 O   0  0  0  0  0  0  0  0  0  0  0  0
    4.2927   -0.9839    0.8196 C   0  0  0  0  0  0  0  0  0  0  0  0
    5.1777   -0.9661   -0.0518 O   0  0  0  0  0  0  0  0  0  0  0  0
    2.9924   -0.5092    0.5060 N   0  0  0  0  0  0  0  0  0  0  0  0
    2.6138   -0.0004   -0.7647 C   0  0  0  0  0  0  0  0  0  0  0  0
    3.3424    0.1450   -1.9060 C   0  0  0  0  0  0  0  0  0  0  0  0
    2.5376    0.6833   -2.8715 N   0  0  0  0  0  0  0  0  0  0  0  0
    1.3157    0.8725   -2.3365 C   0  0  0  0  0  0  0  0  0  0  0  0
    0.1206    1.3827   -2.8498 C   0  0  0  0  0  0  0  0  0  0  0  0
   -0.9631    1.4316   -1.9974 C   0  0  0  0  0  0  0  0  0  0  0  0
   -0.9002    1.0024   -0.6887 C   0  0  0  0  0  0  0  0  0  0  0  0
   -2.0874    1.0911    0.1505 C   0  0  0  0  0  0  0  0  0  0  0  0
   -2.8191    0.0212    0.6408 C   0  0  0  0  0  0  0  0  0  0  0  0
   -2.5689   -1.4001    0.4262 C   0  0  0  0  0  0  0  0  0  0  0  0
   -3.5533   -2.1328   -0.2470 C   0  0  0  0  0  0  0  0  0  0  0  0
   -3.4018   -3.4696   -0.4907 C   0  0  0  0  0  0  0  0  0  0  0  0
   -2.2750   -4.1461   -0.0829 C   0  0  0  0  0  0  0  0  0  0  0  0
   -2.1283   -5.4788   -0.3275 F   0  0  0  0  0  0  0  0  0  0  0  0
   -1.3124   -3.4133    0.5794 C   0  0  0  0  0  0  0  0  0  0  0  0
   -1.4554   -2.0665    0.8297 C   0  0  0  0  0  0  0  0  0  0  0  0
   -3.8181    0.5633    1.3620 N   0  0  0  0  0  0  0  0  0  0  0  0
   -3.7334    1.9047    1.3367 C   0  0  0  0  0  0  0  0  0  0  0  0
   -2.6779    2.2283    0.5981 N   0  0  0  0  0  0  0  0  0  0  0  0
   -2.1515    3.5506    0.2648 C   0  0  0  0  0  0  0  0  0  0  0  0
   -1.1459    4.0097    1.2958 C   0  0  0  0  0  0  0  0  0  0  0  0
   -0.0864    3.1339    1.3660 F   0  0  0  0  0  0  0  0  0  0  0  0
   -1.7986    4.1479    2.4911 F   0  0  0  0  0  0  0  0  0  0  0  0
    0.2859    0.5262   -0.2758 N   0  0  0  0  0  0  0  0  0  0  0  0
    1.3661    0.4571   -1.0604 N   0  0  0  0  0  0  0  0  0  0  0  0
    6.2148   -2.5928    1.4664 H   0  0  0  0  0  0  0  0  0  0  0  0
    6.6923   -1.1256    2.3556 H   0  0  0  0  0  0  0  0  0  0  0  0
    5.9778   -2.5825    3.2312 H   0  0  0  0  0  0  0  0  0  0  0  0
    2.2996   -0.5547    1.2888 H   0  0  0  0  0  0  0  0  0  0  0  0
    4.3945   -0.1207   -2.0385 H   0  0  0  0  0  0  0  0  0  0  0  0
    0.1235    1.7002   -3.8623 H   0  0  0  0  0  0  0  0  0  0  0  0
   -1.9064    1.8280   -2.3889 H   0  0  0  0  0  0  0  0  0  0  0  0
   -4.4576   -1.6527   -0.5891 H   0  0  0  0  0  0  0  0  0  0  0  0
   -4.1951   -4.0046   -1.0206 H   0  0  0  0  0  0  0  0  0  0  0  0
   -0.4258   -3.9698    0.8940 H   0  0  0  0  0  0  0  0  0  0  0  0
   -0.6853   -1.5300    1.3481 H   0  0  0  0  0  0  0  0  0  0  0  0
   -4.3767    2.6275    1.8110 H   0  0  0  0  0  0  0  0  0  0  0  0
   -1.6911    3.5439   -0.7416 H   0  0  0  0  0  0  0  0  0  0  0  0
   -2.9754    4.2876    0.2335 H   0  0  0  0  0  0  0  0  0  0  0  0
   -0.7465    4.9832    0.9347 H   0  0  0  0  0  0  0  0  0  0  0  0
  1  2  1  0
  2  3  1  0
  3  4  2  0
  3  5  1  0
  5  6  1  0
  6  7  2  0
  7  8  1  0
  8  9  2  0
  9 10  1  0
 10 11  2  0
 11 12  1  0
 12 13  1  0
 13 14  2  0
 14 15  1  0
 15 16  2  0
 16 17  1  0
 17 18  2  0
 18 19  1  0
 18 20  1  0
 20 21  2  0
 14 22  1  0
 22 23  2  0
 23 24  1  0
 24 25  1  0
 25 26  1  0
 26 27  1  0
 26 28  1  0
 12 29  2  0
 29 30  1  0
 30  6  1  0
 30  9  1  0
 24 13  1  0
 21 15  1  0
  1 31  1  0
  1 32  1  0
  1 33  1  0
  5 34  1  0
  7 35  1  0
 10 36  1  0
 11 37  1  0
 16 38  1  0
 17 39  1  0
 20 40  1  0
 21 41  1  0
 23 42  1  0
 25 43  1  0
 25 44  1  0
 26 45  1  0
M  END
$$$$
