@<TRIPOS>MOLECULE
*****
 45 48 0 0 0
SMALL
GASTEIGER

@<TRIPOS>ATOM
      1 C           5.9591   -1.9457    2.3478 C.3     1  UNL1        0.0833
      2 O           4.6303   -1.4757    2.0740 O.3     1  UNL1       -0.4534
      3 C           4.2927   -0.9839    0.8196 C.2     1  UNL1        0.4054
      4 O           5.1777   -0.9661   -0.0518 O.2     1  UNL1       -0.2261
      5 N           2.9924   -0.5092    0.5060 N.am    1  UNL1       -0.2342
      6 C           2.6138   -0.0004   -0.7647 C.ar    1  UNL1        0.1495
      7 C           3.3424    0.1450   -1.9060 C.ar    1  UNL1        0.0702
      8 N           2.5376    0.6833   -2.8715 N.ar    1  UNL1       -0.2327
      9 C           1.3157    0.8725   -2.3365 C.ar    1  UNL1        0.1562
     10 C           0.1206    1.3827   -2.8498 C.ar    1  UNL1       -0.0153
     11 C          -0.9631    1.4316   -1.9974 C.ar    1  UNL1       -0.0290
     12 C          -0.9002    1.0024   -0.6887 C.ar    1  UNL1        0.1103
     13 C          -2.0874    1.0911    0.1505 C.ar    1  UNL1        0.0968
     14 C          -2.8191    0.0212    0.6408 C.ar    1  UNL1        0.0982
     15 C          -2.5689   -1.4001    0.4262 C.ar    1  UNL1        0.0027
     16 C          -3.5533   -2.1328   -0.2470 C.ar    1  UNL1       -0.0498
     17 C          -3.4018   -3.4696   -0.4907 C.ar    1  UNL1       -0.0258
     18 C          -2.2750   -4.1461   -0.0829 C.ar    1  UNL1        0.1234
     19 F          -2.1283   -5.4788   -0.3275 F       1  UNL1       -0.2055
     20 C          -1.3124   -3.4133    0.5794 C.ar    1  UNL1       -0.0258
     21 C          -1.4554   -2.0665    0.8297 C.ar    1  UNL1       -0.0498
     22 N          -3.8181    0.5633    1.3620 N.ar    1  UNL1       -0.2351
     23 C          -3.7334    1.9047    1.3367 C.ar    1  UNL1        0.0973
     24 N          -2.6779    2.2283    0.5981 N.ar    1  UNL1       -0.3229
     25 C          -2.1515    3.5506    0.2648 C.3     1  UNL1        0.0852
     26 C          -1.1459    4.0097    1.2958 C.3     1  UNL1        0.2569
     27 F          -0.0864    3.1339    1.3660 F       1  UNL1       -0.2073
     28 F          -1.7986    4.1479    2.4911 F       1  UNL1       -0.2073
     29 N           0.2859    0.5262   -0.2758 N.ar    1  UNL1       -0.1618
     30 N           1.3661    0.4571   -1.0604 N.ar    1  UNL1       -0.1982
     31 H           6.2148   -2.5928    1.4664 H       1  UNL1        0.0661
     32 H           6.6923   -1.1256    2.3556 H       1  UNL1        0.0661
     33 H           5.9778   -2.5825    3.2312 H       1  UNL1        0.0661
     34 H           2.2996   -0.5547    1.2888 H       1  UNL1        0.1596
     35 H           4.3945   -0.1207   -2.0385 H       1  UNL1        0.0865
     36 H           0.1235    1.7002   -3.8623 H       1  UNL1        0.0655
     37 H          -1.9064    1.8280   -2.3889 H       1  UNL1        0.0641
     38 H          -4.4576   -1.6527   -0.5891 H       1  UNL1        0.0625
     39 H          -4.1951   -4.0046   -1.0206 H       1  UNL1        0.0646
     40 H          -0.4258   -3.9698    0.8940 H       1  UNL1        0.0646
     41 H          -0.6853   -1.5300    1.3481 H       1  UNL1        0.0625
     42 H          -4.3767    2.6275    1.8110 H       1  UNL1        0.1029
     43 H          -1.6911    3.5439   -0.7416 H       1  UNL1        0.0548
     44 H          -2.9754    4.2876    0.2335 H       1  UNL1        0.0548
     45 H          -0.7465    4.9832    0.9347 H       1  UNL1        0.1037
@<TRIPOS>BOND
     1     1     2    1
     2     2     3    1
     3     3     4    2
     4     3     5   am
     5     5     6    1
     6     6     7   ar
     7     7     8   ar
     8     8     9   ar
     9     9    10   ar
    10    10    11   ar
    11    11    12   ar
    12    12    13    1
    13    13    14   ar
    14    14    15    1
    15    15    16   ar
    16    16    17   ar
    17    17    18   ar
    18    18    19    1
    19    18    20   ar
    20    20    21   ar
    21    14    22   ar
    22    22    23   ar
    23    23    24   ar
    24    24    25    1
    25    25    26    1
    26    26    27    1
    27    26    28    1
    28    12    29   ar
    29    29    30   ar
    30    30     6   ar
    31    30     9   ar
    32    24    13   ar
    33    21    15   ar
    34     1    31    1
    35     1    32    1
    36     1    33    1
    37     5    34    1
    38     7    35    1
    39    10    36    1
    40    11    37    1
    41    16    38    1
    42    17    39    1
    43    20    40    1
    44    21    41    1
    45    23    42    1
    46    25    43    1
    47    25    44    1
    48    26    45    1
