
     RDKit          3D

 77 80  0  0  0  0  0  0  0  0999 V2000
    4.9976    3.9200    0.4624 C   0  0  0  0  0  0  0  0  0  0  0  0
    4.1803    3.2562   -0.1405 C   0  0  0  0  0  0  0  0  0  0  0  0
    3.1970    2.4890   -0.8590 C   0  0  0  0  0  0  0  0  0  0  0  0
    3.2041    1.0869   -0.7057 N   0  0  0  0  0  0  0  0  0  0  0  0
    2.8722    0.5295    0.5347 C   0  0  0  0  0  0  0  0  0  0  0  0
    1.3800    0.7879    0.8026 C   0  0  0  0  0  0  0  0  0  0  0  0
    0.6423    0.1306   -0.3395 C   0  0  0  0  0  0  0  0  0  0  0  0
   -0.8359    0.3209   -0.2392 C   0  0  0  0  0  0  0  0  0  0  0  0
   -1.3504   -0.2857    1.0410 C   0  0  0  0  0  0  0  0  0  0  0  0
   -2.8692   -0.0974    1.1326 C   0  0  0  0  0  0  0  0  0  0  0  0
   -3.5177   -0.7538    0.0089 N   0  0  0  0  0  0  0  0  0  0  0  0
   -4.9023   -0.6123   -0.2712 C   0  0  0  0  0  0  0  0  0  0  0  0
   -5.3099    0.4380   -1.1556 C   0  0  0  0  0  0  0  0  0  0  0  0
   -6.6167    0.6208   -1.4376 C   0  0  0  0  0  0  0  0  0  0  0  0
   -7.5219   -0.2310   -0.8493 N   0  0  0  0  0  0  0  0  0  0  0  0
   -7.1704   -1.2212   -0.0209 C   0  0  0  0  0  0  0  0  0  0  0  0
   -8.0873   -2.0662    0.5589 C   0  0  0  0  0  0  0  0  0  0  0  0
   -7.8037   -3.0871    1.4032 C   0  0  0  0  0  0  0  0  0  0  0  0
   -6.4504   -3.3004    1.7132 C   0  0  0  0  0  0  0  0  0  0  0  0
   -5.5043   -2.4711    1.1499 C   0  0  0  0  0  0  0  0  0  0  0  0
   -5.8339   -1.4317    0.2865 C   0  0  0  0  0  0  0  0  0  0  0  0
   -7.1238    1.6699   -2.3462 C   0  0  0  0  0  0  0  0  0  0  0  0
   -6.0770    2.7410   -2.4997 C   0  0  0  0  0  0  0  0  0  0  0  0
   -4.7369    2.1117   -2.8455 C   0  0  0  0  0  0  0  0  0  0  0  0
   -4.2312    1.2712   -1.7142 C   0  0  0  0  0  0  0  0  0  0  0  0
    3.8368    0.3380   -1.7086 C   0  0  2  0  0  0  0  0  0  0  0  0
    3.3471   -1.1022   -1.8126 C   0  0  0  0  0  0  0  0  0  0  0  0
    5.3522    0.2453   -1.6384 C   0  0  0  0  0  0  0  0  0  0  0  0
    5.8669   -0.4047   -0.4139 C   0  0  0  0  0  0  0  0  0  0  0  0
    6.0004   -1.7612   -0.4309 C   0  0  0  0  0  0  0  0  0  0  0  0
    6.4892   -2.4219    0.6770 C   0  0  0  0  0  0  0  0  0  0  0  0
    6.8371   -1.6886    1.7879 C   0  0  0  0  0  0  0  0  0  0  0  0
    7.3294   -2.3616    2.8976 O   0  0  0  0  0  0  0  0  0  0  0  0
    7.6983   -1.6328    4.0497 C   0  0  0  0  0  0  0  0  0  0  0  0
    6.7194   -0.3013    1.8505 C   0  0  0  0  0  0  0  0  0  0  0  0
    6.2169    0.3106    0.6972 C   0  0  0  0  0  0  0  0  0  0  0  0
    5.6949    4.5086    0.9778 H   0  0  0  0  0  0  0  0  0  0  0  0
    3.2250    2.7059   -1.9671 H   0  0  0  0  0  0  0  0  0  0  0  0
    2.1859    2.8798   -0.5674 H   0  0  0  0  0  0  0  0  0  0  0  0
    2.9801   -0.5492    0.5770 H   0  0  0  0  0  0  0  0  0  0  0  0
    3.3756    1.0365    1.4140 H   0  0  0  0  0  0  0  0  0  0  0  0
    1.2572    1.8788    0.8373 H   0  0  0  0  0  0  0  0  0  0  0  0
    1.0824    0.2996    1.7619 H   0  0  0  0  0  0  0  0  0  0  0  0
    0.9606    0.5464   -1.3248 H   0  0  0  0  0  0  0  0  0  0  0  0
    0.8640   -0.9592   -0.3891 H   0  0  0  0  0  0  0  0  0  0  0  0
   -1.0324    1.4125   -0.2702 H   0  0  0  0  0  0  0  0  0  0  0  0
   -1.3547   -0.1736   -1.0711 H   0  0  0  0  0  0  0  0  0  0  0  0
   -0.9426    0.1716    1.9533 H   0  0  0  0  0  0  0  0  0  0  0  0
   -1.1264   -1.3581    1.0624 H   0  0  0  0  0  0  0  0  0  0  0  0
   -3.1051    0.9813    1.0917 H   0  0  0  0  0  0  0  0  0  0  0  0
   -3.1724   -0.5396    2.1024 H   0  0  0  0  0  0  0  0  0  0  0  0
   -2.9512   -1.3468   -0.6167 H   0  0  0  0  0  0  0  0  0  0  0  0
   -9.1362   -1.8625    0.2886 H   0  0  0  0  0  0  0  0  0  0  0  0
   -8.5523   -3.7412    1.8498 H   0  0  0  0  0  0  0  0  0  0  0  0
   -6.2208   -4.0993    2.3732 H   0  0  0  0  0  0  0  0  0  0  0  0
   -4.4648   -2.6296    1.3839 H   0  0  0  0  0  0  0  0  0  0  0  0
   -7.2828    1.2298   -3.3597 H   0  0  0  0  0  0  0  0  0  0  0  0
   -8.0833    2.0715   -1.9550 H   0  0  0  0  0  0  0  0  0  0  0  0
   -6.3531    3.3401   -3.4057 H   0  0  0  0  0  0  0  0  0  0  0  0
   -5.9445    3.3698   -1.6144 H   0  0  0  0  0  0  0  0  0  0  0  0
   -4.8391    1.4347   -3.7404 H   0  0  0  0  0  0  0  0  0  0  0  0
   -3.9965    2.8690   -3.1009 H   0  0  0  0  0  0  0  0  0  0  0  0
   -3.8844    1.9717   -0.9195 H   0  0  0  0  0  0  0  0  0  0  0  0
   -3.3819    0.6458   -2.0876 H   0  0  0  0  0  0  0  0  0  0  0  0
    3.6189    0.7906   -2.7001 H   0  0  0  0  0  0  0  0  0  0  0  0
    2.3334   -1.1487   -2.2705 H   0  0  0  0  0  0  0  0  0  0  0  0
    3.5112   -1.7120   -0.9403 H   0  0  0  0  0  0  0  0  0  0  0  0
    4.0045   -1.5489   -2.6250 H   0  0  0  0  0  0  0  0  0  0  0  0
    5.8091    1.2787   -1.6503 H   0  0  0  0  0  0  0  0  0  0  0  0
    5.7639   -0.2400   -2.5426 H   0  0  0  0  0  0  0  0  0  0  0  0
    5.7515   -2.3960   -1.2768 H   0  0  0  0  0  0  0  0  0  0  0  0
    6.6021   -3.5116    0.6886 H   0  0  0  0  0  0  0  0  0  0  0  0
    8.2219   -2.3199    4.7462 H   0  0  0  0  0  0  0  0  0  0  0  0
    8.4121   -0.8228    3.7101 H   0  0  0  0  0  0  0  0  0  0  0  0
    6.8178   -1.1658    4.4921 H   0  0  0  0  0  0  0  0  0  0  0  0
    6.9905    0.2779    2.7210 H   0  0  0  0  0  0  0  0  0  0  0  0
    6.1374    1.3888    0.7459 H   0  0  0  0  0  0  0  0  0  0  0  0
  1  2  3  0
  2  3  1  0
  3  4  1  0
  4  5  1  0
  5  6  1  0
  6  7  1  0
  7  8  1  0
  8  9  1  0
  9 10  1  0
 10 11  1  0
 11 12  1  0
 12 13  2  0
 13 14  1  0
 14 15  2  0
 15 16  1  0
 16 17  2  0
 17 18  1  0
 18 19  2  0
 19 20  1  0
 20 21  2  0
 14 22  1  0
 22 23  1  0
 23 24  1  0
 24 25  1  0
  4 26  1  0
 26 27  1  0
 26 28  1  0
 28 29  1  0
 29 30  2  0
 30 31  1  0
 31 32  2  0
 32 33  1  0
 33 34  1  0
 32 35  1  0
 35 36  2  0
 21 12  1  0
 36 29  1  0
 25 13  1  0
 21 16  1  0
  1 37  1  0
  3 38  1  0
  3 39  1  0
  5 40  1  0
  5 41  1  0
  6 42  1  0
  6 43  1  0
  7 44  1  0
  7 45  1  0
  8 46  1  0
  8 47  1  0
  9 48  1  0
  9 49  1  0
 10 50  1  0
 10 51  1  0
 11 52  1  0
 17 53  1  0
 18 54  1  0
 19 55  1  0
 20 56  1  0
 22 57  1  0
 22 58  1  0
 23 59  1  0
 23 60  1  0
 24 61  1  0
 24 62  1  0
 25 63  1  0
 25 64  1  0
 26 65  1  6
 27 66  1  0
 27 67  1  0
 27 68  1  0
 28 69  1  0
 28 70  1  0
 30 71  1  0
 31 72  1  0
 34 73  1  0
 34 74  1  0
 34 75  1  0
 35 76  1  0
 36 77  1  0
M  END
$$$$
