@<TRIPOS>MOLECULE
*****
 77 80 0 0 0
SMALL
GASTEIGER

@<TRIPOS>ATOM
      1 C           4.9976    3.9200    0.4624 C.1     1  UNL1       -0.1179
      2 C           4.1803    3.2562   -0.1405 C.1     1  UNL1       -0.0900
      3 C           3.1970    2.4890   -0.8590 C.3     1  UNL1        0.0609
      4 N           3.2041    1.0869   -0.7057 N.3     1  UNL1       -0.2885
      5 C           2.8722    0.5295    0.5347 C.3     1  UNL1        0.0000
      6 C           1.3800    0.7879    0.8026 C.3     1  UNL1       -0.0402
      7 C           0.6423    0.1306   -0.3395 C.3     1  UNL1       -0.0519
      8 C          -0.8359    0.3209   -0.2392 C.3     1  UNL1       -0.0516
      9 C          -1.3504   -0.2857    1.0410 C.3     1  UNL1       -0.0375
     10 C          -2.8692   -0.0974    1.1326 C.3     1  UNL1        0.0091
     11 N          -3.5177   -0.7538    0.0089 N.pl3   1  UNL1       -0.3431
     12 C          -4.9023   -0.6123   -0.2712 C.ar    1  UNL1        0.0413
     13 C          -5.3099    0.4380   -1.1556 C.ar    1  UNL1       -0.0047
     14 C          -6.6167    0.6208   -1.4376 C.ar    1  UNL1        0.0469
     15 N          -7.5219   -0.2310   -0.8493 N.ar    1  UNL1       -0.2512
     16 C          -7.1704   -1.2212   -0.0209 C.ar    1  UNL1        0.0731
     17 C          -8.0873   -2.0662    0.5589 C.ar    1  UNL1       -0.0357
     18 C          -7.8037   -3.0871    1.4032 C.ar    1  UNL1       -0.0597
     19 C          -6.4504   -3.3004    1.7132 C.ar    1  UNL1       -0.0610
     20 C          -5.5043   -2.4711    1.1499 C.ar    1  UNL1       -0.0508
     21 C          -5.8339   -1.4317    0.2865 C.ar    1  UNL1        0.0215
     22 C          -7.1238    1.6699   -2.3462 C.3     1  UNL1       -0.0101
     23 C          -6.0770    2.7410   -2.4997 C.3     1  UNL1       -0.0473
     24 C          -4.7369    2.1117   -2.8455 C.3     1  UNL1       -0.0486
     25 C          -4.2312    1.2712   -1.7142 C.3     1  UNL1       -0.0242
     26 C           3.8368    0.3380   -1.7086 C.3     1  UNL1        0.0124
     27 C           3.3471   -1.1022   -1.8126 C.3     1  UNL1       -0.0491
     28 C           5.3522    0.2453   -1.6384 C.3     1  UNL1       -0.0122
     29 C           5.8669   -0.4047   -0.4139 C.ar    1  UNL1       -0.0457
     30 C           6.0004   -1.7612   -0.4309 C.ar    1  UNL1       -0.0551
     31 C           6.4892   -2.4219    0.6770 C.ar    1  UNL1       -0.0197
     32 C           6.8371   -1.6886    1.7879 C.ar    1  UNL1        0.1201
     33 O           7.3294   -2.3616    2.8976 O.3     1  UNL1       -0.4951
     34 C           7.6983   -1.6328    4.0497 C.3     1  UNL1        0.0788
     35 C           6.7194   -0.3013    1.8505 C.ar    1  UNL1       -0.0197
     36 C           6.2169    0.3106    0.6972 C.ar    1  UNL1       -0.0551
     37 H           5.6949    4.5086    0.9778 H       1  UNL1        0.1228
     38 H           3.2250    2.7059   -1.9671 H       1  UNL1        0.0563
     39 H           2.1859    2.8798   -0.5674 H       1  UNL1        0.0563
     40 H           2.9801   -0.5492    0.5770 H       1  UNL1        0.0427
     41 H           3.3756    1.0365    1.4140 H       1  UNL1        0.0427
     42 H           1.2572    1.8788    0.8373 H       1  UNL1        0.0278
     43 H           1.0824    0.2996    1.7619 H       1  UNL1        0.0278
     44 H           0.9606    0.5464   -1.3248 H       1  UNL1        0.0266
     45 H           0.8640   -0.9592   -0.3891 H       1  UNL1        0.0266
     46 H          -1.0324    1.4125   -0.2702 H       1  UNL1        0.0266
     47 H          -1.3547   -0.1736   -1.0711 H       1  UNL1        0.0266
     48 H          -0.9426    0.1716    1.9533 H       1  UNL1        0.0280
     49 H          -1.1264   -1.3581    1.0624 H       1  UNL1        0.0280
     50 H          -3.1051    0.9813    1.0917 H       1  UNL1        0.0461
     51 H          -3.1724   -0.5396    2.1024 H       1  UNL1        0.0461
     52 H          -2.9512   -1.3468   -0.6167 H       1  UNL1        0.1461
     53 H          -9.1362   -1.8625    0.2886 H       1  UNL1        0.0639
     54 H          -8.5523   -3.7412    1.8498 H       1  UNL1        0.0618
     55 H          -6.2208   -4.0993    2.3732 H       1  UNL1        0.0618
     56 H          -4.4648   -2.6296    1.3839 H       1  UNL1        0.0625
     57 H          -7.2828    1.2298   -3.3597 H       1  UNL1        0.0328
     58 H          -8.0833    2.0715   -1.9550 H       1  UNL1        0.0328
     59 H          -6.3531    3.3401   -3.4057 H       1  UNL1        0.0269
     60 H          -5.9445    3.3698   -1.6144 H       1  UNL1        0.0269
     61 H          -4.8391    1.4347   -3.7404 H       1  UNL1        0.0269
     62 H          -3.9965    2.8690   -3.1009 H       1  UNL1        0.0269
     63 H          -3.8844    1.9717   -0.9195 H       1  UNL1        0.0314
     64 H          -3.3819    0.6458   -2.0876 H       1  UNL1        0.0314
     65 H           3.6189    0.7906   -2.7001 H       1  UNL1        0.0463
     66 H           2.3334   -1.1487   -2.2705 H       1  UNL1        0.0245
     67 H           3.5112   -1.7120   -0.9403 H       1  UNL1        0.0245
     68 H           4.0045   -1.5489   -2.6250 H       1  UNL1        0.0245
     69 H           5.8091    1.2787   -1.6503 H       1  UNL1        0.0328
     70 H           5.7639   -0.2400   -2.5426 H       1  UNL1        0.0328
     71 H           5.7515   -2.3960   -1.2768 H       1  UNL1        0.0621
     72 H           6.6021   -3.5116    0.6886 H       1  UNL1        0.0654
     73 H           8.2219   -2.3199    4.7462 H       1  UNL1        0.0660
     74 H           8.4121   -0.8228    3.7101 H       1  UNL1        0.0660
     75 H           6.8178   -1.1658    4.4921 H       1  UNL1        0.0660
     76 H           6.9905    0.2779    2.7210 H       1  UNL1        0.0654
     77 H           6.1374    1.3888    0.7459 H       1  UNL1        0.0621
@<TRIPOS>BOND
     1     1     2    3
     2     2     3    1
     3     3     4    1
     4     4     5    1
     5     5     6    1
     6     6     7    1
     7     7     8    1
     8     8     9    1
     9     9    10    1
    10    10    11    1
    11    11    12    1
    12    12    13   ar
    13    13    14   ar
    14    14    15   ar
    15    15    16   ar
    16    16    17   ar
    17    17    18   ar
    18    18    19   ar
    19    19    20   ar
    20    20    21   ar
    21    14    22    1
    22    22    23    1
    23    23    24    1
    24    24    25    1
    25     4    26    1
    26    26    27    1
    27    26    28    1
    28    28    29    1
    29    29    30   ar
    30    30    31   ar
    31    31    32   ar
    32    32    33    1
    33    33    34    1
    34    32    35   ar
    35    35    36   ar
    36    21    12   ar
    37    36    29   ar
    38    25    13    1
    39    21    16   ar
    40     1    37    1
    41     3    38    1
    42     3    39    1
    43     5    40    1
    44     5    41    1
    45     6    42    1
    46     6    43    1
    47     7    44    1
    48     7    45    1
    49     8    46    1
    50     8    47    1
    51     9    48    1
    52     9    49    1
    53    10    50    1
    54    10    51    1
    55    11    52    1
    56    17    53    1
    57    18    54    1
    58    19    55    1
    59    20    56    1
    60    22    57    1
    61    22    58    1
    62    23    59    1
    63    23    60    1
    64    24    61    1
    65    24    62    1
    66    25    63    1
    67    25    64    1
    68    26    65    1
    69    27    66    1
    70    27    67    1
    71    27    68    1
    72    28    69    1
    73    28    70    1
    74    30    71    1
    75    31    72    1
    76    34    73    1
    77    34    74    1
    78    34    75    1
    79    35    76    1
    80    36    77    1
