
     RDKit          3D

 64 67  0  0  0  0  0  0  0  0999 V2000
   -7.7297    0.5960   -3.8784 C   0  0  0  0  0  0  0  0  0  0  0  0
   -7.4072    0.5056   -2.4126 C   0  0  0  0  0  0  0  0  0  0  0  0
   -6.1560    0.1226   -1.9756 C   0  0  0  0  0  0  0  0  0  0  0  0
   -5.8189    0.0274   -0.6423 C   0  0  0  0  0  0  0  0  0  0  0  0
   -4.4700   -0.3871   -0.2568 C   0  0  0  0  0  0  0  0  0  0  0  0
   -3.6397    0.6554    0.1857 O   0  0  0  0  0  0  0  0  0  0  0  0
   -2.3356    0.3287    0.5659 C   0  0  0  0  0  0  0  0  0  0  0  0
   -1.8667   -0.9697    0.5133 C   0  0  0  0  0  0  0  0  0  0  0  0
   -0.5916   -1.3443    0.8753 C   0  0  0  0  0  0  0  0  0  0  0  0
    0.2813   -0.3682    1.3202 C   0  0  0  0  0  0  0  0  0  0  0  0
    1.9352   -0.7819    1.7914 S   0  0  0  0  0  6  0  0  0  0  0  0
    2.3357    0.1387    2.8808 O   0  0  0  0  0  0  0  0  0  0  0  0
    1.9120   -2.2018    2.2800 O   0  0  0  0  0  0  0  0  0  0  0  0
    2.9157   -0.5966    0.3241 C   0  0  0  0  0  0  0  0  0  0  0  0
    4.3850   -0.9220    0.5656 C   0  0  0  0  0  0  0  0  0  0  0  0
    5.0708   -0.7209   -0.7319 C   0  0  0  0  0  0  0  0  0  0  0  0
    6.2432   -0.1399   -0.8666 C   0  0  0  0  0  0  0  0  0  0  0  0
    6.8556    0.0180   -2.2216 C   0  0  0  0  0  0  0  0  0  0  0  0
    7.2394    1.4817   -2.4445 C   0  0  0  0  0  0  0  0  0  0  0  0
    7.8557    2.0913   -1.2460 C   0  0  0  0  0  0  0  0  0  0  0  0
    8.8791    2.7349   -1.3672 O   0  0  0  0  0  0  0  0  0  0  0  0
    7.1947    1.8940    0.0812 C   0  0  0  0  0  0  0  0  0  0  0  0
    7.0421    0.3926    0.2579 C   0  0  0  0  0  0  0  0  0  0  0  0
    4.5664   -2.2990    0.9408 N   0  0  0  0  0  0  0  0  0  0  0  0
    4.2118   -3.2796    0.0934 O   0  0  0  0  0  0  0  0  0  0  0  0
    5.1155   -2.6350    2.1948 C   0  0  0  0  0  0  0  0  0  0  0  0
    5.2951   -3.8247    2.5707 O   0  0  0  0  0  0  0  0  0  0  0  0
   -0.1645    0.9366    1.3817 C   0  0  0  0  0  0  0  0  0  0  0  0
   -1.4445    1.2946    1.0156 C   0  0  0  0  0  0  0  0  0  0  0  0
   -6.7542    0.3221    0.2998 C   0  0  0  0  0  0  0  0  0  0  0  0
   -6.4711    0.2428    1.6442 C   0  0  0  0  0  0  0  0  0  0  0  0
   -7.4416    0.5474    2.5824 C   0  0  0  0  0  0  0  0  0  0  0  0
   -8.6870    0.9286    2.1459 C   0  0  0  0  0  0  0  0  0  0  0  0
   -8.9565    1.0038    0.8052 C   0  0  0  0  0  0  0  0  0  0  0  0
   -8.0141    0.7075   -0.1604 C   0  0  0  0  0  0  0  0  0  0  0  0
   -8.3177    0.7926   -1.4669 N   0  0  0  0  0  0  0  0  0  0  0  0
   -8.6098   -0.0530   -4.0526 H   0  0  0  0  0  0  0  0  0  0  0  0
   -7.8676    1.6354   -4.2043 H   0  0  0  0  0  0  0  0  0  0  0  0
   -6.8836    0.0937   -4.4223 H   0  0  0  0  0  0  0  0  0  0  0  0
   -5.4149   -0.1103   -2.7562 H   0  0  0  0  0  0  0  0  0  0  0  0
   -3.9657   -0.9340   -1.1064 H   0  0  0  0  0  0  0  0  0  0  0  0
   -4.5725   -1.1705    0.5510 H   0  0  0  0  0  0  0  0  0  0  0  0
   -2.5723   -1.7298    0.1583 H   0  0  0  0  0  0  0  0  0  0  0  0
   -0.2618   -2.3873    0.8181 H   0  0  0  0  0  0  0  0  0  0  0  0
    2.4688   -1.2292   -0.4604 H   0  0  0  0  0  0  0  0  0  0  0  0
    2.7985    0.4544   -0.0080 H   0  0  0  0  0  0  0  0  0  0  0  0
    4.7233   -0.2699    1.3648 H   0  0  0  0  0  0  0  0  0  0  0  0
    4.5484   -1.0873   -1.6079 H   0  0  0  0  0  0  0  0  0  0  0  0
    6.1394   -0.2467   -3.0261 H   0  0  0  0  0  0  0  0  0  0  0  0
    7.7620   -0.6161   -2.2976 H   0  0  0  0  0  0  0  0  0  0  0  0
    7.9329    1.5185   -3.3135 H   0  0  0  0  0  0  0  0  0  0  0  0
    6.3039    1.9980   -2.7562 H   0  0  0  0  0  0  0  0  0  0  0  0
    6.2023    2.3865    0.1257 H   0  0  0  0  0  0  0  0  0  0  0  0
    7.8642    2.3183    0.8643 H   0  0  0  0  0  0  0  0  0  0  0  0
    8.0816   -0.0254    0.1169 H   0  0  0  0  0  0  0  0  0  0  0  0
    6.7254    0.0881    1.2477 H   0  0  0  0  0  0  0  0  0  0  0  0
    3.4604   -3.0101   -0.4993 H   0  0  0  0  0  0  0  0  0  0  0  0
    5.3977   -1.8406    2.8703 H   0  0  0  0  0  0  0  0  0  0  0  0
    0.5626    1.6809    1.7415 H   0  0  0  0  0  0  0  0  0  0  0  0
   -1.7490    2.3309    1.0807 H   0  0  0  0  0  0  0  0  0  0  0  0
   -5.4836   -0.0593    1.9972 H   0  0  0  0  0  0  0  0  0  0  0  0
   -7.2504    0.4947    3.6518 H   0  0  0  0  0  0  0  0  0  0  0  0
   -9.4543    1.1694    2.8707 H   0  0  0  0  0  0  0  0  0  0  0  0
   -9.9534    1.3085    0.5185 H   0  0  0  0  0  0  0  0  0  0  0  0
  1  2  1  0
  2  3  2  0
  3  4  1  0
  4  5  1  0
  5  6  1  0
  6  7  1  0
  7  8  2  0
  8  9  1  0
  9 10  2  0
 10 11  1  0
 11 12  2  0
 11 13  2  0
 11 14  1  0
 14 15  1  0
 15 16  1  0
 16 17  2  3
 17 18  1  0
 18 19  1  0
 19 20  1  0
 20 21  2  0
 20 22  1  0
 22 23  1  0
 15 24  1  0
 24 25  1  0
 24 26  1  0
 26 27  2  0
 10 28  1  0
 28 29  2  0
  4 30  2  0
 30 31  1  0
 31 32  2  0
 32 33  1  0
 33 34  2  0
 34 35  1  0
 35 36  2  0
 36  2  1  0
 29  7  1  0
 35 30  1  0
 23 17  1  0
  1 37  1  0
  1 38  1  0
  1 39  1  0
  3 40  1  0
  5 41  1  0
  5 42  1  0
  8 43  1  0
  9 44  1  0
 14 45  1  0
 14 46  1  0
 15 47  1  0
 16 48  1  0
 18 49  1  0
 18 50  1  0
 19 51  1  0
 19 52  1  0
 22 53  1  0
 22 54  1  0
 23 55  1  0
 23 56  1  0
 25 57  1  0
 26 58  1  0
 28 59  1  0
 29 60  1  0
 31 61  1  0
 32 62  1  0
 33 63  1  0
 34 64  1  0
M  END
$$$$
