@<TRIPOS>MOLECULE
*****
 64 67 0 0 0
SMALL
GASTEIGER

@<TRIPOS>ATOM
      1 C          -7.7297    0.5960   -3.8784 C.3     1  UNL1       -0.0223
      2 C          -7.4072    0.5056   -2.4126 C.ar    1  UNL1        0.0393
      3 C          -6.1560    0.1226   -1.9756 C.ar    1  UNL1       -0.0337
      4 C          -5.8189    0.0274   -0.6423 C.ar    1  UNL1        0.0004
      5 C          -4.4700   -0.3871   -0.2568 C.3     1  UNL1        0.1153
      6 O          -3.6397    0.6554    0.1857 O.3     1  UNL1       -0.4874
      7 C          -2.3356    0.3287    0.5659 C.ar    1  UNL1        0.1211
      8 C          -1.8667   -0.9697    0.5133 C.ar    1  UNL1       -0.0181
      9 C          -0.5916   -1.3443    0.8753 C.ar    1  UNL1       -0.0334
     10 C           0.2813   -0.3682    1.3202 C.ar    1  UNL1        0.0885
     11 S           1.9352   -0.7819    1.7914 S.O2    1  UNL1       -0.0010
     12 O           2.3357    0.1387    2.8808 O.2     1  UNL1       -0.1693
     13 O           1.9120   -2.2018    2.2800 O.2     1  UNL1       -0.1693
     14 C           2.9157   -0.5966    0.3241 C.3     1  UNL1        0.0952
     15 C           4.3850   -0.9220    0.5656 C.3     1  UNL1        0.0906
     16 C           5.0708   -0.7209   -0.7319 C.2     1  UNL1       -0.0606
     17 C           6.2432   -0.1399   -0.8666 C.2     1  UNL1       -0.0708
     18 C           6.8556    0.0180   -2.2216 C.3     1  UNL1       -0.0250
     19 C           7.2394    1.4817   -2.4445 C.3     1  UNL1        0.0095
     20 C           7.8557    2.0913   -1.2460 C.2     1  UNL1        0.1340
     21 O           8.8791    2.7349   -1.3672 O.2     1  UNL1       -0.2974
     22 C           7.1947    1.8940    0.0812 C.3     1  UNL1        0.0095
     23 C           7.0421    0.3926    0.2579 C.3     1  UNL1       -0.0250
     24 N           4.5664   -2.2990    0.9408 N.am    1  UNL1       -0.1779
     25 O           4.2118   -3.2796    0.0934 O.3     1  UNL1       -0.2921
     26 C           5.1155   -2.6350    2.1948 C.2     1  UNL1        0.2256
     27 O           5.2951   -3.8247    2.5707 O.2     1  UNL1       -0.2772
     28 C          -0.1645    0.9366    1.3817 C.ar    1  UNL1       -0.0334
     29 C          -1.4445    1.2946    1.0156 C.ar    1  UNL1       -0.0181
     30 C          -6.7542    0.3221    0.2998 C.ar    1  UNL1        0.0068
     31 C          -6.4711    0.2428    1.6442 C.ar    1  UNL1       -0.0522
     32 C          -7.4416    0.5474    2.5824 C.ar    1  UNL1       -0.0611
     33 C          -8.6870    0.9286    2.1459 C.ar    1  UNL1       -0.0597
     34 C          -8.9565    1.0038    0.8052 C.ar    1  UNL1       -0.0357
     35 C          -8.0141    0.7075   -0.1604 C.ar    1  UNL1        0.0716
     36 N          -8.3177    0.7926   -1.4669 N.ar    1  UNL1       -0.2519
     37 H          -8.6098   -0.0530   -4.0526 H       1  UNL1        0.0292
     38 H          -7.8676    1.6354   -4.2043 H       1  UNL1        0.0292
     39 H          -6.8836    0.0937   -4.4223 H       1  UNL1        0.0292
     40 H          -5.4149   -0.1103   -2.7562 H       1  UNL1        0.0639
     41 H          -3.9657   -0.9340   -1.1064 H       1  UNL1        0.0748
     42 H          -4.5725   -1.1705    0.5510 H       1  UNL1        0.0748
     43 H          -2.5723   -1.7298    0.1583 H       1  UNL1        0.0655
     44 H          -0.2618   -2.3873    0.8181 H       1  UNL1        0.0638
     45 H           2.4688   -1.2292   -0.4604 H       1  UNL1        0.0527
     46 H           2.7985    0.4544   -0.0080 H       1  UNL1        0.0527
     47 H           4.7233   -0.2699    1.3648 H       1  UNL1        0.0585
     48 H           4.5484   -1.0873   -1.6079 H       1  UNL1        0.0591
     49 H           6.1394   -0.2467   -3.0261 H       1  UNL1        0.0314
     50 H           7.7620   -0.6161   -2.2976 H       1  UNL1        0.0314
     51 H           7.9329    1.5185   -3.3135 H       1  UNL1        0.0345
     52 H           6.3039    1.9980   -2.7562 H       1  UNL1        0.0345
     53 H           6.2023    2.3865    0.1257 H       1  UNL1        0.0345
     54 H           7.8642    2.3183    0.8643 H       1  UNL1        0.0345
     55 H           8.0816   -0.0254    0.1169 H       1  UNL1        0.0314
     56 H           6.7254    0.0881    1.2477 H       1  UNL1        0.0314
     57 H           3.4604   -3.0101   -0.4993 H       1  UNL1        0.2417
     58 H           5.3977   -1.8406    2.8703 H       1  UNL1        0.1274
     59 H           0.5626    1.6809    1.7415 H       1  UNL1        0.0638
     60 H          -1.7490    2.3309    1.0807 H       1  UNL1        0.0655
     61 H          -5.4836   -0.0593    1.9972 H       1  UNL1        0.0624
     62 H          -7.2504    0.4947    3.6518 H       1  UNL1        0.0618
     63 H          -9.4543    1.1694    2.8707 H       1  UNL1        0.0618
     64 H          -9.9534    1.3085    0.5185 H       1  UNL1        0.0639
@<TRIPOS>BOND
     1     1     2    1
     2     2     3   ar
     3     3     4   ar
     4     4     5    1
     5     5     6    1
     6     6     7    1
     7     7     8   ar
     8     8     9   ar
     9     9    10   ar
    10    10    11    1
    11    11    12    2
    12    11    13    2
    13    11    14    1
    14    14    15    1
    15    15    16    1
    16    16    17    2
    17    17    18    1
    18    18    19    1
    19    19    20    1
    20    20    21    2
    21    20    22    1
    22    22    23    1
    23    15    24    1
    24    24    25    1
    25    24    26   am
    26    26    27    2
    27    10    28   ar
    28    28    29   ar
    29     4    30   ar
    30    30    31   ar
    31    31    32   ar
    32    32    33   ar
    33    33    34   ar
    34    34    35   ar
    35    35    36   ar
    36    36     2   ar
    37    29     7   ar
    38    35    30   ar
    39    23    17    1
    40     1    37    1
    41     1    38    1
    42     1    39    1
    43     3    40    1
    44     5    41    1
    45     5    42    1
    46     8    43    1
    47     9    44    1
    48    14    45    1
    49    14    46    1
    50    15    47    1
    51    16    48    1
    52    18    49    1
    53    18    50    1
    54    19    51    1
    55    19    52    1
    56    22    53    1
    57    22    54    1
    58    23    55    1
    59    23    56    1
    60    25    57    1
    61    26    58    1
    62    28    59    1
    63    29    60    1
    64    31    61    1
    65    32    62    1
    66    33    63    1
    67    34    64    1
