
     RDKit          3D

 54 56  0  0  0  0  0  0  0  0999 V2000
   -1.9180    0.5170    0.0038 C   0  0  2  0  0  0  0  0  0  0  0  0
   -1.7039    1.7348   -0.8255 C   0  0  0  0  0  0  0  0  0  0  0  0
   -0.2229    1.9958   -0.9188 C   0  0  0  0  0  0  0  0  0  0  0  0
    0.6060    0.8375   -0.5300 C   0  0  0  0  0  0  0  0  0  0  0  0
    1.9406    1.1150   -0.2638 C   0  0  0  0  0  0  0  0  0  0  0  0
    2.8325    0.1049    0.1156 C   0  0  0  0  0  0  0  0  0  0  0  0
    4.2305    0.4751    0.3807 C   0  0  0  0  0  0  0  0  0  0  0  0
    5.0075    0.3649   -0.9138 C   0  0  0  0  0  0  0  0  0  0  0  0
    4.3627    1.8944    0.9026 C   0  0  0  0  0  0  0  0  0  0  0  0
    2.3799   -1.2117    0.2314 C   0  0  0  0  0  0  0  0  0  0  0  0
    1.0549   -1.4784   -0.0344 C   0  0  0  0  0  0  0  0  0  0  0  0
    0.1735   -0.4883   -0.4080 C   0  0  0  0  0  0  0  0  0  0  0  0
   -1.2710   -0.6411   -0.7211 C   0  0  2  0  0  0  0  0  0  0  0  0
   -1.3468   -0.4835   -2.2446 C   0  0  0  0  0  0  0  0  0  0  0  0
   -1.8608   -1.9561   -0.3678 C   0  0  0  0  0  0  0  0  0  0  0  0
   -2.4320   -1.9489    1.0339 C   0  0  0  0  0  0  0  0  0  0  0  0
   -3.6320   -1.0149    0.9932 C   0  0  0  0  0  0  0  0  0  0  0  0
   -3.3672    0.2832    0.3170 C   0  0  2  0  0  0  0  0  0  0  0  0
   -4.2957    0.4569   -0.8447 C   0  0  0  0  0  0  0  0  0  0  0  0
   -3.7336    1.3586    1.3082 C   0  0  0  0  0  0  0  0  0  0  0  0
   -3.0787    1.4342    2.5066 O   0  0  0  0  0  0  0  0  0  0  0  0
   -4.6247    2.2456    1.1494 O   0  0  0  0  0  0  0  0  0  0  0  0
    3.4882   -2.4667    0.7029 S   0  0  0  0  0  0  0  0  0  0  0  0
    4.1631   -2.1721    2.2291 O   0  0  0  0  0  0  0  0  0  0  0  0
    4.6151   -2.6525   -0.2854 O   0  0  0  0  0  0  0  0  0  0  0  0
    2.7077   -3.7437    0.8298 O   0  0  0  0  0  0  0  0  0  0  0  0
   -1.4123    0.6629    0.9823 H   0  0  0  0  0  0  0  0  0  0  0  0
   -2.0784    1.5690   -1.8505 H   0  0  0  0  0  0  0  0  0  0  0  0
   -2.2668    2.5682   -0.3909 H   0  0  0  0  0  0  0  0  0  0  0  0
   -0.0087    2.8056   -0.1898 H   0  0  0  0  0  0  0  0  0  0  0  0
    0.0232    2.4034   -1.9137 H   0  0  0  0  0  0  0  0  0  0  0  0
    2.3348    2.1406   -0.3443 H   0  0  0  0  0  0  0  0  0  0  0  0
    4.6988   -0.1867    1.1188 H   0  0  0  0  0  0  0  0  0  0  0  0
    4.4423   -0.2621   -1.6333 H   0  0  0  0  0  0  0  0  0  0  0  0
    5.1092    1.3870   -1.3696 H   0  0  0  0  0  0  0  0  0  0  0  0
    6.0251   -0.0684   -0.7261 H   0  0  0  0  0  0  0  0  0  0  0  0
    4.3317    2.5653    0.0082 H   0  0  0  0  0  0  0  0  0  0  0  0
    5.3317    1.9861    1.4332 H   0  0  0  0  0  0  0  0  0  0  0  0
    3.5137    2.1827    1.5509 H   0  0  0  0  0  0  0  0  0  0  0  0
    0.6544   -2.4680    0.0389 H   0  0  0  0  0  0  0  0  0  0  0  0
   -1.0538   -1.5016   -2.6306 H   0  0  0  0  0  0  0  0  0  0  0  0
   -2.3557   -0.3013   -2.6141 H   0  0  0  0  0  0  0  0  0  0  0  0
   -0.5594    0.1905   -2.6327 H   0  0  0  0  0  0  0  0  0  0  0  0
   -1.2408   -2.8403   -0.5661 H   0  0  0  0  0  0  0  0  0  0  0  0
   -2.7615   -2.0916   -1.0375 H   0  0  0  0  0  0  0  0  0  0  0  0
   -2.7997   -2.9511    1.2666 H   0  0  0  0  0  0  0  0  0  0  0  0
   -1.7215   -1.5886    1.7926 H   0  0  0  0  0  0  0  0  0  0  0  0
   -3.9768   -0.9176    2.0566 H   0  0  0  0  0  0  0  0  0  0  0  0
   -4.4591   -1.5975    0.4938 H   0  0  0  0  0  0  0  0  0  0  0  0
   -4.0714    1.3759   -1.4368 H   0  0  0  0  0  0  0  0  0  0  0  0
   -5.3049    0.6806   -0.3951 H   0  0  0  0  0  0  0  0  0  0  0  0
   -4.4563   -0.4424   -1.4464 H   0  0  0  0  0  0  0  0  0  0  0  0
   -3.5464    1.7438    3.3463 H   0  0  0  0  0  0  0  0  0  0  0  0
    3.5337   -1.6042    2.7428 H   0  0  0  0  0  0  0  0  0  0  0  0
  1  2  1  0
  2  3  1  0
  3  4  1  0
  4  5  2  0
  5  6  1  0
  6  7  1  0
  7  8  1  0
  7  9  1  0
  6 10  2  0
 10 11  1  0
 11 12  2  0
 12 13  1  0
 13 14  1  6
 13 15  1  0
 15 16  1  0
 16 17  1  0
 17 18  1  0
 18 19  1  6
 18 20  1  0
 20 21  1  0
 20 22  2  0
 10 23  1  0
 23 24  1  0
 23 25  2  0
 23 26  2  0
 13  1  1  0
 18  1  1  0
 12  4  1  0
  1 27  1  1
  2 28  1  0
  2 29  1  0
  3 30  1  0
  3 31  1  0
  5 32  1  0
  7 33  1  0
  8 34  1  0
  8 35  1  0
  8 36  1  0
  9 37  1  0
  9 38  1  0
  9 39  1  0
 11 40  1  0
 14 41  1  0
 14 42  1  0
 14 43  1  0
 15 44  1  0
 15 45  1  0
 16 46  1  0
 16 47  1  0
 17 48  1  0
 17 49  1  0
 19 50  1  0
 19 51  1  0
 19 52  1  0
 21 53  1  0
 24 54  1  0
M  END
$$$$
