@<TRIPOS>MOLECULE
*****
 54 56 0 0 0
SMALL
GASTEIGER

@<TRIPOS>ATOM
      1 C          -1.9180    0.5170    0.0038 C.3     1  UNL1       -0.0158
      2 C          -1.7039    1.7348   -0.8255 C.3     1  UNL1       -0.0444
      3 C          -0.2229    1.9958   -0.9188 C.3     1  UNL1       -0.0271
      4 C           0.6060    0.8375   -0.5300 C.ar    1  UNL1       -0.0433
      5 C           1.9406    1.1150   -0.2638 C.ar    1  UNL1       -0.0530
      6 C           2.8325    0.1049    0.1156 C.ar    1  UNL1       -0.0173
      7 C           4.2305    0.4751    0.3807 C.3     1  UNL1       -0.0196
      8 C           5.0075    0.3649   -0.9138 C.3     1  UNL1       -0.0586
      9 C           4.3627    1.8944    0.9026 C.3     1  UNL1       -0.0586
     10 C           2.3799   -1.2117    0.2314 C.ar    1  UNL1        0.1205
     11 C           1.0549   -1.4784   -0.0344 C.ar    1  UNL1       -0.0301
     12 C           0.1735   -0.4883   -0.4080 C.ar    1  UNL1       -0.0361
     13 C          -1.2710   -0.6411   -0.7211 C.3     1  UNL1       -0.0029
     14 C          -1.3468   -0.4835   -2.2446 C.3     1  UNL1       -0.0552
     15 C          -1.8608   -1.9561   -0.3678 C.3     1  UNL1       -0.0433
     16 C          -2.4320   -1.9489    1.0339 C.3     1  UNL1       -0.0512
     17 C          -3.6320   -1.0149    0.9932 C.3     1  UNL1       -0.0372
     18 C          -3.3672    0.2832    0.3170 C.3     1  UNL1        0.0684
     19 C          -4.2957    0.4569   -0.8447 C.3     1  UNL1       -0.0491
     20 C          -3.7336    1.3586    1.3082 C.2     1  UNL1        0.3110
     21 O          -3.0787    1.4342    2.5066 O.3     1  UNL1       -0.4802
     22 O          -4.6247    2.2456    1.1494 O.2     1  UNL1       -0.2504
     23 S           3.4882   -2.4667    0.7029 S.O2    1  UNL1        0.1099
     24 O           4.1631   -2.1721    2.2291 O.3     1  UNL1       -0.2498
     25 O           4.6151   -2.6525   -0.2854 O.2     1  UNL1       -0.1421
     26 O           2.7077   -3.7437    0.8298 O.2     1  UNL1       -0.1421
     27 H          -1.4123    0.6629    0.9823 H       1  UNL1        0.0320
     28 H          -2.0784    1.5690   -1.8505 H       1  UNL1        0.0272
     29 H          -2.2668    2.5682   -0.3909 H       1  UNL1        0.0272
     30 H          -0.0087    2.8056   -0.1898 H       1  UNL1        0.0313
     31 H           0.0232    2.4034   -1.9137 H       1  UNL1        0.0313
     32 H           2.3348    2.1406   -0.3443 H       1  UNL1        0.0624
     33 H           4.6988   -0.1867    1.1188 H       1  UNL1        0.0344
     34 H           4.4423   -0.2621   -1.6333 H       1  UNL1        0.0235
     35 H           5.1092    1.3870   -1.3696 H       1  UNL1        0.0235
     36 H           6.0251   -0.0684   -0.7261 H       1  UNL1        0.0235
     37 H           4.3317    2.5653    0.0082 H       1  UNL1        0.0235
     38 H           5.3317    1.9861    1.4332 H       1  UNL1        0.0235
     39 H           3.5137    2.1827    1.5509 H       1  UNL1        0.0235
     40 H           0.6544   -2.4680    0.0389 H       1  UNL1        0.0640
     41 H          -1.0538   -1.5016   -2.6306 H       1  UNL1        0.0238
     42 H          -2.3557   -0.3013   -2.6141 H       1  UNL1        0.0238
     43 H          -0.5594    0.1905   -2.6327 H       1  UNL1        0.0238
     44 H          -1.2408   -2.8403   -0.5661 H       1  UNL1        0.0274
     45 H          -2.7615   -2.0916   -1.0375 H       1  UNL1        0.0274
     46 H          -2.7997   -2.9511    1.2666 H       1  UNL1        0.0266
     47 H          -1.7215   -1.5886    1.7926 H       1  UNL1        0.0266
     48 H          -3.9768   -0.9176    2.0566 H       1  UNL1        0.0276
     49 H          -4.4591   -1.5975    0.4938 H       1  UNL1        0.0276
     50 H          -4.0714    1.3759   -1.4368 H       1  UNL1        0.0240
     51 H          -5.3049    0.6806   -0.3951 H       1  UNL1        0.0240
     52 H          -4.4563   -0.4424   -1.4464 H       1  UNL1        0.0240
     53 H          -3.5464    1.7438    3.3463 H       1  UNL1        0.2951
     54 H           3.5337   -1.6042    2.7428 H       1  UNL1        0.2449
@<TRIPOS>BOND
     1     1     2    1
     2     2     3    1
     3     3     4    1
     4     4     5   ar
     5     5     6   ar
     6     6     7    1
     7     7     8    1
     8     7     9    1
     9     6    10   ar
    10    10    11   ar
    11    11    12   ar
    12    12    13    1
    13    13    14    1
    14    13    15    1
    15    15    16    1
    16    16    17    1
    17    17    18    1
    18    18    19    1
    19    18    20    1
    20    20    21    1
    21    20    22    2
    22    10    23    1
    23    23    24    1
    24    23    25    2
    25    23    26    2
    26    13     1    1
    27    18     1    1
    28    12     4   ar
    29     1    27    1
    30     2    28    1
    31     2    29    1
    32     3    30    1
    33     3    31    1
    34     5    32    1
    35     7    33    1
    36     8    34    1
    37     8    35    1
    38     8    36    1
    39     9    37    1
    40     9    38    1
    41     9    39    1
    42    11    40    1
    43    14    41    1
    44    14    42    1
    45    14    43    1
    46    15    44    1
    47    15    45    1
    48    16    46    1
    49    16    47    1
    50    17    48    1
    51    17    49    1
    52    19    50    1
    53    19    51    1
    54    19    52    1
    55    21    53    1
    56    24    54    1
