
     RDKit          3D

 22 21  0  0  0  0  0  0  0  0999 V2000
   -0.7484   -0.1569   -0.2369 C   0  0  2  0  0  0  0  0  0  0  0  0
    0.1673   -0.1948    0.9409 C   0  0  0  0  0  0  0  0  0  0  0  0
    1.2971   -1.1770    0.7847 C   0  0  0  0  0  0  0  0  0  0  0  0
    2.2633   -0.7067   -0.6698 S   0  0  0  0  0  0  0  0  0  0  0  0
    3.0988    0.8639   -0.4621 C   0  0  0  0  0  0  0  0  0  0  0  0
   -1.7812    0.8419    0.0775 N   0  0  0  0  0  0  0  0  0  0  0  0
   -2.0872    2.0812   -0.5775 C   0  0  0  0  0  0  0  0  0  0  0  0
   -1.4704    2.5010   -1.5713 O   0  0  0  0  0  0  0  0  0  0  0  0
   -1.3639   -1.4461   -0.5733 C   0  0  0  0  0  0  0  0  0  0  0  0
   -2.7595   -1.5556   -0.5445 O   0  0  0  0  0  0  0  0  0  0  0  0
   -0.8236   -2.5557   -0.9087 O   0  0  0  0  0  0  0  0  0  0  0  0
   -0.2124    0.2426   -1.1201 H   0  0  0  0  0  0  0  0  0  0  0  0
    0.6154    0.8015    1.1043 H   0  0  0  0  0  0  0  0  0  0  0  0
   -0.3943   -0.4153    1.8835 H   0  0  0  0  0  0  0  0  0  0  0  0
    0.8927   -2.1918    0.6225 H   0  0  0  0  0  0  0  0  0  0  0  0
    1.9206   -1.2452    1.6951 H   0  0  0  0  0  0  0  0  0  0  0  0
    4.0547    0.8292    0.0615 H   0  0  0  0  0  0  0  0  0  0  0  0
    2.4716    1.6302    0.0261 H   0  0  0  0  0  0  0  0  0  0  0  0
    3.2988    1.2625   -1.4902 H   0  0  0  0  0  0  0  0  0  0  0  0
   -2.2790    0.4618    0.9127 H   0  0  0  0  0  0  0  0  0  0  0  0
   -2.9134    2.5774   -0.0860 H   0  0  0  0  0  0  0  0  0  0  0  0
   -3.2468   -2.4481   -0.4723 H   0  0  0  0  0  0  0  0  0  0  0  0
  1  2  1  0
  2  3  1  0
  3  4  1  0
  4  5  1  0
  1  6  1  0
  6  7  1  0
  7  8  2  0
  1  9  1  0
  9 10  1  0
  9 11  2  0
  1 12  1  6
  2 13  1  0
  2 14  1  0
  3 15  1  0
  3 16  1  0
  5 17  1  0
  5 18  1  0
  5 19  1  0
  6 20  1  0
  7 21  1  0
 10 22  1  0
M  END
$$$$
