@<TRIPOS>MOLECULE
*****
 73 78 0 0 0
SMALL
GASTEIGER

@<TRIPOS>ATOM
      1 C          -2.7215    6.6859    2.5514 C.3     1  UNL1        0.0804
      2 O          -1.9467    5.5130    2.4277 O.3     1  UNL1       -0.4795
      3 C          -2.0384    4.6678    1.3322 C.ar    1  UNL1        0.2191
      4 C          -1.2631    3.5481    1.2713 C.ar    1  UNL1        0.0404
      5 C          -1.2784    2.6360    0.2182 C.ar    1  UNL1        0.1364
      6 N          -0.4578    1.4907    0.1888 N.am    1  UNL1       -0.2240
      7 C           0.8753    1.3520   -0.3622 C.2     1  UNL1        0.3219
      8 O           1.2379    2.0670   -1.3322 O.2     1  UNL1       -0.2512
      9 N           1.5613    0.3465    0.3728 N.am    1  UNL1       -0.1920
     10 C           2.8838   -0.1113    0.1590 C.ar    1  UNL1        0.0455
     11 C           3.4264   -1.1075    0.9473 C.ar    1  UNL1       -0.0392
     12 C           4.7213   -1.5562    0.7271 C.ar    1  UNL1       -0.0522
     13 C           5.5141   -1.0411   -0.2688 C.ar    1  UNL1       -0.0170
     14 C           6.8855   -1.4922   -0.5508 C.ar    1  UNL1       -0.0039
     15 C           7.9331   -0.5646   -0.4482 C.ar    1  UNL1       -0.0532
     16 C           9.2441   -0.8873   -0.6430 C.ar    1  UNL1       -0.0611
     17 C           9.5602   -2.1816   -0.9550 C.ar    1  UNL1       -0.0609
     18 C           8.5584   -3.1195   -1.0652 C.ar    1  UNL1       -0.0472
     19 C           7.2247   -2.7776   -0.8651 C.ar    1  UNL1        0.0665
     20 C           6.2163   -3.8025   -1.0527 C.2     1  UNL1        0.3374
     21 O           4.9803   -3.6202   -0.9825 O.2     1  UNL1       -0.2451
     22 O           6.6237   -5.1143   -1.3368 O.3     1  UNL1       -0.4771
     23 C           4.9832   -0.0516   -1.0555 C.ar    1  UNL1       -0.0522
     24 C           3.6775    0.4009   -0.8333 C.ar    1  UNL1       -0.0392
     25 C           0.6122   -0.0982    1.3618 C.2     1  UNL1        0.2516
     26 O           0.8994   -0.5605    2.4735 O.2     1  UNL1       -0.2724
     27 C          -0.7184    0.1437    0.7033 C.3     1  UNL1        0.1240
     28 C          -1.8544    0.1685    1.6502 C.3     1  UNL1       -0.0095
     29 C          -3.1952   -0.1224    1.0790 C.3     1  UNL1        0.0017
     30 N          -3.2468   -0.4302   -0.2840 N.3     1  UNL1       -0.2965
     31 C          -4.2979    0.0975   -1.0720 C.3     1  UNL1        0.0415
     32 C          -5.6053   -0.4062   -0.6028 C.ar    1  UNL1        0.0581
     33 N          -6.4180    0.3781    0.1131 N.ar    1  UNL1       -0.2583
     34 C          -7.6193   -0.0553    0.5500 C.ar    1  UNL1        0.0279
     35 C          -8.0783   -1.3300    0.2841 C.ar    1  UNL1       -0.0433
     36 C          -7.2553   -2.1585   -0.4539 C.ar    1  UNL1       -0.0557
     37 C          -6.0137   -1.6834   -0.8945 C.ar    1  UNL1       -0.0279
     38 C          -5.1547   -2.5743   -1.6726 C.3     1  UNL1       -0.0380
     39 C          -2.1818   -1.0762   -0.9268 C.3     1  UNL1        0.0017
     40 C          -0.8186   -0.8826   -0.3822 C.3     1  UNL1       -0.0095
     41 N          -2.1450    2.9425   -0.7795 N.ar    1  UNL1       -0.2200
     42 C          -2.9176    4.0433   -0.7358 C.ar    1  UNL1        0.1219
     43 N          -2.8755    4.9019    0.2982 N.ar    1  UNL1       -0.2013
     44 H          -3.7941    6.3494    2.5519 H       1  UNL1        0.0660
     45 H          -2.4620    7.1274    3.5450 H       1  UNL1        0.0660
     46 H          -2.5028    7.3838    1.7366 H       1  UNL1        0.0660
     47 H          -0.5816    3.3299    2.0814 H       1  UNL1        0.0705
     48 H           2.8442   -1.5485    1.7442 H       1  UNL1        0.0636
     49 H           5.1413   -2.3414    1.3731 H       1  UNL1        0.0624
     50 H           7.6964    0.4762   -0.1995 H       1  UNL1        0.0624
     51 H          10.0043   -0.1157   -0.5476 H       1  UNL1        0.0618
     52 H          10.6157   -2.4125   -1.1042 H       1  UNL1        0.0618
     53 H           8.8551   -4.1367   -1.3152 H       1  UNL1        0.0626
     54 H           6.0408   -5.9013   -1.0132 H       1  UNL1        0.2954
     55 H           5.5208    0.4245   -1.8688 H       1  UNL1        0.0624
     56 H           3.2909    1.1981   -1.4890 H       1  UNL1        0.0636
     57 H          -1.8987    1.1725    2.1697 H       1  UNL1        0.0303
     58 H          -1.6484   -0.5425    2.4819 H       1  UNL1        0.0303
     59 H          -3.7258   -0.8768    1.7386 H       1  UNL1        0.0427
     60 H          -3.8358    0.8029    1.2345 H       1  UNL1        0.0427
     61 H          -4.3262    1.2199   -1.0015 H       1  UNL1        0.0491
     62 H          -4.1684   -0.1352   -2.1700 H       1  UNL1        0.0491
     63 H          -8.2554    0.6188    1.1349 H       1  UNL1        0.0829
     64 H          -9.0427   -1.6549    0.6429 H       1  UNL1        0.0633
     65 H          -7.5618   -3.1594   -0.6904 H       1  UNL1        0.0621
     66 H          -5.8388   -3.2459   -2.2707 H       1  UNL1        0.0278
     67 H          -4.6034   -3.2884   -0.9934 H       1  UNL1        0.0278
     68 H          -4.4978   -2.1082   -2.4039 H       1  UNL1        0.0278
     69 H          -2.4020   -2.1913   -0.9010 H       1  UNL1        0.0427
     70 H          -2.1892   -0.8623   -2.0330 H       1  UNL1        0.0427
     71 H          -0.4515   -1.8472    0.0685 H       1  UNL1        0.0303
     72 H          -0.1354   -0.5924   -1.2345 H       1  UNL1        0.0303
     73 H          -3.6050    4.2794   -1.5367 H       1  UNL1        0.1049
@<TRIPOS>BOND
     1     1     2    1
     2     2     3    1
     3     3     4   ar
     4     4     5   ar
     5     5     6    1
     6     6     7   am
     7     7     8    2
     8     7     9   am
     9     9    10    1
    10    10    11   ar
    11    11    12   ar
    12    12    13   ar
    13    13    14    1
    14    14    15   ar
    15    15    16   ar
    16    16    17   ar
    17    17    18   ar
    18    18    19   ar
    19    19    20    1
    20    20    21    2
    21    20    22    1
    22    13    23   ar
    23    23    24   ar
    24     9    25   am
    25    25    26    2
    26    25    27    1
    27    27    28    1
    28    28    29    1
    29    29    30    1
    30    30    31    1
    31    31    32    1
    32    32    33   ar
    33    33    34   ar
    34    34    35   ar
    35    35    36   ar
    36    36    37   ar
    37    37    38    1
    38    30    39    1
    39    39    40    1
    40     5    41   ar
    41    41    42   ar
    42    42    43   ar
    43    43     3   ar
    44    27     6    1
    45    37    32   ar
    46    24    10   ar
    47    40    27    1
    48    19    14   ar
    49     1    44    1
    50     1    45    1
    51     1    46    1
    52     4    47    1
    53    11    48    1
    54    12    49    1
    55    15    50    1
    56    16    51    1
    57    17    52    1
    58    18    53    1
    59    22    54    1
    60    23    55    1
    61    24    56    1
    62    28    57    1
    63    28    58    1
    64    29    59    1
    65    29    60    1
    66    31    61    1
    67    31    62    1
    68    34    63    1
    69    35    64    1
    70    36    65    1
    71    38    66    1
    72    38    67    1
    73    38    68    1
    74    39    69    1
    75    39    70    1
    76    40    71    1
    77    40    72    1
    78    42    73    1
