@<TRIPOS>MOLECULE
*****
 53 56 0 0 0
SMALL
GASTEIGER

@<TRIPOS>ATOM
      1 C          -4.3087   -0.5912   -1.2872 C.3     1  UNL1       -0.0121
      2 N          -4.0556    0.4602   -0.3682 N.3     1  UNL1       -0.2972
      3 C          -5.0524    0.5885    0.6699 C.3     1  UNL1        0.0117
      4 C          -4.9945    2.0478    1.1291 C.3     1  UNL1        0.0088
      5 N          -3.7562    2.6508    0.7470 N.3     1  UNL1       -0.3130
      6 C          -2.6122    1.7648    0.9769 C.3     1  UNL1        0.0145
      7 C          -2.7087    0.4886    0.1665 C.3     1  UNL1        0.0370
      8 C          -1.7386    0.5701   -0.9660 C.3     1  UNL1       -0.0173
      9 C          -0.3312    0.4538   -0.4191 C.3     1  UNL1        0.0166
     10 N          -0.2051   -0.8667    0.1391 N.pl3   1  UNL1       -0.2994
     11 C           1.0784   -1.4425    0.2869 C.ar    1  UNL1        0.2214
     12 N           2.1632   -0.7716   -0.0237 N.ar    1  UNL1       -0.1790
     13 C           3.3889   -1.2435    0.0856 C.ar    1  UNL1        0.2254
     14 O           4.5115   -0.5277   -0.2433 O.3     1  UNL1       -0.4378
     15 C           4.6939    0.7184   -0.7126 C.ar    1  UNL1        0.1331
     16 C           3.6798    1.6065   -0.9548 C.ar    1  UNL1       -0.0191
     17 C           3.9245    2.8979   -1.4461 C.ar    1  UNL1       -0.0556
     18 C           5.2153    3.2972   -1.6961 C.ar    1  UNL1       -0.0262
     19 C           6.2362    2.4042   -1.4526 C.ar    1  UNL1        0.1269
     20 F           7.5133    2.8054   -1.7026 F       1  UNL1       -0.2054
     21 C           6.0172    1.1395   -0.9732 C.ar    1  UNL1        0.0160
     22 C           3.5368   -2.5588    0.5694 C.ar    1  UNL1        0.0305
     23 C           2.4249   -3.2790    0.8998 C.ar    1  UNL1        0.1522
     24 C           2.6053   -4.6753    1.4124 C.3     1  UNL1        0.4345
     25 F           3.6991   -4.7371    2.2683 F       1  UNL1       -0.1644
     26 F           2.8846   -5.5541    0.3686 F       1  UNL1       -0.1644
     27 F           1.5122   -5.1127    2.1083 F       1  UNL1       -0.1644
     28 N           1.2224   -2.7110    0.7534 N.ar    1  UNL1       -0.2101
     29 C          -1.3517   -1.5947    0.5454 C.3     1  UNL1        0.0166
     30 C          -2.5039   -0.7460    0.9970 C.3     1  UNL1       -0.0173
     31 H          -5.4280   -0.7351   -1.3316 H       1  UNL1        0.0391
     32 H          -3.8648   -1.5372   -0.9847 H       1  UNL1        0.0391
     33 H          -4.0278   -0.2764   -2.3206 H       1  UNL1        0.0391
     34 H          -4.8414   -0.0176    1.5551 H       1  UNL1        0.0439
     35 H          -6.0256    0.3113    0.2629 H       1  UNL1        0.0439
     36 H          -5.1743    2.1471    2.2146 H       1  UNL1        0.0437
     37 H          -5.8294    2.5530    0.6033 H       1  UNL1        0.0437
     38 H          -3.8028    2.9331   -0.2548 H       1  UNL1        0.1220
     39 H          -1.7308    2.3672    0.7731 H       1  UNL1        0.0442
     40 H          -2.6047    1.5022    2.0558 H       1  UNL1        0.0442
     41 H          -1.8444    1.4841   -1.5654 H       1  UNL1        0.0299
     42 H          -1.8569   -0.3076   -1.6663 H       1  UNL1        0.0299
     43 H          -0.1399    1.1657    0.4106 H       1  UNL1        0.0465
     44 H           0.4268    0.6458   -1.2153 H       1  UNL1        0.0465
     45 H           2.6650    1.3270   -0.7688 H       1  UNL1        0.0654
     46 H           3.0920    3.5656   -1.6223 H       1  UNL1        0.0620
     47 H           5.4657    4.2744   -2.0728 H       1  UNL1        0.0646
     48 H           6.8220    0.4337   -0.7808 H       1  UNL1        0.0683
     49 H           4.5550   -2.9473    0.6587 H       1  UNL1        0.0692
     50 H          -1.0688   -2.2569    1.3959 H       1  UNL1        0.0465
     51 H          -1.7114   -2.2991   -0.2548 H       1  UNL1        0.0465
     52 H          -3.4093   -1.3897    1.0007 H       1  UNL1        0.0299
     53 H          -2.3547   -0.4252    2.0510 H       1  UNL1        0.0299
@<TRIPOS>BOND
     1     1     2    1
     2     2     3    1
     3     3     4    1
     4     4     5    1
     5     5     6    1
     6     6     7    1
     7     7     8    1
     8     8     9    1
     9     9    10    1
    10    10    11    1
    11    11    12   ar
    12    12    13   ar
    13    13    14    1
    14    14    15    1
    15    15    16   ar
    16    16    17   ar
    17    17    18   ar
    18    18    19   ar
    19    19    20    1
    20    19    21   ar
    21    13    22   ar
    22    22    23   ar
    23    23    24    1
    24    24    25    1
    25    24    26    1
    26    24    27    1
    27    23    28   ar
    28    10    29    1
    29    29    30    1
    30     7     2    1
    31    28    11   ar
    32    30     7    1
    33    21    15   ar
    34     1    31    1
    35     1    32    1
    36     1    33    1
    37     3    34    1
    38     3    35    1
    39     4    36    1
    40     4    37    1
    41     5    38    1
    42     6    39    1
    43     6    40    1
    44     8    41    1
    45     8    42    1
    46     9    43    1
    47     9    44    1
    48    16    45    1
    49    17    46    1
    50    18    47    1
    51    21    48    1
    52    22    49    1
    53    29    50    1
    54    29    51    1
    55    30    52    1
    56    30    53    1
