
     RDKit          3D

 53 56  0  0  0  0  0  0  0  0999 V2000
   -4.3087   -0.5912   -1.2872 C   0  0  0  0  0  0  0  0  0  0  0  0
   -4.0556    0.4602   -0.3682 N   0  0  0  0  0  0  0  0  0  0  0  0
   -5.0524    0.5885    0.6699 C   0  0  0  0  0  0  0  0  0  0  0  0
   -4.9945    2.0478    1.1291 C   0  0  0  0  0  0  0  0  0  0  0  0
   -3.7562    2.6508    0.7470 N   0  0  0  0  0  0  0  0  0  0  0  0
   -2.6122    1.7648    0.9769 C   0  0  0  0  0  0  0  0  0  0  0  0
   -2.7087    0.4886    0.1665 C   0  0  0  0  0  0  0  0  0  0  0  0
   -1.7386    0.5701   -0.9660 C   0  0  0  0  0  0  0  0  0  0  0  0
   -0.3312    0.4538   -0.4191 C   0  0  0  0  0  0  0  0  0  0  0  0
   -0.2051   -0.8667    0.1391 N   0  0  0  0  0  0  0  0  0  0  0  0
    1.0784   -1.4425    0.2869 C   0  0  0  0  0  0  0  0  0  0  0  0
    2.1632   -0.7716   -0.0237 N   0  0  0  0  0  0  0  0  0  0  0  0
    3.3889   -1.2435    0.0856 C   0  0  0  0  0  0  0  0  0  0  0  0
    4.5115   -0.5277   -0.2433 O   0  0  0  0  0  0  0  0  0  0  0  0
    4.6939    0.7184   -0.7126 C   0  0  0  0  0  0  0  0  0  0  0  0
    3.6798    1.6065   -0.9548 C   0  0  0  0  0  0  0  0  0  0  0  0
    3.9245    2.8979   -1.4461 C   0  0  0  0  0  0  0  0  0  0  0  0
    5.2153    3.2972   -1.6961 C   0  0  0  0  0  0  0  0  0  0  0  0
    6.2362    2.4042   -1.4526 C   0  0  0  0  0  0  0  0  0  0  0  0
    7.5133    2.8054   -1.7026 F   0  0  0  0  0  0  0  0  0  0  0  0
    6.0172    1.1395   -0.9732 C   0  0  0  0  0  0  0  0  0  0  0  0
    3.5368   -2.5588    0.5694 C   0  0  0  0  0  0  0  0  0  0  0  0
    2.4249   -3.2790    0.8998 C   0  0  0  0  0  0  0  0  0  0  0  0
    2.6053   -4.6753    1.4124 C   0  0  0  0  0  0  0  0  0  0  0  0
    3.6991   -4.7371    2.2683 F   0  0  0  0  0  0  0  0  0  0  0  0
    2.8846   -5.5541    0.3686 F   0  0  0  0  0  0  0  0  0  0  0  0
    1.5122   -5.1127    2.1083 F   0  0  0  0  0  0  0  0  0  0  0  0
    1.2224   -2.7110    0.7534 N   0  0  0  0  0  0  0  0  0  0  0  0
   -1.3517   -1.5947    0.5454 C   0  0  0  0  0  0  0  0  0  0  0  0
   -2.5039   -0.7460    0.9970 C   0  0  0  0  0  0  0  0  0  0  0  0
   -5.4280   -0.7351   -1.3316 H   0  0  0  0  0  0  0  0  0  0  0  0
   -3.8648   -1.5372   -0.9847 H   0  0  0  0  0  0  0  0  0  0  0  0
   -4.0278   -0.2764   -2.3206 H   0  0  0  0  0  0  0  0  0  0  0  0
   -4.8414   -0.0176    1.5551 H   0  0  0  0  0  0  0  0  0  0  0  0
   -6.0256    0.3113    0.2629 H   0  0  0  0  0  0  0  0  0  0  0  0
   -5.1743    2.1471    2.2146 H   0  0  0  0  0  0  0  0  0  0  0  0
   -5.8294    2.5530    0.6033 H   0  0  0  0  0  0  0  0  0  0  0  0
   -3.8028    2.9331   -0.2548 H   0  0  0  0  0  0  0  0  0  0  0  0
   -1.7308    2.3672    0.7731 H   0  0  0  0  0  0  0  0  0  0  0  0
   -2.6047    1.5022    2.0558 H   0  0  0  0  0  0  0  0  0  0  0  0
   -1.8444    1.4841   -1.5654 H   0  0  0  0  0  0  0  0  0  0  0  0
   -1.8569   -0.3076   -1.6663 H   0  0  0  0  0  0  0  0  0  0  0  0
   -0.1399    1.1657    0.4106 H   0  0  0  0  0  0  0  0  0  0  0  0
    0.4268    0.6458   -1.2153 H   0  0  0  0  0  0  0  0  0  0  0  0
    2.6650    1.3270   -0.7688 H   0  0  0  0  0  0  0  0  0  0  0  0
    3.0920    3.5656   -1.6223 H   0  0  0  0  0  0  0  0  0  0  0  0
    5.4657    4.2744   -2.0728 H   0  0  0  0  0  0  0  0  0  0  0  0
    6.8220    0.4337   -0.7808 H   0  0  0  0  0  0  0  0  0  0  0  0
    4.5550   -2.9473    0.6587 H   0  0  0  0  0  0  0  0  0  0  0  0
   -1.0688   -2.2569    1.3959 H   0  0  0  0  0  0  0  0  0  0  0  0
   -1.7114   -2.2991   -0.2548 H   0  0  0  0  0  0  0  0  0  0  0  0
   -3.4093   -1.3897    1.0007 H   0  0  0  0  0  0  0  0  0  0  0  0
   -2.3547   -0.4252    2.0510 H   0  0  0  0  0  0  0  0  0  0  0  0
  1  2  1  0
  2  3  1  0
  3  4  1  0
  4  5  1  0
  5  6  1  0
  6  7  1  0
  7  8  1  0
  8  9  1  0
  9 10  1  0
 10 11  1  0
 11 12  2  0
 12 13  1  0
 13 14  1  0
 14 15  1  0
 15 16  2  0
 16 17  1  0
 17 18  2  0
 18 19  1  0
 19 20  1  0
 19 21  2  0
 13 22  2  0
 22 23  1  0
 23 24  1  0
 24 25  1  0
 24 26  1  0
 24 27  1  0
 23 28  2  0
 10 29  1  0
 29 30  1  0
  7  2  1  0
 28 11  1  0
 30  7  1  0
 21 15  1  0
  1 31  1  0
  1 32  1  0
  1 33  1  0
  3 34  1  0
  3 35  1  0
  4 36  1  0
  4 37  1  0
  5 38  1  0
  6 39  1  0
  6 40  1  0
  8 41  1  0
  8 42  1  0
  9 43  1  0
  9 44  1  0
 16 45  1  0
 17 46  1  0
 18 47  1  0
 21 48  1  0
 22 49  1  0
 29 50  1  0
 29 51  1  0
 30 52  1  0
 30 53  1  0
M  END
$$$$
