@<TRIPOS>MOLECULE
*****
 47 50 0 0 0
SMALL
GASTEIGER

@<TRIPOS>ATOM
      1 O           9.1351   -1.6083   -2.0955 O.2     1  UNL1        0.0414
      2 N           9.2674   -1.3201   -0.8918 N.pl3   1  UNL1        0.0796
      3 O          10.5299   -1.3459   -0.3577 O.co2   1  UNL1       -0.5760
      4 C           8.1214   -0.9830   -0.1397 C.ar    1  UNL1        0.2743
      5 C           8.1909   -0.6530    1.1960 C.ar    1  UNL1        0.0177
      6 C           7.1020   -0.3188    1.9652 C.ar    1  UNL1       -0.0287
      7 C           5.8328   -0.3008    1.3975 C.ar    1  UNL1        0.0807
      8 N           4.6791   -0.0051    1.9833 N.ar    1  UNL1       -0.2249
      9 C           3.6268    0.0199    1.5530 C.ar    1  UNL1        0.1592
     10 N           2.2755    0.2780    1.8914 N.pl3   1  UNL1       -0.3231
     11 C           1.1918    0.1734    0.9347 C.3     1  UNL1        0.0149
     12 C          -0.1162    0.5112    1.6091 C.3     1  UNL1       -0.0117
     13 C          -1.2204    0.4007    0.6190 C.ar    1  UNL1       -0.0347
     14 C          -1.6412    1.4364   -0.1602 C.ar    1  UNL1        0.0053
     15 C          -2.6863    1.2414   -1.0637 C.ar    1  UNL1        0.1718
     16 N          -3.2838    0.0520   -1.1786 N.ar    1  UNL1       -0.1995
     17 C          -4.3639   -0.1351   -2.1180 C.3     1  UNL1        0.1758
     18 C          -5.6668    0.1587   -1.4898 C.ar    1  UNL1        0.0173
     19 C          -6.3844   -0.8257   -0.8570 C.ar    1  UNL1       -0.0499
     20 C          -7.6152   -0.5265   -0.2690 C.ar    1  UNL1       -0.0260
     21 C          -8.1422    0.7488   -0.3041 C.ar    1  UNL1        0.1234
     22 F          -9.3456    1.0199    0.2763 F       1  UNL1       -0.2055
     23 C          -7.4135    1.7280   -0.9416 C.ar    1  UNL1       -0.0260
     24 C          -6.1927    1.4250   -1.5233 C.ar    1  UNL1       -0.0499
     25 C          -2.8919   -0.9841   -0.4264 C.ar    1  UNL1        0.1718
     26 C          -1.8475   -0.8245    0.4898 C.ar    1  UNL1        0.0053
     27 S           4.0226   -0.4850   -0.2386 S.2     1  UNL1       -0.0522
     28 C           5.7448   -0.6231    0.0829 C.ar    1  UNL1        0.0472
     29 C           6.8519   -0.9608   -0.6911 C.ar    1  UNL1        0.0314
     30 H           9.2096   -0.6761    1.6174 H       1  UNL1        0.0686
     31 H           7.3080   -0.0815    3.0045 H       1  UNL1        0.0641
     32 H           2.0774    0.5488    2.8591 H       1  UNL1        0.1480
     33 H           1.3056    0.8513    0.0785 H       1  UNL1        0.0465
     34 H           1.1906   -0.8664    0.5497 H       1  UNL1        0.0465
     35 H          -0.2633   -0.2697    2.4095 H       1  UNL1        0.0328
     36 H          -0.0681    1.4741    2.1133 H       1  UNL1        0.0328
     37 H          -1.1567    2.3950   -0.0649 H       1  UNL1        0.0679
     38 H          -2.9772    2.1122   -1.6600 H       1  UNL1        0.1376
     39 H          -4.3198   -1.2110   -2.4611 H       1  UNL1        0.1085
     40 H          -4.2124    0.4606   -3.0417 H       1  UNL1        0.1085
     41 H          -6.0373   -1.8299   -0.7928 H       1  UNL1        0.0623
     42 H          -8.2030   -1.2811    0.2364 H       1  UNL1        0.0646
     43 H          -7.8308    2.7229   -0.9657 H       1  UNL1        0.0646
     44 H          -5.6153    2.2090   -2.0304 H       1  UNL1        0.0623
     45 H          -3.3342   -1.9691   -0.4724 H       1  UNL1        0.1376
     46 H          -1.5237   -1.6515    1.1005 H       1  UNL1        0.0679
     47 H           6.6905   -1.2042   -1.7319 H       1  UNL1        0.0697
@<TRIPOS>UNITY_ATOM_ATTR
2 1
charge 1
3 1
charge -1
16 1
charge 1
@<TRIPOS>BOND
     1     1     2    2
     2     2     3    1
     3     2     4    1
     4     4     5   ar
     5     5     6   ar
     6     6     7   ar
     7     7     8   ar
     8     8     9   ar
     9     9    10    1
    10    10    11    1
    11    11    12    1
    12    12    13    1
    13    13    14   ar
    14    14    15   ar
    15    15    16   ar
    16    16    17    1
    17    17    18    1
    18    18    19   ar
    19    19    20   ar
    20    20    21   ar
    21    21    22    1
    22    21    23   ar
    23    23    24   ar
    24    16    25   ar
    25    25    26   ar
    26     9    27   ar
    27    27    28   ar
    28    28    29   ar
    29    29     4   ar
    30    28     7   ar
    31    26    13   ar
    32    24    18   ar
    33     5    30    1
    34     6    31    1
    35    10    32    1
    36    11    33    1
    37    11    34    1
    38    12    35    1
    39    12    36    1
    40    14    37    1
    41    15    38    1
    42    17    39    1
    43    17    40    1
    44    19    41    1
    45    20    42    1
    46    23    43    1
    47    24    44    1
    48    25    45    1
    49    26    46    1
    50    29    47    1
