
     RDKit          3D

 47 50  0  0  0  0  0  0  0  0999 V2000
    9.1351   -1.6083   -2.0955 O   0  0  0  0  0  0  0  0  0  0  0  0
    9.2674   -1.3201   -0.8918 N   0  0  0  0  0  4  0  0  0  0  0  0
   10.5299   -1.3459   -0.3577 O   0  0  0  0  0  1  0  0  0  0  0  0
    8.1214   -0.9830   -0.1397 C   0  0  0  0  0  0  0  0  0  0  0  0
    8.1909   -0.6530    1.1960 C   0  0  0  0  0  0  0  0  0  0  0  0
    7.1020   -0.3188    1.9652 C   0  0  0  0  0  0  0  0  0  0  0  0
    5.8328   -0.3008    1.3975 C   0  0  0  0  0  0  0  0  0  0  0  0
    4.6791   -0.0051    1.9833 N   0  0  0  0  0  0  0  0  0  0  0  0
    3.6268    0.0199    1.5530 C   0  0  0  0  0  0  0  0  0  0  0  0
    2.2755    0.2780    1.8914 N   0  0  0  0  0  0  0  0  0  0  0  0
    1.1918    0.1734    0.9347 C   0  0  0  0  0  0  0  0  0  0  0  0
   -0.1162    0.5112    1.6091 C   0  0  0  0  0  0  0  0  0  0  0  0
   -1.2204    0.4007    0.6190 C   0  0  0  0  0  0  0  0  0  0  0  0
   -1.6412    1.4364   -0.1602 C   0  0  0  0  0  0  0  0  0  0  0  0
   -2.6863    1.2414   -1.0637 C   0  0  0  0  0  0  0  0  0  0  0  0
   -3.2838    0.0520   -1.1786 N   0  0  0  0  0  4  0  0  0  0  0  0
   -4.3639   -0.1351   -2.1180 C   0  0  0  0  0  0  0  0  0  0  0  0
   -5.6668    0.1587   -1.4898 C   0  0  0  0  0  0  0  0  0  0  0  0
   -6.3844   -0.8257   -0.8570 C   0  0  0  0  0  0  0  0  0  0  0  0
   -7.6152   -0.5265   -0.2690 C   0  0  0  0  0  0  0  0  0  0  0  0
   -8.1422    0.7488   -0.3041 C   0  0  0  0  0  0  0  0  0  0  0  0
   -9.3456    1.0199    0.2763 F   0  0  0  0  0  0  0  0  0  0  0  0
   -7.4135    1.7280   -0.9416 C   0  0  0  0  0  0  0  0  0  0  0  0
   -6.1927    1.4250   -1.5233 C   0  0  0  0  0  0  0  0  0  0  0  0
   -2.8919   -0.9841   -0.4264 C   0  0  0  0  0  0  0  0  0  0  0  0
   -1.8475   -0.8245    0.4898 C   0  0  0  0  0  0  0  0  0  0  0  0
    4.0226   -0.4850   -0.2386 S   0  0  0  0  0  0  0  0  0  0  0  0
    5.7448   -0.6231    0.0829 C   0  0  0  0  0  0  0  0  0  0  0  0
    6.8519   -0.9608   -0.6911 C   0  0  0  0  0  0  0  0  0  0  0  0
    9.2096   -0.6761    1.6174 H   0  0  0  0  0  0  0  0  0  0  0  0
    7.3080   -0.0815    3.0045 H   0  0  0  0  0  0  0  0  0  0  0  0
    2.0774    0.5488    2.8591 H   0  0  0  0  0  0  0  0  0  0  0  0
    1.3056    0.8513    0.0785 H   0  0  0  0  0  0  0  0  0  0  0  0
    1.1906   -0.8664    0.5497 H   0  0  0  0  0  0  0  0  0  0  0  0
   -0.2633   -0.2697    2.4095 H   0  0  0  0  0  0  0  0  0  0  0  0
   -0.0681    1.4741    2.1133 H   0  0  0  0  0  0  0  0  0  0  0  0
   -1.1567    2.3950   -0.0649 H   0  0  0  0  0  0  0  0  0  0  0  0
   -2.9772    2.1122   -1.6600 H   0  0  0  0  0  0  0  0  0  0  0  0
   -4.3198   -1.2110   -2.4611 H   0  0  0  0  0  0  0  0  0  0  0  0
   -4.2124    0.4606   -3.0417 H   0  0  0  0  0  0  0  0  0  0  0  0
   -6.0373   -1.8299   -0.7928 H   0  0  0  0  0  0  0  0  0  0  0  0
   -8.2030   -1.2811    0.2364 H   0  0  0  0  0  0  0  0  0  0  0  0
   -7.8308    2.7229   -0.9657 H   0  0  0  0  0  0  0  0  0  0  0  0
   -5.6153    2.2090   -2.0304 H   0  0  0  0  0  0  0  0  0  0  0  0
   -3.3342   -1.9691   -0.4724 H   0  0  0  0  0  0  0  0  0  0  0  0
   -1.5237   -1.6515    1.1005 H   0  0  0  0  0  0  0  0  0  0  0  0
    6.6905   -1.2042   -1.7319 H   0  0  0  0  0  0  0  0  0  0  0  0
  1  2  2  0
  2  3  1  0
  2  4  1  0
  4  5  2  0
  5  6  1  0
  6  7  2  0
  7  8  1  0
  8  9  2  0
  9 10  1  0
 10 11  1  0
 11 12  1  0
 12 13  1  0
 13 14  2  0
 14 15  1  0
 15 16  2  0
 16 17  1  0
 17 18  1  0
 18 19  2  0
 19 20  1  0
 20 21  2  0
 21 22  1  0
 21 23  1  0
 23 24  2  0
 16 25  1  0
 25 26  2  0
  9 27  1  0
 27 28  1  0
 28 29  2  0
 29  4  1  0
 28  7  1  0
 26 13  1  0
 24 18  1  0
  5 30  1  0
  6 31  1  0
 10 32  1  0
 11 33  1  0
 11 34  1  0
 12 35  1  0
 12 36  1  0
 14 37  1  0
 15 38  1  0
 17 39  1  0
 17 40  1  0
 19 41  1  0
 20 42  1  0
 23 43  1  0
 24 44  1  0
 25 45  1  0
 26 46  1  0
 29 47  1  0
M  CHG  3   2   1   3  -1  16   1
M  END
$$$$
