
     RDKit          3D

 44 46  0  0  0  0  0  0  0  0999 V2000
   -3.3444    2.4680    0.1321 C   0  0  0  0  0  0  0  0  0  0  0  0
   -1.9067    2.1678    0.4261 C   0  0  0  0  0  0  0  0  0  0  0  0
   -1.0246    2.1952   -0.7958 C   0  0  0  0  0  0  0  0  0  0  0  0
   -1.3939    1.2027   -1.8429 C   0  0  0  0  0  0  0  0  0  0  0  0
   -1.3432   -0.1684   -1.4561 N   0  0  0  0  0  0  0  0  0  0  0  0
   -0.2650   -0.9580   -1.5931 C   0  0  0  0  0  0  0  0  0  0  0  0
    1.1070   -0.7710   -2.1284 C   0  0  0  0  0  0  0  0  0  0  0  0
    2.0391   -0.4546   -1.0457 C   0  0  0  0  0  0  0  0  0  0  0  0
    2.4648   -1.5638   -0.3178 C   0  0  0  0  0  0  0  0  0  0  0  0
    3.3459   -1.5146    0.7370 C   0  0  0  0  0  0  0  0  0  0  0  0
    3.8603   -0.2988    1.1242 C   0  0  0  0  0  0  0  0  0  0  0  0
    3.4574    0.8194    0.4219 C   0  0  0  0  0  0  0  0  0  0  0  0
    3.8859    2.1104    0.6908 O   0  0  0  0  0  0  0  0  0  0  0  0
    4.8041    2.2742    1.7686 C   0  0  0  0  0  0  0  0  0  0  0  0
    2.5724    0.7359   -0.6313 C   0  0  0  0  0  0  0  0  0  0  0  0
   -0.5677   -2.2038   -1.1196 N   0  0  0  0  0  0  0  0  0  0  0  0
   -1.8337   -2.2189   -0.6799 C   0  0  0  0  0  0  0  0  0  0  0  0
   -2.5714   -3.2443   -0.1243 C   0  0  0  0  0  0  0  0  0  0  0  0
   -1.9639   -4.5222    0.0461 N   0  0  0  0  0  0  0  0  0  0  0  0
   -3.8399   -2.9286    0.2160 N   0  0  0  0  0  0  0  0  0  0  0  0
   -4.3156   -1.6849    0.0106 C   0  0  0  0  0  0  0  0  0  0  0  0
   -3.5658   -0.7261   -0.5293 N   0  0  0  0  0  0  0  0  0  0  0  0
   -2.2927   -0.9533   -0.8973 C   0  0  0  0  0  0  0  0  0  0  0  0
   -3.5708    3.5594    0.1316 H   0  0  0  0  0  0  0  0  0  0  0  0
   -3.7037    2.0535   -0.8296 H   0  0  0  0  0  0  0  0  0  0  0  0
   -4.0099    2.0146    0.9241 H   0  0  0  0  0  0  0  0  0  0  0  0
   -1.8666    1.1754    0.9076 H   0  0  0  0  0  0  0  0  0  0  0  0
   -1.5128    2.9618    1.1082 H   0  0  0  0  0  0  0  0  0  0  0  0
    0.0496    2.1470   -0.5019 H   0  0  0  0  0  0  0  0  0  0  0  0
   -1.1309    3.2472   -1.2029 H   0  0  0  0  0  0  0  0  0  0  0  0
   -0.6592    1.3538   -2.6881 H   0  0  0  0  0  0  0  0  0  0  0  0
   -2.3762    1.5067   -2.2649 H   0  0  0  0  0  0  0  0  0  0  0  0
    1.1038   -0.0013   -2.9378 H   0  0  0  0  0  0  0  0  0  0  0  0
    1.4880   -1.6929   -2.6586 H   0  0  0  0  0  0  0  0  0  0  0  0
    2.1262   -2.5858   -0.5300 H   0  0  0  0  0  0  0  0  0  0  0  0
    3.6703   -2.3644    1.2926 H   0  0  0  0  0  0  0  0  0  0  0  0
    4.5545   -0.1261    1.9297 H   0  0  0  0  0  0  0  0  0  0  0  0
    5.7225    1.6668    1.6107 H   0  0  0  0  0  0  0  0  0  0  0  0
    4.2865    1.9269    2.6660 H   0  0  0  0  0  0  0  0  0  0  0  0
    5.0229    3.3580    1.8283 H   0  0  0  0  0  0  0  0  0  0  0  0
    2.2259    1.5886   -1.2268 H   0  0  0  0  0  0  0  0  0  0  0  0
   -2.1497   -5.4048   -0.4754 H   0  0  0  0  0  0  0  0  0  0  0  0
   -1.2319   -4.5976    0.7909 H   0  0  0  0  0  0  0  0  0  0  0  0
   -5.3468   -1.5495    0.3230 H   0  0  0  0  0  0  0  0  0  0  0  0
  1  2  1  0
  2  3  1  0
  3  4  1  0
  4  5  1  0
  5  6  1  0
  6  7  1  0
  7  8  1  0
  8  9  2  0
  9 10  1  0
 10 11  2  0
 11 12  1  0
 12 13  1  0
 13 14  1  0
 12 15  2  0
  6 16  2  0
 16 17  1  0
 17 18  2  0
 18 19  1  0
 18 20  1  0
 20 21  2  0
 21 22  1  0
 22 23  2  0
 23  5  1  0
 15  8  1  0
 23 17  1  0
  1 24  1  0
  1 25  1  0
  1 26  1  0
  2 27  1  0
  2 28  1  0
  3 29  1  0
  3 30  1  0
  4 31  1  0
  4 32  1  0
  7 33  1  0
  7 34  1  0
  9 35  1  0
 10 36  1  0
 11 37  1  0
 14 38  1  0
 14 39  1  0
 14 40  1  0
 15 41  1  0
 19 42  1  0
 19 43  1  0
 21 44  1  0
M  END
$$$$
