@<TRIPOS>MOLECULE
*****
 44 46 0 0 0
SMALL
GASTEIGER

@<TRIPOS>ATOM
      1 C          -3.3444    2.4680    0.1321 C.3     1  UNL1       -0.0652
      2 C          -1.9067    2.1678    0.4261 C.3     1  UNL1       -0.0543
      3 C          -1.0246    2.1952   -0.7958 C.3     1  UNL1       -0.0351
      4 C          -1.3939    1.2027   -1.8429 C.3     1  UNL1        0.0263
      5 N          -1.3432   -0.1684   -1.4561 N.ar    1  UNL1       -0.3121
      6 C          -0.2650   -0.9580   -1.5931 C.ar    1  UNL1        0.1164
      7 C           1.1070   -0.7710   -2.1284 C.3     1  UNL1        0.0310
      8 C           2.0391   -0.4546   -1.0457 C.ar    1  UNL1       -0.0367
      9 C           2.4648   -1.5638   -0.3178 C.ar    1  UNL1       -0.0579
     10 C           3.3459   -1.5146    0.7370 C.ar    1  UNL1       -0.0580
     11 C           3.8603   -0.2988    1.1242 C.ar    1  UNL1       -0.0199
     12 C           3.4574    0.8194    0.4219 C.ar    1  UNL1        0.1204
     13 O           3.8859    2.1104    0.6908 O.3     1  UNL1       -0.4951
     14 C           4.8041    2.2742    1.7686 C.3     1  UNL1        0.0788
     15 C           2.5724    0.7359   -0.6313 C.ar    1  UNL1       -0.0164
     16 N          -0.5677   -2.2038   -1.1196 N.ar    1  UNL1       -0.2269
     17 C          -1.8337   -2.2189   -0.6799 C.ar    1  UNL1        0.1475
     18 C          -2.5714   -3.2443   -0.1243 C.ar    1  UNL1        0.1472
     19 N          -1.9639   -4.5222    0.0461 N.pl3   1  UNL1       -0.3413
     20 N          -3.8399   -2.9286    0.2160 N.ar    1  UNL1       -0.2188
     21 C          -4.3156   -1.6849    0.0106 C.ar    1  UNL1        0.1205
     22 N          -3.5658   -0.7261   -0.5293 N.ar    1  UNL1       -0.2160
     23 C          -2.2927   -0.9533   -0.8973 C.ar    1  UNL1        0.1655
     24 H          -3.5708    3.5594    0.1316 H       1  UNL1        0.0230
     25 H          -3.7037    2.0535   -0.8296 H       1  UNL1        0.0230
     26 H          -4.0099    2.0146    0.9241 H       1  UNL1        0.0230
     27 H          -1.8666    1.1754    0.9076 H       1  UNL1        0.0263
     28 H          -1.5128    2.9618    1.1082 H       1  UNL1        0.0263
     29 H           0.0496    2.1470   -0.5019 H       1  UNL1        0.0282
     30 H          -1.1309    3.2472   -1.2029 H       1  UNL1        0.0282
     31 H          -0.6592    1.3538   -2.6881 H       1  UNL1        0.0493
     32 H          -2.3762    1.5067   -2.2649 H       1  UNL1        0.0493
     33 H           1.1038   -0.0013   -2.9378 H       1  UNL1        0.0392
     34 H           1.4880   -1.6929   -2.6586 H       1  UNL1        0.0392
     35 H           2.1262   -2.5858   -0.5300 H       1  UNL1        0.0620
     36 H           3.6703   -2.3644    1.2926 H       1  UNL1        0.0619
     37 H           4.5545   -0.1261    1.9297 H       1  UNL1        0.0654
     38 H           5.7225    1.6668    1.6107 H       1  UNL1        0.0660
     39 H           4.2865    1.9269    2.6660 H       1  UNL1        0.0660
     40 H           5.0229    3.3580    1.8283 H       1  UNL1        0.0660
     41 H           2.2259    1.5886   -1.2268 H       1  UNL1        0.0657
     42 H          -2.1497   -5.4048   -0.4754 H       1  UNL1        0.1438
     43 H          -1.2319   -4.5976    0.7909 H       1  UNL1        0.1438
     44 H          -5.3468   -1.5495    0.3230 H       1  UNL1        0.1048
@<TRIPOS>BOND
     1     1     2    1
     2     2     3    1
     3     3     4    1
     4     4     5    1
     5     5     6   ar
     6     6     7    1
     7     7     8    1
     8     8     9   ar
     9     9    10   ar
    10    10    11   ar
    11    11    12   ar
    12    12    13    1
    13    13    14    1
    14    12    15   ar
    15     6    16   ar
    16    16    17   ar
    17    17    18   ar
    18    18    19    1
    19    18    20   ar
    20    20    21   ar
    21    21    22   ar
    22    22    23   ar
    23    23     5   ar
    24    15     8   ar
    25    23    17   ar
    26     1    24    1
    27     1    25    1
    28     1    26    1
    29     2    27    1
    30     2    28    1
    31     3    29    1
    32     3    30    1
    33     4    31    1
    34     4    32    1
    35     7    33    1
    36     7    34    1
    37     9    35    1
    38    10    36    1
    39    11    37    1
    40    14    38    1
    41    14    39    1
    42    14    40    1
    43    15    41    1
    44    19    42    1
    45    19    43    1
    46    21    44    1
