
     RDKit          3D

 68 71  0  0  0  0  0  0  0  0999 V2000
    8.6273   -1.5112    0.9752 C   0  0  0  0  0  0  0  0  0  0  0  0
    7.7918   -0.5387    0.2303 C   0  0  0  0  0  0  0  0  0  0  0  0
    6.4184   -0.4199    0.4701 C   0  0  0  0  0  0  0  0  0  0  0  0
    5.6500    0.4850   -0.2254 C   0  0  0  0  0  0  0  0  0  0  0  0
    4.2232    0.6153    0.0160 C   0  0  0  0  0  0  0  0  0  0  0  0
    3.6449    1.8574   -0.1600 C   0  0  0  0  0  0  0  0  0  0  0  0
    2.3047    2.0180    0.0570 C   0  0  0  0  0  0  0  0  0  0  0  0
    1.4481    0.9870    0.4562 C   0  0  0  0  0  0  0  0  0  0  0  0
    0.0225    1.2734    0.6826 C   0  0  2  0  0  0  0  0  0  0  0  0
   -0.2726    1.0495    2.1751 C   0  0  0  0  0  0  0  0  0  0  0  0
   -0.9153    0.4747   -0.0471 N   0  0  0  0  0  0  0  0  0  0  0  0
   -0.9729   -0.9698   -0.0550 C   0  0  0  0  0  0  0  0  0  0  0  0
   -2.2174   -1.5277   -0.6930 C   0  0  0  0  0  0  0  0  0  0  0  0
   -3.4305   -0.6548   -0.4335 C   0  0  2  0  0  0  0  0  0  0  0  0
   -3.7037   -0.6617    1.0414 C   0  0  0  0  0  0  0  0  0  0  0  0
   -4.8523    0.1731    1.4886 C   0  0  0  0  0  0  0  0  0  0  0  0
   -4.6595    1.6429    1.1342 C   0  0  0  0  0  0  0  0  0  0  0  0
   -5.0228    0.0895    2.9920 C   0  0  0  0  0  0  0  0  0  0  0  0
   -6.0214   -0.2418    0.9107 O   0  0  0  0  0  0  0  0  0  0  0  0
   -4.5876   -1.2560   -1.1514 C   0  0  0  0  0  0  0  0  0  0  0  0
   -4.9787   -0.7784   -2.4019 C   0  0  0  0  0  0  0  0  0  0  0  0
   -6.0304   -1.3332   -3.1003 C   0  0  0  0  0  0  0  0  0  0  0  0
   -6.7123   -2.3848   -2.5509 C   0  0  0  0  0  0  0  0  0  0  0  0
   -6.3431   -2.8657   -1.3267 C   0  0  0  0  0  0  0  0  0  0  0  0
   -5.2744   -2.2977   -0.6233 C   0  0  0  0  0  0  0  0  0  0  0  0
   -3.2037    0.6702   -0.8921 O   0  0  0  0  0  0  0  0  0  0  0  0
   -1.9059    1.1465   -0.8556 C   0  0  0  0  0  0  0  0  0  0  0  0
   -1.5319    2.1632   -1.5073 O   0  0  0  0  0  0  0  0  0  0  0  0
    2.0601   -0.2310    0.6208 C   0  0  0  0  0  0  0  0  0  0  0  0
    3.4249   -0.4269    0.4070 C   0  0  0  0  0  0  0  0  0  0  0  0
    6.2658    1.2744   -1.1669 C   0  0  0  0  0  0  0  0  0  0  0  0
    7.6386    1.1692   -1.4201 C   0  0  0  0  0  0  0  0  0  0  0  0
    8.2854    2.0320   -2.4420 C   0  0  0  0  0  0  0  0  0  0  0  0
    8.3244    0.2678   -0.7065 N   0  0  0  0  0  0  0  0  0  0  0  0
    9.1759   -2.1923    0.2869 H   0  0  0  0  0  0  0  0  0  0  0  0
    9.4173   -0.9994    1.5940 H   0  0  0  0  0  0  0  0  0  0  0  0
    7.9954   -2.0554    1.6962 H   0  0  0  0  0  0  0  0  0  0  0  0
    5.9559   -1.0556    1.2196 H   0  0  0  0  0  0  0  0  0  0  0  0
    4.2912    2.6932   -0.4735 H   0  0  0  0  0  0  0  0  0  0  0  0
    1.8744    2.9966   -0.0866 H   0  0  0  0  0  0  0  0  0  0  0  0
   -0.1303    2.3639    0.5408 H   0  0  0  0  0  0  0  0  0  0  0  0
   -0.1530   -0.0222    2.4277 H   0  0  0  0  0  0  0  0  0  0  0  0
    0.5224    1.6091    2.7167 H   0  0  0  0  0  0  0  0  0  0  0  0
   -1.2462    1.4741    2.4355 H   0  0  0  0  0  0  0  0  0  0  0  0
   -0.1293   -1.3275   -0.7168 H   0  0  0  0  0  0  0  0  0  0  0  0
   -0.8214   -1.4253    0.9380 H   0  0  0  0  0  0  0  0  0  0  0  0
   -2.0914   -1.5823   -1.7867 H   0  0  0  0  0  0  0  0  0  0  0  0
   -2.4020   -2.5351   -0.2945 H   0  0  0  0  0  0  0  0  0  0  0  0
   -2.7914   -0.2287    1.5631 H   0  0  0  0  0  0  0  0  0  0  0  0
   -3.7420   -1.7028    1.4207 H   0  0  0  0  0  0  0  0  0  0  0  0
   -4.9574    1.8540    0.1034 H   0  0  0  0  0  0  0  0  0  0  0  0
   -3.6357    1.9917    1.3170 H   0  0  0  0  0  0  0  0  0  0  0  0
   -5.3446    2.2324    1.7925 H   0  0  0  0  0  0  0  0  0  0  0  0
   -5.2949    1.0936    3.4076 H   0  0  0  0  0  0  0  0  0  0  0  0
   -4.0829   -0.2155    3.4832 H   0  0  0  0  0  0  0  0  0  0  0  0
   -5.7916   -0.6322    3.2744 H   0  0  0  0  0  0  0  0  0  0  0  0
   -6.2949    0.3200    0.1442 H   0  0  0  0  0  0  0  0  0  0  0  0
   -4.4273    0.0548   -2.8215 H   0  0  0  0  0  0  0  0  0  0  0  0
   -6.3015   -0.9325   -4.0686 H   0  0  0  0  0  0  0  0  0  0  0  0
   -7.5550   -2.8510   -3.0789 H   0  0  0  0  0  0  0  0  0  0  0  0
   -6.9013   -3.7084   -0.9029 H   0  0  0  0  0  0  0  0  0  0  0  0
   -5.0725   -2.7578    0.3303 H   0  0  0  0  0  0  0  0  0  0  0  0
    1.5049   -1.0902    0.9375 H   0  0  0  0  0  0  0  0  0  0  0  0
    3.8590   -1.4018    0.5488 H   0  0  0  0  0  0  0  0  0  0  0  0
    5.7213    1.9980   -1.7422 H   0  0  0  0  0  0  0  0  0  0  0  0
    9.2558    1.5603   -2.7036 H   0  0  0  0  0  0  0  0  0  0  0  0
    8.4459    3.0749   -2.0436 H   0  0  0  0  0  0  0  0  0  0  0  0
    7.6534    2.1095   -3.3570 H   0  0  0  0  0  0  0  0  0  0  0  0
  1  2  1  0
  2  3  2  0
  3  4  1  0
  4  5  1  0
  5  6  2  0
  6  7  1  0
  7  8  2  0
  8  9  1  0
  9 10  1  0
  9 11  1  0
 11 12  1  0
 12 13  1  0
 13 14  1  0
 14 15  1  1
 15 16  1  0
 16 17  1  0
 16 18  1  0
 16 19  1  0
 14 20  1  0
 20 21  2  0
 21 22  1  0
 22 23  2  0
 23 24  1  0
 24 25  2  0
 14 26  1  0
 26 27  1  0
 27 28  2  0
  8 29  1  0
 29 30  2  0
  4 31  2  0
 31 32  1  0
 32 33  1  0
 32 34  2  0
 34  2  1  0
 30  5  1  0
 27 11  1  0
 25 20  1  0
  1 35  1  0
  1 36  1  0
  1 37  1  0
  3 38  1  0
  6 39  1  0
  7 40  1  0
  9 41  1  6
 10 42  1  0
 10 43  1  0
 10 44  1  0
 12 45  1  0
 12 46  1  0
 13 47  1  0
 13 48  1  0
 15 49  1  0
 15 50  1  0
 17 51  1  0
 17 52  1  0
 17 53  1  0
 18 54  1  0
 18 55  1  0
 18 56  1  0
 19 57  1  0
 21 58  1  0
 22 59  1  0
 23 60  1  0
 24 61  1  0
 25 62  1  0
 29 63  1  0
 30 64  1  0
 31 65  1  0
 33 66  1  0
 33 67  1  0
 33 68  1  0
M  END
$$$$
