@<TRIPOS>MOLECULE
*****
 68 71 0 0 0
SMALL
GASTEIGER

@<TRIPOS>ATOM
      1 C           8.6273   -1.5112    0.9752 C.3     1  UNL1       -0.0223
      2 C           7.7918   -0.5387    0.2303 C.ar    1  UNL1        0.0391
      3 C           6.4184   -0.4199    0.4701 C.ar    1  UNL1       -0.0329
      4 C           5.6500    0.4850   -0.2254 C.ar    1  UNL1       -0.0145
      5 C           4.2232    0.6153    0.0160 C.ar    1  UNL1       -0.0178
      6 C           3.6449    1.8574   -0.1600 C.ar    1  UNL1       -0.0537
      7 C           2.3047    2.0180    0.0570 C.ar    1  UNL1       -0.0562
      8 C           1.4481    0.9870    0.4562 C.ar    1  UNL1       -0.0271
      9 C           0.0225    1.2734    0.6826 C.3     1  UNL1        0.0515
     10 C          -0.2726    1.0495    2.1751 C.3     1  UNL1       -0.0421
     11 N          -0.9153    0.4747   -0.0471 N.am    1  UNL1       -0.2605
     12 C          -0.9729   -0.9698   -0.0550 C.3     1  UNL1        0.0224
     13 C          -2.2174   -1.5277   -0.6930 C.3     1  UNL1        0.0076
     14 C          -3.4305   -0.6548   -0.4335 C.3     1  UNL1        0.1440
     15 C          -3.7037   -0.6617    1.0414 C.3     1  UNL1        0.0199
     16 C          -4.8523    0.1731    1.4886 C.3     1  UNL1        0.0645
     17 C          -4.6595    1.6429    1.1342 C.3     1  UNL1       -0.0362
     18 C          -5.0228    0.0895    2.9920 C.3     1  UNL1       -0.0362
     19 O          -6.0214   -0.2418    0.9107 O.3     1  UNL1       -0.3890
     20 C          -4.5876   -1.2560   -1.1514 C.ar    1  UNL1       -0.0040
     21 C          -4.9787   -0.7784   -2.4019 C.ar    1  UNL1       -0.0548
     22 C          -6.0304   -1.3332   -3.1003 C.ar    1  UNL1       -0.0614
     23 C          -6.7123   -2.3848   -2.5509 C.ar    1  UNL1       -0.0617
     24 C          -6.3431   -2.8657   -1.3267 C.ar    1  UNL1       -0.0614
     25 C          -5.2744   -2.2977   -0.6233 C.ar    1  UNL1       -0.0548
     26 O          -3.2037    0.6702   -0.8921 O.3     1  UNL1       -0.4387
     27 C          -1.9059    1.1465   -0.8556 C.2     1  UNL1        0.4042
     28 O          -1.5319    2.1632   -1.5073 O.2     1  UNL1       -0.2262
     29 C           2.0601   -0.2310    0.6208 C.ar    1  UNL1       -0.0562
     30 C           3.4249   -0.4269    0.4070 C.ar    1  UNL1       -0.0537
     31 C           6.2658    1.2744   -1.1669 C.ar    1  UNL1       -0.0329
     32 C           7.6386    1.1692   -1.4201 C.ar    1  UNL1        0.0391
     33 C           8.2854    2.0320   -2.4420 C.3     1  UNL1       -0.0223
     34 N           8.3244    0.2678   -0.7065 N.ar    1  UNL1       -0.2570
     35 H           9.1759   -2.1923    0.2869 H       1  UNL1        0.0292
     36 H           9.4173   -0.9994    1.5940 H       1  UNL1        0.0292
     37 H           7.9954   -2.0554    1.6962 H       1  UNL1        0.0292
     38 H           5.9559   -1.0556    1.2196 H       1  UNL1        0.0641
     39 H           4.2912    2.6932   -0.4735 H       1  UNL1        0.0624
     40 H           1.8744    2.9966   -0.0866 H       1  UNL1        0.0621
     41 H          -0.1303    2.3639    0.5408 H       1  UNL1        0.0549
     42 H          -0.1530   -0.0222    2.4277 H       1  UNL1        0.0251
     43 H           0.5224    1.6091    2.7167 H       1  UNL1        0.0251
     44 H          -1.2462    1.4741    2.4355 H       1  UNL1        0.0251
     45 H          -0.1293   -1.3275   -0.7168 H       1  UNL1        0.0467
     46 H          -0.8214   -1.4253    0.9380 H       1  UNL1        0.0467
     47 H          -2.0914   -1.5823   -1.7867 H       1  UNL1        0.0322
     48 H          -2.4020   -2.5351   -0.2945 H       1  UNL1        0.0322
     49 H          -2.7914   -0.2287    1.5631 H       1  UNL1        0.0335
     50 H          -3.7420   -1.7028    1.4207 H       1  UNL1        0.0335
     51 H          -4.9574    1.8540    0.1034 H       1  UNL1        0.0257
     52 H          -3.6357    1.9917    1.3170 H       1  UNL1        0.0257
     53 H          -5.3446    2.2324    1.7925 H       1  UNL1        0.0257
     54 H          -5.2949    1.0936    3.4076 H       1  UNL1        0.0257
     55 H          -4.0829   -0.2155    3.4832 H       1  UNL1        0.0257
     56 H          -5.7916   -0.6322    3.2744 H       1  UNL1        0.0257
     57 H          -6.2949    0.3200    0.1442 H       1  UNL1        0.2101
     58 H          -4.4273    0.0548   -2.8215 H       1  UNL1        0.0622
     59 H          -6.3015   -0.9325   -4.0686 H       1  UNL1        0.0618
     60 H          -7.5550   -2.8510   -3.0789 H       1  UNL1        0.0618
     61 H          -6.9013   -3.7084   -0.9029 H       1  UNL1        0.0618
     62 H          -5.0725   -2.7578    0.3303 H       1  UNL1        0.0622
     63 H           1.5049   -1.0902    0.9375 H       1  UNL1        0.0621
     64 H           3.8590   -1.4018    0.5488 H       1  UNL1        0.0624
     65 H           5.7213    1.9980   -1.7422 H       1  UNL1        0.0641
     66 H           9.2558    1.5603   -2.7036 H       1  UNL1        0.0292
     67 H           8.4459    3.0749   -2.0436 H       1  UNL1        0.0292
     68 H           7.6534    2.1095   -3.3570 H       1  UNL1        0.0292
@<TRIPOS>BOND
     1     1     2    1
     2     2     3   ar
     3     3     4   ar
     4     4     5    1
     5     5     6   ar
     6     6     7   ar
     7     7     8   ar
     8     8     9    1
     9     9    10    1
    10     9    11    1
    11    11    12    1
    12    12    13    1
    13    13    14    1
    14    14    15    1
    15    15    16    1
    16    16    17    1
    17    16    18    1
    18    16    19    1
    19    14    20    1
    20    20    21   ar
    21    21    22   ar
    22    22    23   ar
    23    23    24   ar
    24    24    25   ar
    25    14    26    1
    26    26    27    1
    27    27    28    2
    28     8    29   ar
    29    29    30   ar
    30     4    31   ar
    31    31    32   ar
    32    32    33    1
    33    32    34   ar
    34    34     2   ar
    35    30     5   ar
    36    27    11   am
    37    25    20   ar
    38     1    35    1
    39     1    36    1
    40     1    37    1
    41     3    38    1
    42     6    39    1
    43     7    40    1
    44     9    41    1
    45    10    42    1
    46    10    43    1
    47    10    44    1
    48    12    45    1
    49    12    46    1
    50    13    47    1
    51    13    48    1
    52    15    49    1
    53    15    50    1
    54    17    51    1
    55    17    52    1
    56    17    53    1
    57    18    54    1
    58    18    55    1
    59    18    56    1
    60    19    57    1
    61    21    58    1
    62    22    59    1
    63    23    60    1
    64    24    61    1
    65    25    62    1
    66    29    63    1
    67    30    64    1
    68    31    65    1
    69    33    66    1
    70    33    67    1
    71    33    68    1
