
     RDKit          3D

 50 53  0  0  0  0  0  0  0  0999 V2000
    2.2624   -0.3115    1.3599 C   0  0  0  0  0  0  0  0  0  0  0  0
    1.8458    0.5156    0.2699 N   0  0  0  0  0  0  0  0  0  0  0  0
    0.4426    0.6094    0.1541 C   0  0  2  0  0  0  0  0  0  0  0  0
   -0.1496    1.9510    0.4558 C   0  0  0  0  0  0  0  0  0  0  0  0
   -1.5784    1.9636    0.0033 C   0  0  0  0  0  0  0  0  0  0  0  0
   -2.2156    0.6384    0.0335 C   0  0  0  0  0  0  0  0  0  0  0  0
   -3.4590    0.2600   -0.4194 C   0  0  0  0  0  0  0  0  0  0  0  0
   -4.4752    1.1114   -1.0591 C   0  0  0  0  0  0  0  0  0  0  0  0
   -5.1384    1.9404   -0.0236 C   0  0  0  0  0  0  0  0  0  0  0  0
   -4.7969    1.8403    1.1809 O   0  0  0  0  0  0  0  0  0  0  0  0
   -6.1428    2.8416   -0.3405 O   0  0  0  0  0  0  0  0  0  0  0  0
   -3.5792   -1.0893   -0.1587 C   0  0  0  0  0  0  0  0  0  0  0  0
   -4.5813   -2.0181   -0.3790 C   0  0  0  0  0  0  0  0  0  0  0  0
   -4.4471   -3.3443   -0.0128 C   0  0  0  0  0  0  0  0  0  0  0  0
   -3.2891   -3.7827    0.5926 C   0  0  0  0  0  0  0  0  0  0  0  0
   -2.3016   -2.8335    0.8018 C   0  0  0  0  0  0  0  0  0  0  0  0
   -2.4580   -1.5496    0.4357 N   0  0  0  0  0  0  0  0  0  0  0  0
   -1.6432   -0.5051    0.5475 C   0  0  0  0  0  0  0  0  0  0  0  0
   -0.2568   -0.3402    1.1115 C   0  0  0  0  0  0  0  0  0  0  0  0
    2.6636   -0.0185   -1.1252 S   0  0  0  0  0  6  0  0  0  0  0  0
    2.2182    0.6775   -2.3757 O   0  0  0  0  0  0  0  0  0  0  0  0
    2.4500   -1.4944   -1.3913 O   0  0  0  0  0  0  0  0  0  0  0  0
    4.3785    0.1823   -0.8506 C   0  0  0  0  0  0  0  0  0  0  0  0
    5.0736   -0.8553   -0.2757 C   0  0  0  0  0  0  0  0  0  0  0  0
    6.4400   -0.7819   -0.0217 C   0  0  0  0  0  0  0  0  0  0  0  0
    7.1034    0.3777   -0.3644 C   0  0  0  0  0  0  0  0  0  0  0  0
    8.4274    0.4978   -0.1383 F   0  0  0  0  0  0  0  0  0  0  0  0
    6.4122    1.4273   -0.9435 C   0  0  0  0  0  0  0  0  0  0  0  0
    5.0576    1.3320   -1.1860 C   0  0  0  0  0  0  0  0  0  0  0  0
    3.3510   -0.0640    1.5395 H   0  0  0  0  0  0  0  0  0  0  0  0
    1.7592   -0.0924    2.3172 H   0  0  0  0  0  0  0  0  0  0  0  0
    2.2433   -1.3750    1.0731 H   0  0  0  0  0  0  0  0  0  0  0  0
    0.1361    0.2977   -0.8840 H   0  0  0  0  0  0  0  0  0  0  0  0
   -0.1767    2.0603    1.5783 H   0  0  0  0  0  0  0  0  0  0  0  0
    0.3977    2.8020    0.0763 H   0  0  0  0  0  0  0  0  0  0  0  0
   -2.2098    2.6620    0.6134 H   0  0  0  0  0  0  0  0  0  0  0  0
   -1.6844    2.3542   -1.0492 H   0  0  0  0  0  0  0  0  0  0  0  0
   -3.9936    1.8074   -1.7905 H   0  0  0  0  0  0  0  0  0  0  0  0
   -5.2326    0.5061   -1.5938 H   0  0  0  0  0  0  0  0  0  0  0  0
   -6.3441    3.6522    0.2256 H   0  0  0  0  0  0  0  0  0  0  0  0
   -5.5006   -1.7033   -0.8514 H   0  0  0  0  0  0  0  0  0  0  0  0
   -5.2320   -4.0856   -0.1818 H   0  0  0  0  0  0  0  0  0  0  0  0
   -3.1719   -4.8207    0.8836 H   0  0  0  0  0  0  0  0  0  0  0  0
   -1.3804   -3.1710    1.2815 H   0  0  0  0  0  0  0  0  0  0  0  0
    0.2096   -1.3101    1.1982 H   0  0  0  0  0  0  0  0  0  0  0  0
   -0.3971    0.1476    2.1015 H   0  0  0  0  0  0  0  0  0  0  0  0
    4.6002   -1.8008    0.0179 H   0  0  0  0  0  0  0  0  0  0  0  0
    6.9905   -1.5915    0.4287 H   0  0  0  0  0  0  0  0  0  0  0  0
    6.8898    2.3539   -1.2288 H   0  0  0  0  0  0  0  0  0  0  0  0
    4.4827    2.1293   -1.6363 H   0  0  0  0  0  0  0  0  0  0  0  0
  1  2  1  0
  2  3  1  0
  3  4  1  0
  4  5  1  0
  5  6  1  0
  6  7  1  0
  7  8  1  0
  8  9  1  0
  9 10  2  0
  9 11  1  0
  7 12  2  0
 12 13  1  0
 13 14  2  0
 14 15  1  0
 15 16  2  0
 16 17  1  0
 17 18  1  0
 18 19  1  0
  2 20  1  0
 20 21  2  0
 20 22  2  0
 20 23  1  0
 23 24  2  0
 24 25  1  0
 25 26  2  0
 26 27  1  0
 26 28  1  0
 28 29  2  0
 19  3  1  0
 29 23  1  0
 18  6  2  0
 17 12  1  0
  1 30  1  0
  1 31  1  0
  1 32  1  0
  3 33  1  6
  4 34  1  0
  4 35  1  0
  5 36  1  0
  5 37  1  0
  8 38  1  0
  8 39  1  0
 11 40  1  0
 13 41  1  0
 14 42  1  0
 15 43  1  0
 16 44  1  0
 19 45  1  0
 19 46  1  0
 24 47  1  0
 25 48  1  0
 28 49  1  0
 29 50  1  0
M  END
$$$$
