@<TRIPOS>MOLECULE
*****
 50 53 0 0 0
SMALL
GASTEIGER

@<TRIPOS>ATOM
      1 C           2.2624   -0.3115    1.3599 C.3     1  UNL1        0.0093
      2 N           1.8458    0.5156    0.2699 N.3     1  UNL1       -0.1762
      3 C           0.4426    0.6094    0.1541 C.3     1  UNL1        0.0372
      4 C          -0.1496    1.9510    0.4558 C.3     1  UNL1       -0.0313
      5 C          -1.5784    1.9636    0.0033 C.3     1  UNL1       -0.0242
      6 C          -2.2156    0.6384    0.0335 C.ar    1  UNL1       -0.0219
      7 C          -3.4590    0.2600   -0.4194 C.ar    1  UNL1       -0.0081
      8 C          -4.4752    1.1114   -1.0591 C.3     1  UNL1        0.0721
      9 C          -5.1384    1.9404   -0.0236 C.2     1  UNL1        0.3091
     10 O          -4.7969    1.8403    1.1809 O.2     1  UNL1       -0.2507
     11 O          -6.1428    2.8416   -0.3405 O.3     1  UNL1       -0.4804
     12 C          -3.5792   -1.0893   -0.1587 C.ar    1  UNL1        0.0503
     13 C          -4.5813   -2.0181   -0.3790 C.ar    1  UNL1       -0.0375
     14 C          -4.4471   -3.3443   -0.0128 C.ar    1  UNL1       -0.0584
     15 C          -3.2891   -3.7827    0.5926 C.ar    1  UNL1       -0.0451
     16 C          -2.3016   -2.8335    0.8018 C.ar    1  UNL1        0.0100
     17 N          -2.4580   -1.5496    0.4357 N.ar    1  UNL1       -0.3195
     18 C          -1.6432   -0.5051    0.5475 C.ar    1  UNL1        0.0287
     19 C          -0.2568   -0.3402    1.1115 C.3     1  UNL1        0.0056
     20 S           2.6636   -0.0185   -1.1252 S.O2    1  UNL1        0.0609
     21 O           2.2182    0.6775   -2.3757 O.2     1  UNL1       -0.1528
     22 O           2.4500   -1.4944   -1.3913 O.2     1  UNL1       -0.1528
     23 C           4.3785    0.1823   -0.8506 C.ar    1  UNL1        0.1056
     24 C           5.0736   -0.8553   -0.2757 C.ar    1  UNL1       -0.0326
     25 C           6.4400   -0.7819   -0.0217 C.ar    1  UNL1       -0.0246
     26 C           7.1034    0.3777   -0.3644 C.ar    1  UNL1        0.1235
     27 F           8.4274    0.4978   -0.1383 F       1  UNL1       -0.2055
     28 C           6.4122    1.4273   -0.9435 C.ar    1  UNL1       -0.0246
     29 C           5.0576    1.3320   -1.1860 C.ar    1  UNL1       -0.0326
     30 H           3.3510   -0.0640    1.5395 H       1  UNL1        0.0408
     31 H           1.7592   -0.0924    2.3172 H       1  UNL1        0.0408
     32 H           2.2433   -1.3750    1.0731 H       1  UNL1        0.0408
     33 H           0.1361    0.2977   -0.8840 H       1  UNL1        0.0483
     34 H          -0.1767    2.0603    1.5783 H       1  UNL1        0.0284
     35 H           0.3977    2.8020    0.0763 H       1  UNL1        0.0284
     36 H          -2.2098    2.6620    0.6134 H       1  UNL1        0.0314
     37 H          -1.6844    2.3542   -1.0492 H       1  UNL1        0.0314
     38 H          -3.9936    1.8074   -1.7905 H       1  UNL1        0.0427
     39 H          -5.2326    0.5061   -1.5938 H       1  UNL1        0.0427
     40 H          -6.3441    3.6522    0.2256 H       1  UNL1        0.2951
     41 H          -5.5006   -1.7033   -0.8514 H       1  UNL1        0.0638
     42 H          -5.2320   -4.0856   -0.1818 H       1  UNL1        0.0619
     43 H          -3.1719   -4.8207    0.8836 H       1  UNL1        0.0632
     44 H          -1.3804   -3.1710    1.2815 H       1  UNL1        0.0813
     45 H           0.2096   -1.3101    1.1982 H       1  UNL1        0.0343
     46 H          -0.3971    0.1476    2.1015 H       1  UNL1        0.0343
     47 H           4.6002   -1.8008    0.0179 H       1  UNL1        0.0638
     48 H           6.9905   -1.5915    0.4287 H       1  UNL1        0.0647
     49 H           6.8898    2.3539   -1.2288 H       1  UNL1        0.0647
     50 H           4.4827    2.1293   -1.6363 H       1  UNL1        0.0638
@<TRIPOS>BOND
     1     1     2    1
     2     2     3    1
     3     3     4    1
     4     4     5    1
     5     5     6    1
     6     6     7   ar
     7     7     8    1
     8     8     9    1
     9     9    10    2
    10     9    11    1
    11     7    12   ar
    12    12    13   ar
    13    13    14   ar
    14    14    15   ar
    15    15    16   ar
    16    16    17   ar
    17    17    18   ar
    18    18    19    1
    19     2    20    1
    20    20    21    2
    21    20    22    2
    22    20    23    1
    23    23    24   ar
    24    24    25   ar
    25    25    26   ar
    26    26    27    1
    27    26    28   ar
    28    28    29   ar
    29    19     3    1
    30    29    23   ar
    31    18     6   ar
    32    17    12   ar
    33     1    30    1
    34     1    31    1
    35     1    32    1
    36     3    33    1
    37     4    34    1
    38     4    35    1
    39     5    36    1
    40     5    37    1
    41     8    38    1
    42     8    39    1
    43    11    40    1
    44    13    41    1
    45    14    42    1
    46    15    43    1
    47    16    44    1
    48    19    45    1
    49    19    46    1
    50    24    47    1
    51    25    48    1
    52    28    49    1
    53    29    50    1
