
     RDKit          3D

 15 14  0  0  0  0  0  0  0  0999 V2000
    0.4583   -1.1170   -0.6261 C   0  0  0  0  0  0  0  0  0  0  0  0
    0.0788    0.0183    0.3146 C   0  0  0  0  0  0  0  0  0  0  0  0
   -1.3795    0.3124    0.0178 C   0  0  0  0  0  0  0  0  0  0  0  0
    0.9824    1.1785    0.0174 C   0  0  0  0  0  0  0  0  0  0  0  0
    0.1442   -0.4045    1.6384 O   0  0  0  0  0  0  0  0  0  0  0  0
   -0.1479   -1.0887   -1.5660 H   0  0  0  0  0  0  0  0  0  0  0  0
    0.2003   -2.0691   -0.1371 H   0  0  0  0  0  0  0  0  0  0  0  0
    1.5180   -1.0529   -0.9448 H   0  0  0  0  0  0  0  0  0  0  0  0
   -1.4439    0.6216   -1.0396 H   0  0  0  0  0  0  0  0  0  0  0  0
   -1.8916   -0.6814    0.0817 H   0  0  0  0  0  0  0  0  0  0  0  0
   -1.8307    1.0210    0.7259 H   0  0  0  0  0  0  0  0  0  0  0  0
    0.4392    2.0339   -0.4054 H   0  0  0  0  0  0  0  0  0  0  0  0
    1.5325    1.5098    0.9347 H   0  0  0  0  0  0  0  0  0  0  0  0
    1.7972    0.9198   -0.7061 H   0  0  0  0  0  0  0  0  0  0  0  0
   -0.4571   -1.2017    1.6946 H   0  0  0  0  0  0  0  0  0  0  0  0
  1  2  1  0
  2  3  1  0
  2  4  1  0
  2  5  1  0
  1  6  1  0
  1  7  1  0
  1  8  1  0
  3  9  1  0
  3 10  1  0
  3 11  1  0
  4 12  1  0
  4 13  1  0
  4 14  1  0
  5 15  1  0
M  END
$$$$
