
     RDKit          3D

 88 89  0  0  0  0  0  0  0  0999 V2000
   11.5857   -0.3952    2.3374 C   0  0  0  0  0  0  0  0  0  0  0  0
   11.0819   -0.7285    0.9531 C   0  0  0  0  0  0  0  0  0  0  0  0
    9.7942   -0.1242    0.8187 O   0  0  0  0  0  0  0  0  0  0  0  0
    9.0430   -0.2368   -0.3220 C   0  0  0  0  0  0  0  0  0  0  0  0
    9.4943   -0.8951   -1.2861 O   0  0  0  0  0  0  0  0  0  0  0  0
    7.7424    0.3889   -0.4349 C   0  0  0  0  0  0  0  0  0  0  0  0
    7.0256    0.2635   -1.5368 C   0  0  0  0  0  0  0  0  0  0  0  0
    5.7084    0.8314   -1.7989 C   0  0  2  0  0  0  0  0  0  0  0  0
    5.8699    2.1546   -2.5432 C   0  0  0  0  0  0  0  0  0  0  0  0
    6.5675    1.9302   -3.8333 C   0  0  0  0  0  0  0  0  0  0  0  0
    7.7046    1.3514   -3.8637 O   0  0  0  0  0  0  0  0  0  0  0  0
    6.0138    2.3330   -5.0395 O   0  0  0  0  0  0  0  0  0  0  0  0
    4.8723    1.0044   -0.6266 N   0  0  0  0  0  0  0  0  0  0  0  0
    3.5839    0.4134   -0.5543 C   0  0  0  0  0  0  0  0  0  0  0  0
    3.2308   -0.2675   -1.5748 O   0  0  0  0  0  0  0  0  0  0  0  0
    2.6828    0.5622    0.6176 C   0  0  1  0  0  0  0  0  0  0  0  0
    1.4170   -0.1424    0.3970 N   0  0  0  0  0  0  0  0  0  0  0  0
    0.1766    0.5443    0.2871 C   0  0  0  0  0  0  0  0  0  0  0  0
    0.1933    1.7957    0.3852 O   0  0  0  0  0  0  0  0  0  0  0  0
   -1.0521   -0.1827    0.0690 C   0  0  1  0  0  0  0  0  0  0  0  0
   -2.2330    0.5955   -0.1090 N   0  0  0  0  0  0  0  0  0  0  0  0
   -3.5006    0.3803    0.4724 C   0  0  0  0  0  0  0  0  0  0  0  0
   -3.5618   -0.6418    1.2400 O   0  0  0  0  0  0  0  0  0  0  0  0
   -4.7035    1.1905    0.2787 C   0  0  2  0  0  0  0  0  0  0  0  0
   -4.5127    2.5840    0.8454 C   0  0  0  0  0  0  0  0  0  0  0  0
   -3.4077    3.3371    0.2156 C   0  0  0  0  0  0  0  0  0  0  0  0
   -3.5430    3.7355   -0.9840 O   0  0  0  0  0  0  0  0  0  0  0  0
   -2.2221    3.6322    0.8801 O   0  0  0  0  0  0  0  0  0  0  0  0
   -5.8719    0.6139    0.9342 N   0  0  0  0  0  0  0  0  0  0  0  0
   -7.0926    0.3884    0.2568 C   0  0  0  0  0  0  0  0  0  0  0  0
   -7.1771    0.6937   -0.9562 O   0  0  0  0  0  0  0  0  0  0  0  0
   -8.2327   -0.1536    0.8309 O   0  0  0  0  0  0  0  0  0  0  0  0
   -9.4272   -0.3411    0.0547 C   0  0  0  0  0  0  0  0  0  0  0  0
  -10.5166   -0.9196    0.8338 C   0  0  0  0  0  0  0  0  0  0  0  0
  -10.6587   -2.2894    0.9094 C   0  0  0  0  0  0  0  0  0  0  0  0
  -11.7008   -2.8595    1.6459 C   0  0  0  0  0  0  0  0  0  0  0  0
  -12.5974   -2.0343    2.3059 C   0  0  0  0  0  0  0  0  0  0  0  0
  -12.4671   -0.6687    2.2394 C   0  0  0  0  0  0  0  0  0  0  0  0
  -11.4306   -0.1348    1.5057 C   0  0  0  0  0  0  0  0  0  0  0  0
   -0.9312   -1.0630   -1.1482 C   0  0  0  0  0  0  0  0  0  0  0  0
   -1.1503   -0.4969   -2.3795 C   0  0  0  0  0  0  0  0  0  0  0  0
   -1.0510   -1.2761   -3.5164 C   0  0  0  0  0  0  0  0  0  0  0  0
   -0.7339   -2.6220   -3.4381 C   0  0  0  0  0  0  0  0  0  0  0  0
   -0.5234   -3.1407   -2.1837 C   0  0  0  0  0  0  0  0  0  0  0  0
   -0.6133   -2.3993   -1.0411 C   0  0  0  0  0  0  0  0  0  0  0  0
    3.3164   -0.0121    1.8551 C   0  0  0  0  0  0  0  0  0  0  0  0
    2.4349    0.1144    3.0627 C   0  0  0  0  0  0  0  0  0  0  0  0
    3.5240   -1.5092    1.6100 C   0  0  0  0  0  0  0  0  0  0  0  0
   10.9301    0.3454    2.8386 H   0  0  0  0  0  0  0  0  0  0  0  0
   11.5273   -1.3287    2.9357 H   0  0  0  0  0  0  0  0  0  0  0  0
   12.6414   -0.0561    2.3251 H   0  0  0  0  0  0  0  0  0  0  0  0
   11.8105   -0.2536    0.2480 H   0  0  0  0  0  0  0  0  0  0  0  0
   10.9993   -1.8111    0.7923 H   0  0  0  0  0  0  0  0  0  0  0  0
    7.3122    0.9734    0.3633 H   0  0  0  0  0  0  0  0  0  0  0  0
    7.4844   -0.3433   -2.3196 H   0  0  0  0  0  0  0  0  0  0  0  0
    5.1640    0.1733   -2.5129 H   0  0  0  0  0  0  0  0  0  0  0  0
    4.8922    2.6203   -2.7648 H   0  0  0  0  0  0  0  0  0  0  0  0
    6.4475    2.8571   -1.9005 H   0  0  0  0  0  0  0  0  0  0  0  0
    6.3091    1.9096   -5.9181 H   0  0  0  0  0  0  0  0  0  0  0  0
    5.1838    1.5652    0.1990 H   0  0  0  0  0  0  0  0  0  0  0  0
    2.4660    1.6393    0.8227 H   0  0  0  0  0  0  0  0  0  0  0  0
    1.3833   -1.1815    0.3109 H   0  0  0  0  0  0  0  0  0  0  0  0
   -1.2979   -0.9258    0.8888 H   0  0  0  0  0  0  0  0  0  0  0  0
   -2.1416    1.4190   -0.7469 H   0  0  0  0  0  0  0  0  0  0  0  0
   -4.9960    1.3483   -0.7810 H   0  0  0  0  0  0  0  0  0  0  0  0
   -5.4471    3.1845    0.7070 H   0  0  0  0  0  0  0  0  0  0  0  0
   -4.3687    2.5191    1.9510 H   0  0  0  0  0  0  0  0  0  0  0  0
   -1.5437    4.2358    0.4715 H   0  0  0  0  0  0  0  0  0  0  0  0
   -5.7969    0.3634    1.9316 H   0  0  0  0  0  0  0  0  0  0  0  0
   -9.6731    0.6908   -0.3312 H   0  0  0  0  0  0  0  0  0  0  0  0
   -9.1624   -0.9405   -0.8470 H   0  0  0  0  0  0  0  0  0  0  0  0
   -9.9919   -2.9712    0.4203 H   0  0  0  0  0  0  0  0  0  0  0  0
  -11.8363   -3.9287    1.7213 H   0  0  0  0  0  0  0  0  0  0  0  0
  -13.4289   -2.4592    2.8876 H   0  0  0  0  0  0  0  0  0  0  0  0
  -13.1941   -0.0710    2.7742 H   0  0  0  0  0  0  0  0  0  0  0  0
  -11.3381    0.9282    1.4601 H   0  0  0  0  0  0  0  0  0  0  0  0
   -1.3969    0.5337   -2.4957 H   0  0  0  0  0  0  0  0  0  0  0  0
   -1.2173   -0.8557   -4.4854 H   0  0  0  0  0  0  0  0  0  0  0  0
   -0.6652   -3.1896   -4.3343 H   0  0  0  0  0  0  0  0  0  0  0  0
   -0.2719   -4.1977   -2.1152 H   0  0  0  0  0  0  0  0  0  0  0  0
   -0.4589   -2.7680   -0.0483 H   0  0  0  0  0  0  0  0  0  0  0  0
    4.2772    0.4791    2.1107 H   0  0  0  0  0  0  0  0  0  0  0  0
    2.1227   -0.8870    3.4803 H   0  0  0  0  0  0  0  0  0  0  0  0
    2.9265    0.6193    3.9146 H   0  0  0  0  0  0  0  0  0  0  0  0
    1.5243    0.7111    2.8225 H   0  0  0  0  0  0  0  0  0  0  0  0
    4.4366   -1.8886    2.0813 H   0  0  0  0  0  0  0  0  0  0  0  0
    2.6431   -2.0811    1.9675 H   0  0  0  0  0  0  0  0  0  0  0  0
    3.5945   -1.6829    0.5037 H   0  0  0  0  0  0  0  0  0  0  0  0
  1  2  1  0
  2  3  1  0
  3  4  1  0
  4  5  2  0
  4  6  1  0
  6  7  2  0
  7  8  1  0
  8  9  1  0
  9 10  1  0
 10 11  2  0
 10 12  1  0
  8 13  1  0
 13 14  1  0
 14 15  2  0
 14 16  1  0
 16 17  1  0
 17 18  1  0
 18 19  2  0
 18 20  1  0
 20 21  1  0
 21 22  1  0
 22 23  2  0
 22 24  1  0
 24 25  1  0
 25 26  1  0
 26 27  2  0
 26 28  1  0
 24 29  1  0
 29 30  1  0
 30 31  2  0
 30 32  1  0
 32 33  1  0
 33 34  1  0
 34 35  2  0
 35 36  1  0
 36 37  2  0
 37 38  1  0
 38 39  2  0
 20 40  1  0
 40 41  2  0
 41 42  1  0
 42 43  2  0
 43 44  1  0
 44 45  2  0
 16 46  1  0
 46 47  1  0
 46 48  1  0
 39 34  1  0
 45 40  1  0
  1 49  1  0
  1 50  1  0
  1 51  1  0
  2 52  1  0
  2 53  1  0
  6 54  1  0
  7 55  1  0
  8 56  1  6
  9 57  1  0
  9 58  1  0
 12 59  1  0
 13 60  1  0
 16 61  1  1
 17 62  1  0
 20 63  1  1
 21 64  1  0
 24 65  1  6
 25 66  1  0
 25 67  1  0
 28 68  1  0
 29 69  1  0
 33 70  1  0
 33 71  1  0
 35 72  1  0
 36 73  1  0
 37 74  1  0
 38 75  1  0
 39 76  1  0
 41 77  1  0
 42 78  1  0
 43 79  1  0
 44 80  1  0
 45 81  1  0
 46 82  1  0
 47 83  1  0
 47 84  1  0
 47 85  1  0
 48 86  1  0
 48 87  1  0
 48 88  1  0
M  END
$$$$
