@<TRIPOS>MOLECULE
*****
 88 89 0 0 0
SMALL
GASTEIGER

@<TRIPOS>ATOM
      1 C          11.5857   -0.3952    2.3374 C.3     1  UNL1       -0.0306
      2 C          11.0819   -0.7285    0.9531 C.3     1  UNL1        0.0900
      3 O           9.7942   -0.1242    0.8187 O.3     1  UNL1       -0.4618
      4 C           9.0430   -0.2368   -0.3220 C.2     1  UNL1        0.3317
      5 O           9.4943   -0.8951   -1.2861 O.2     1  UNL1       -0.2456
      6 C           7.7424    0.3889   -0.4349 C.2     1  UNL1        0.0203
      7 C           7.0256    0.2635   -1.5368 C.2     1  UNL1       -0.0567
      8 C           5.7084    0.8314   -1.7989 C.3     1  UNL1        0.0521
      9 C           5.8699    2.1546   -2.5432 C.3     1  UNL1        0.0667
     10 C           6.5675    1.9302   -3.8333 C.2     1  UNL1        0.3068
     11 O           7.7046    1.3514   -3.8637 O.2     1  UNL1       -0.2509
     12 O           6.0138    2.3330   -5.0395 O.3     1  UNL1       -0.4806
     13 N           4.8723    1.0044   -0.6266 N.am    1  UNL1       -0.3070
     14 C           3.5839    0.4134   -0.5543 C.2     1  UNL1        0.2341
     15 O           3.2308   -0.2675   -1.5748 O.2     1  UNL1       -0.2738
     16 C           2.6828    0.5622    0.6176 C.3     1  UNL1        0.1017
     17 N           1.4170   -0.1424    0.3970 N.am    1  UNL1       -0.3019
     18 C           0.1766    0.5443    0.2871 C.2     1  UNL1        0.2385
     19 O           0.1933    1.7957    0.3852 O.2     1  UNL1       -0.2734
     20 C          -1.0521   -0.1827    0.0690 C.3     1  UNL1        0.1250
     21 N          -2.2330    0.5955   -0.1090 N.am    1  UNL1       -0.2988
     22 C          -3.5006    0.3803    0.4724 C.2     1  UNL1        0.2348
     23 O          -3.5618   -0.6418    1.2400 O.2     1  UNL1       -0.2737
     24 C          -4.7035    1.1905    0.2787 C.3     1  UNL1        0.1125
     25 C          -4.5127    2.5840    0.8454 C.3     1  UNL1        0.0717
     26 C          -3.4077    3.3371    0.2156 C.2     1  UNL1        0.3070
     27 O          -3.5430    3.7355   -0.9840 O.2     1  UNL1       -0.2509
     28 O          -2.2221    3.6322    0.8801 O.3     1  UNL1       -0.4806
     29 N          -5.8719    0.6139    0.9342 N.am    1  UNL1       -0.2693
     30 C          -7.0926    0.3884    0.2568 C.2     1  UNL1        0.4012
     31 O          -7.1771    0.6937   -0.9562 O.2     1  UNL1       -0.2265
     32 O          -8.2327   -0.1536    0.8309 O.3     1  UNL1       -0.4456
     33 C          -9.4272   -0.3411    0.0547 C.3     1  UNL1        0.1191
     34 C         -10.5166   -0.9196    0.8338 C.ar    1  UNL1       -0.0103
     35 C         -10.6587   -2.2894    0.9094 C.ar    1  UNL1       -0.0554
     36 C         -11.7008   -2.8595    1.6459 C.ar    1  UNL1       -0.0614
     37 C         -12.5974   -2.0343    2.3059 C.ar    1  UNL1       -0.0617
     38 C         -12.4671   -0.6687    2.2394 C.ar    1  UNL1       -0.0614
     39 C         -11.4306   -0.1348    1.5057 C.ar    1  UNL1       -0.0554
     40 C          -0.9312   -1.0630   -1.1482 C.ar    1  UNL1       -0.0184
     41 C          -1.1503   -0.4969   -2.3795 C.ar    1  UNL1       -0.0563
     42 C          -1.0510   -1.2761   -3.5164 C.ar    1  UNL1       -0.0614
     43 C          -0.7339   -2.6220   -3.4381 C.ar    1  UNL1       -0.0617
     44 C          -0.5234   -3.1407   -2.1837 C.ar    1  UNL1       -0.0614
     45 C          -0.6133   -2.3993   -1.0411 C.ar    1  UNL1       -0.0563
     46 C           3.3164   -0.0121    1.8551 C.3     1  UNL1       -0.0197
     47 C           2.4349    0.1144    3.0627 C.3     1  UNL1       -0.0605
     48 C           3.5240   -1.5092    1.6100 C.3     1  UNL1       -0.0605
     49 H          10.9301    0.3454    2.8386 H       1  UNL1        0.0262
     50 H          11.5273   -1.3287    2.9357 H       1  UNL1        0.0262
     51 H          12.6414   -0.0561    2.3251 H       1  UNL1        0.0262
     52 H          11.8105   -0.2536    0.2480 H       1  UNL1        0.0695
     53 H          10.9993   -1.8111    0.7923 H       1  UNL1        0.0695
     54 H           7.3122    0.9734    0.3633 H       1  UNL1        0.0686
     55 H           7.4844   -0.3433   -2.3196 H       1  UNL1        0.0593
     56 H           5.1640    0.1733   -2.5129 H       1  UNL1        0.0548
     57 H           4.8922    2.6203   -2.7648 H       1  UNL1        0.0399
     58 H           6.4475    2.8571   -1.9005 H       1  UNL1        0.0399
     59 H           6.3091    1.9096   -5.9181 H       1  UNL1        0.2951
     60 H           5.1838    1.5652    0.1990 H       1  UNL1        0.1493
     61 H           2.4660    1.6393    0.8227 H       1  UNL1        0.0597
     62 H           1.3833   -1.1815    0.3109 H       1  UNL1        0.1495
     63 H          -1.2979   -0.9258    0.8888 H       1  UNL1        0.0646
     64 H          -2.1416    1.4190   -0.7469 H       1  UNL1        0.1498
     65 H          -4.9960    1.3483   -0.7810 H       1  UNL1        0.0601
     66 H          -5.4471    3.1845    0.7070 H       1  UNL1        0.0401
     67 H          -4.3687    2.5191    1.9510 H       1  UNL1        0.0401
     68 H          -1.5437    4.2358    0.4715 H       1  UNL1        0.2951
     69 H          -5.7969    0.3634    1.9316 H       1  UNL1        0.1528
     70 H          -9.6731    0.6908   -0.3312 H       1  UNL1        0.0749
     71 H          -9.1624   -0.9405   -0.8470 H       1  UNL1        0.0749
     72 H          -9.9919   -2.9712    0.4203 H       1  UNL1        0.0621
     73 H         -11.8363   -3.9287    1.7213 H       1  UNL1        0.0618
     74 H         -13.4289   -2.4592    2.8876 H       1  UNL1        0.0618
     75 H         -13.1941   -0.0710    2.7742 H       1  UNL1        0.0618
     76 H         -11.3381    0.9282    1.4601 H       1  UNL1        0.0621
     77 H          -1.3969    0.5337   -2.4957 H       1  UNL1        0.0621
     78 H          -1.2173   -0.8557   -4.4854 H       1  UNL1        0.0618
     79 H          -0.6652   -3.1896   -4.3343 H       1  UNL1        0.0618
     80 H          -0.2719   -4.1977   -2.1152 H       1  UNL1        0.0618
     81 H          -0.4589   -2.7680   -0.0483 H       1  UNL1        0.0621
     82 H           4.2772    0.4791    2.1107 H       1  UNL1        0.0318
     83 H           2.1227   -0.8870    3.4803 H       1  UNL1        0.0233
     84 H           2.9265    0.6193    3.9146 H       1  UNL1        0.0233
     85 H           1.5243    0.7111    2.8225 H       1  UNL1        0.0233
     86 H           4.4366   -1.8886    2.0813 H       1  UNL1        0.0233
     87 H           2.6431   -2.0811    1.9675 H       1  UNL1        0.0233
     88 H           3.5945   -1.6829    0.5037 H       1  UNL1        0.0233
@<TRIPOS>BOND
     1     1     2    1
     2     2     3    1
     3     3     4    1
     4     4     5    2
     5     4     6    1
     6     6     7    2
     7     7     8    1
     8     8     9    1
     9     9    10    1
    10    10    11    2
    11    10    12    1
    12     8    13    1
    13    13    14   am
    14    14    15    2
    15    14    16    1
    16    16    17    1
    17    17    18   am
    18    18    19    2
    19    18    20    1
    20    20    21    1
    21    21    22   am
    22    22    23    2
    23    22    24    1
    24    24    25    1
    25    25    26    1
    26    26    27    2
    27    26    28    1
    28    24    29    1
    29    29    30   am
    30    30    31    2
    31    30    32    1
    32    32    33    1
    33    33    34    1
    34    34    35   ar
    35    35    36   ar
    36    36    37   ar
    37    37    38   ar
    38    38    39   ar
    39    20    40    1
    40    40    41   ar
    41    41    42   ar
    42    42    43   ar
    43    43    44   ar
    44    44    45   ar
    45    16    46    1
    46    46    47    1
    47    46    48    1
    48    39    34   ar
    49    45    40   ar
    50     1    49    1
    51     1    50    1
    52     1    51    1
    53     2    52    1
    54     2    53    1
    55     6    54    1
    56     7    55    1
    57     8    56    1
    58     9    57    1
    59     9    58    1
    60    12    59    1
    61    13    60    1
    62    16    61    1
    63    17    62    1
    64    20    63    1
    65    21    64    1
    66    24    65    1
    67    25    66    1
    68    25    67    1
    69    28    68    1
    70    29    69    1
    71    33    70    1
    72    33    71    1
    73    35    72    1
    74    36    73    1
    75    37    74    1
    76    38    75    1
    77    39    76    1
    78    41    77    1
    79    42    78    1
    80    43    79    1
    81    44    80    1
    82    45    81    1
    83    46    82    1
    84    47    83    1
    85    47    84    1
    86    47    85    1
    87    48    86    1
    88    48    87    1
    89    48    88    1
