@<TRIPOS>MOLECULE
*****
 53 56 0 0 0
SMALL
GASTEIGER

@<TRIPOS>ATOM
      1 C          -4.9262    2.1967   -2.3730 C.3     1  UNL1        0.0554
      2 C          -5.8606    1.0168   -2.1941 C.3     1  UNL1       -0.0472
      3 S          -5.9325    3.7241   -2.6583 S.3     1  UNL1       -0.0566
      4 C          -6.7812    3.8743   -1.0546 C.2     1  UNL1        0.2918
      5 O          -7.9679    3.9549   -0.7277 O.2     1  UNL1       -0.2612
      6 N          -5.7776    3.8908   -0.0447 N.am    1  UNL1       -0.1976
      7 N          -4.5731    3.2023   -0.1606 N.2     1  UNL1       -0.1825
      8 C          -4.1783    2.4814   -1.1231 C.2     1  UNL1        0.0795
      9 C          -2.8419    1.9119   -0.9686 C.ar    1  UNL1       -0.0008
     10 C          -2.2906    1.0875   -1.9657 C.ar    1  UNL1       -0.0478
     11 C          -1.0291    0.5349   -1.8949 C.ar    1  UNL1       -0.0253
     12 C          -0.3169    0.8625   -0.7260 C.ar    1  UNL1        0.0398
     13 C          -0.7793    1.6472    0.2762 C.ar    1  UNL1       -0.0394
     14 C          -2.0644    2.1834    0.1577 C.ar    1  UNL1       -0.0510
     15 N           0.9759    0.2998   -0.6342 N.am    1  UNL1       -0.2672
     16 C           1.7445    0.1413   -1.8784 C.3     1  UNL1        0.0204
     17 C           0.8926   -0.8227   -2.7133 C.3     1  UNL1       -0.0327
     18 C          -0.4839   -0.3229   -2.9740 C.3     1  UNL1       -0.0245
     19 C           1.5381   -0.1189    0.5425 C.2     1  UNL1        0.2510
     20 O           0.8062    0.0378    1.5926 O.2     1  UNL1       -0.2696
     21 C           2.6281   -0.6973    1.2844 C.ar    1  UNL1        0.0409
     22 C           2.4204   -1.8111    2.1103 C.ar    1  UNL1       -0.0042
     23 C           3.4464   -2.4567    2.8149 C.ar    1  UNL1        0.1622
     24 O           3.2839   -3.5486    3.6351 O.3     1  UNL1       -0.4914
     25 C           2.0321   -4.1578    3.8716 C.3     1  UNL1        0.0790
     26 C           4.6938   -1.9164    2.6397 C.ar    1  UNL1        0.1615
     27 O           5.7625   -2.3674    3.1957 O.3     1  UNL1       -0.4915
     28 C           6.9875   -2.5853    3.6019 C.3     1  UNL1        0.0790
     29 C           4.9671   -0.8005    1.8276 C.ar    1  UNL1       -0.0156
     30 C           3.9062   -0.2217    1.1688 C.ar    1  UNL1       -0.0459
     31 H          -4.3439    2.0844   -3.2654 H       1  UNL1        0.0479
     32 H          -6.2768    0.6775   -3.1613 H       1  UNL1        0.0244
     33 H          -6.7051    1.2923   -1.4933 H       1  UNL1        0.0244
     34 H          -5.2661    0.2184   -1.7219 H       1  UNL1        0.0244
     35 H          -5.9097    4.4357    0.8653 H       1  UNL1        0.1781
     36 H          -2.8480    0.8322   -2.8717 H       1  UNL1        0.0627
     37 H          -0.1876    1.8828    1.1449 H       1  UNL1        0.0636
     38 H          -2.4348    2.8102    0.9611 H       1  UNL1        0.0625
     39 H           2.7237   -0.3095   -1.7274 H       1  UNL1        0.0469
     40 H           1.7796    1.1012   -2.4352 H       1  UNL1        0.0469
     41 H           0.8990   -1.8400   -2.2605 H       1  UNL1        0.0284
     42 H           1.3766   -0.9569   -3.7273 H       1  UNL1        0.0284
     43 H          -0.5098    0.2475   -3.9459 H       1  UNL1        0.0314
     44 H          -1.1571   -1.2025   -3.1392 H       1  UNL1        0.0314
     45 H           1.4245   -2.1630    2.1866 H       1  UNL1        0.0663
     46 H           1.7693   -4.9672    3.1869 H       1  UNL1        0.0660
     47 H           1.2381   -3.3686    3.7554 H       1  UNL1        0.0660
     48 H           1.9215   -4.4745    4.9343 H       1  UNL1        0.0660
     49 H           7.7684   -1.9633    3.0459 H       1  UNL1        0.0660
     50 H           7.3830   -3.6391    3.5238 H       1  UNL1        0.0660
     51 H           7.1354   -2.2287    4.6748 H       1  UNL1        0.0660
     52 H           5.9266   -0.3417    1.6579 H       1  UNL1        0.0655
     53 H           4.0113    0.6526    0.5100 H       1  UNL1        0.0626
@<TRIPOS>BOND
     1     1     2    1
     2     1     3    1
     3     3     4    1
     4     4     5    2
     5     4     6   am
     6     6     7    1
     7     7     8    2
     8     8     9    1
     9     9    10   ar
    10    10    11   ar
    11    11    12   ar
    12    12    13   ar
    13    13    14   ar
    14    12    15    1
    15    15    16    1
    16    16    17    1
    17    17    18    1
    18    15    19   am
    19    19    20    2
    20    19    21    1
    21    21    22   ar
    22    22    23   ar
    23    23    24    1
    24    24    25    1
    25    23    26   ar
    26    26    27    1
    27    27    28    1
    28    26    29   ar
    29    29    30   ar
    30     8     1    1
    31    14     9   ar
    32    30    21   ar
    33    18    11    1
    34     1    31    1
    35     2    32    1
    36     2    33    1
    37     2    34    1
    38     6    35    1
    39    10    36    1
    40    13    37    1
    41    14    38    1
    42    16    39    1
    43    16    40    1
    44    17    41    1
    45    17    42    1
    46    18    43    1
    47    18    44    1
    48    22    45    1
    49    25    46    1
    50    25    47    1
    51    25    48    1
    52    28    49    1
    53    28    50    1
    54    28    51    1
    55    29    52    1
    56    30    53    1
