
     RDKit          3D

 53 56  0  0  0  0  0  0  0  0999 V2000
   -4.9262    2.1967   -2.3730 C   0  0  1  0  0  0  0  0  0  0  0  0
   -5.8606    1.0168   -2.1941 C   0  0  0  0  0  0  0  0  0  0  0  0
   -5.9325    3.7241   -2.6583 S   0  0  0  0  0  0  0  0  0  0  0  0
   -6.7812    3.8743   -1.0546 C   0  0  0  0  0  0  0  0  0  0  0  0
   -7.9679    3.9549   -0.7277 O   0  0  0  0  0  0  0  0  0  0  0  0
   -5.7776    3.8908   -0.0447 N   0  0  0  0  0  0  0  0  0  0  0  0
   -4.5731    3.2023   -0.1606 N   0  0  0  0  0  0  0  0  0  0  0  0
   -4.1783    2.4814   -1.1231 C   0  0  0  0  0  0  0  0  0  0  0  0
   -2.8419    1.9119   -0.9686 C   0  0  0  0  0  0  0  0  0  0  0  0
   -2.2906    1.0875   -1.9657 C   0  0  0  0  0  0  0  0  0  0  0  0
   -1.0291    0.5349   -1.8949 C   0  0  0  0  0  0  0  0  0  0  0  0
   -0.3169    0.8625   -0.7260 C   0  0  0  0  0  0  0  0  0  0  0  0
   -0.7793    1.6472    0.2762 C   0  0  0  0  0  0  0  0  0  0  0  0
   -2.0644    2.1834    0.1577 C   0  0  0  0  0  0  0  0  0  0  0  0
    0.9759    0.2998   -0.6342 N   0  0  0  0  0  0  0  0  0  0  0  0
    1.7445    0.1413   -1.8784 C   0  0  0  0  0  0  0  0  0  0  0  0
    0.8926   -0.8227   -2.7133 C   0  0  0  0  0  0  0  0  0  0  0  0
   -0.4839   -0.3229   -2.9740 C   0  0  0  0  0  0  0  0  0  0  0  0
    1.5381   -0.1189    0.5425 C   0  0  0  0  0  0  0  0  0  0  0  0
    0.8062    0.0378    1.5926 O   0  0  0  0  0  0  0  0  0  0  0  0
    2.6281   -0.6973    1.2844 C   0  0  0  0  0  0  0  0  0  0  0  0
    2.4204   -1.8111    2.1103 C   0  0  0  0  0  0  0  0  0  0  0  0
    3.4464   -2.4567    2.8149 C   0  0  0  0  0  0  0  0  0  0  0  0
    3.2839   -3.5486    3.6351 O   0  0  0  0  0  0  0  0  0  0  0  0
    2.0321   -4.1578    3.8716 C   0  0  0  0  0  0  0  0  0  0  0  0
    4.6938   -1.9164    2.6397 C   0  0  0  0  0  0  0  0  0  0  0  0
    5.7625   -2.3674    3.1957 O   0  0  0  0  0  0  0  0  0  0  0  0
    6.9875   -2.5853    3.6019 C   0  0  0  0  0  0  0  0  0  0  0  0
    4.9671   -0.8005    1.8276 C   0  0  0  0  0  0  0  0  0  0  0  0
    3.9062   -0.2217    1.1688 C   0  0  0  0  0  0  0  0  0  0  0  0
   -4.3439    2.0844   -3.2654 H   0  0  0  0  0  0  0  0  0  0  0  0
   -6.2768    0.6775   -3.1613 H   0  0  0  0  0  0  0  0  0  0  0  0
   -6.7051    1.2923   -1.4933 H   0  0  0  0  0  0  0  0  0  0  0  0
   -5.2661    0.2184   -1.7219 H   0  0  0  0  0  0  0  0  0  0  0  0
   -5.9097    4.4357    0.8653 H   0  0  0  0  0  0  0  0  0  0  0  0
   -2.8480    0.8322   -2.8717 H   0  0  0  0  0  0  0  0  0  0  0  0
   -0.1876    1.8828    1.1449 H   0  0  0  0  0  0  0  0  0  0  0  0
   -2.4348    2.8102    0.9611 H   0  0  0  0  0  0  0  0  0  0  0  0
    2.7237   -0.3095   -1.7274 H   0  0  0  0  0  0  0  0  0  0  0  0
    1.7796    1.1012   -2.4352 H   0  0  0  0  0  0  0  0  0  0  0  0
    0.8990   -1.8400   -2.2605 H   0  0  0  0  0  0  0  0  0  0  0  0
    1.3766   -0.9569   -3.7273 H   0  0  0  0  0  0  0  0  0  0  0  0
   -0.5098    0.2475   -3.9459 H   0  0  0  0  0  0  0  0  0  0  0  0
   -1.1571   -1.2025   -3.1392 H   0  0  0  0  0  0  0  0  0  0  0  0
    1.4245   -2.1630    2.1866 H   0  0  0  0  0  0  0  0  0  0  0  0
    1.7693   -4.9672    3.1869 H   0  0  0  0  0  0  0  0  0  0  0  0
    1.2381   -3.3686    3.7554 H   0  0  0  0  0  0  0  0  0  0  0  0
    1.9215   -4.4745    4.9343 H   0  0  0  0  0  0  0  0  0  0  0  0
    7.7684   -1.9633    3.0459 H   0  0  0  0  0  0  0  0  0  0  0  0
    7.3830   -3.6391    3.5238 H   0  0  0  0  0  0  0  0  0  0  0  0
    7.1354   -2.2287    4.6748 H   0  0  0  0  0  0  0  0  0  0  0  0
    5.9266   -0.3417    1.6579 H   0  0  0  0  0  0  0  0  0  0  0  0
    4.0113    0.6526    0.5100 H   0  0  0  0  0  0  0  0  0  0  0  0
  1  2  1  0
  1  3  1  0
  3  4  1  0
  4  5  2  0
  4  6  1  0
  6  7  1  0
  7  8  2  0
  8  9  1  0
  9 10  2  0
 10 11  1  0
 11 12  2  0
 12 13  1  0
 13 14  2  0
 12 15  1  0
 15 16  1  0
 16 17  1  0
 17 18  1  0
 15 19  1  0
 19 20  2  0
 19 21  1  0
 21 22  2  0
 22 23  1  0
 23 24  1  0
 24 25  1  0
 23 26  2  0
 26 27  1  0
 27 28  1  0
 26 29  1  0
 29 30  2  0
  8  1  1  0
 14  9  1  0
 30 21  1  0
 18 11  1  0
  1 31  1  6
  2 32  1  0
  2 33  1  0
  2 34  1  0
  6 35  1  0
 10 36  1  0
 13 37  1  0
 14 38  1  0
 16 39  1  0
 16 40  1  0
 17 41  1  0
 17 42  1  0
 18 43  1  0
 18 44  1  0
 22 45  1  0
 25 46  1  0
 25 47  1  0
 25 48  1  0
 28 49  1  0
 28 50  1  0
 28 51  1  0
 29 52  1  0
 30 53  1  0
M  END
$$$$
