@<TRIPOS>MOLECULE
*****
 65 67 0 0 0
SMALL
GASTEIGER

@<TRIPOS>ATOM
      1 C          -2.0527    4.1458   -0.7087 C.3     1  UNL1       -0.0645
      2 C          -3.2625    3.3816   -0.2668 C.3     1  UNL1       -0.0432
      3 C          -3.1728    1.9095   -0.5678 C.3     1  UNL1        0.0534
      4 C          -4.4526    1.2571   -0.0730 C.3     1  UNL1       -0.0523
      5 C          -2.0573    1.2526    0.1990 C.2     1  UNL1        0.3102
      6 O          -1.3835    1.9857    0.9504 O.2     1  UNL1       -0.2505
      7 O          -1.8120   -0.0704    0.0668 O.3     1  UNL1       -0.4605
      8 C          -0.7476   -0.6832    0.7951 C.3     1  UNL1        0.1106
      9 C          -1.4922   -1.4980    1.9023 C.3     1  UNL1       -0.0090
     10 C          -1.9051   -2.8465    1.4562 C.3     1  UNL1       -0.0218
     11 C          -3.1810   -3.3036    2.1384 C.3     1  UNL1       -0.0588
     12 C          -2.0283   -2.9159   -0.0097 C.2     1  UNL1       -0.0775
     13 C          -1.1089   -2.3601   -0.7750 C.2     1  UNL1       -0.0444
     14 C          -1.1946   -2.4074   -2.2120 C.2     1  UNL1       -0.0621
     15 C          -0.0451   -2.2754   -2.8420 C.2     1  UNL1       -0.0806
     16 C           1.2225   -2.0958   -2.1516 C.3     1  UNL1       -0.0219
     17 C           1.7796   -3.4721   -1.8620 C.3     1  UNL1       -0.0587
     18 C           1.1518   -1.2369   -0.8759 C.3     1  UNL1       -0.0247
     19 C           2.4010   -1.5164   -0.0753 C.3     1  UNL1       -0.0457
     20 C           2.6924   -0.7551    1.1345 C.3     1  UNL1       -0.0153
     21 C           3.1306    0.6552    1.0124 C.3     1  UNL1        0.1054
     22 C           2.2628    1.6365    0.3284 C.3     1  UNL1        0.0109
     23 C           2.6517    3.0613    0.7492 C.3     1  UNL1        0.0686
     24 O           2.4866    3.1929    2.1074 O.3     1  UNL1       -0.3911
     25 C           4.0750    3.2583    0.2955 C.3     1  UNL1        0.0710
     26 C           4.7676    2.0187   -0.0647 C.2     1  UNL1        0.3098
     27 O           5.7490    2.0905   -0.8473 O.2     1  UNL1       -0.2507
     28 O           4.4250    0.7533    0.3933 O.3     1  UNL1       -0.4612
     29 C          -0.0073   -1.6725   -0.0363 C.3     1  UNL1        0.0243
     30 H          -1.4662    4.4360    0.1906 H       1  UNL1        0.0230
     31 H          -2.3463    5.1016   -1.1958 H       1  UNL1        0.0230
     32 H          -1.4341    3.5921   -1.4447 H       1  UNL1        0.0230
     33 H          -3.4731    3.5506    0.8288 H       1  UNL1        0.0270
     34 H          -4.1619    3.7600   -0.7931 H       1  UNL1        0.0270
     35 H          -3.0379    1.7939   -1.6567 H       1  UNL1        0.0410
     36 H          -4.2667    0.3418    0.5081 H       1  UNL1        0.0238
     37 H          -5.1358    1.0456   -0.9370 H       1  UNL1        0.0238
     38 H          -5.0236    1.9449    0.6064 H       1  UNL1        0.0238
     39 H          -0.2246    0.0546    1.3577 H       1  UNL1        0.0740
     40 H          -2.3006   -0.8307    2.2395 H       1  UNL1        0.0307
     41 H          -0.7738   -1.5306    2.7745 H       1  UNL1        0.0307
     42 H          -1.0585   -3.5485    1.7157 H       1  UNL1        0.0342
     43 H          -2.8599   -3.8305    3.0698 H       1  UNL1        0.0235
     44 H          -3.7662   -2.3819    2.3587 H       1  UNL1        0.0235
     45 H          -3.7119   -3.9970    1.4544 H       1  UNL1        0.0235
     46 H          -2.8659   -3.4171   -0.4505 H       1  UNL1        0.0578
     47 H          -2.1303   -2.5428   -2.7085 H       1  UNL1        0.0617
     48 H          -0.0513   -2.3041   -3.9229 H       1  UNL1        0.0575
     49 H           1.9349   -1.6190   -2.8535 H       1  UNL1        0.0343
     50 H           2.8843   -3.4800   -1.8195 H       1  UNL1        0.0235
     51 H           1.5069   -4.1116   -2.7295 H       1  UNL1        0.0235
     52 H           1.3057   -3.9400   -0.9770 H       1  UNL1        0.0235
     53 H           1.0739   -0.2209   -1.1432 H       1  UNL1        0.0313
     54 H           3.3198   -1.4165   -0.7314 H       1  UNL1        0.0269
     55 H           2.4232   -2.6430    0.1332 H       1  UNL1        0.0269
     56 H           3.5659   -1.2937    1.6492 H       1  UNL1        0.0301
     57 H           1.9022   -0.7789    1.9207 H       1  UNL1        0.0301
     58 H           3.3250    1.1028    2.0544 H       1  UNL1        0.0734
     59 H           1.2162    1.4488    0.4922 H       1  UNL1        0.0326
     60 H           2.5300    1.5805   -0.7769 H       1  UNL1        0.0326
     61 H           1.9331    3.7318    0.2337 H       1  UNL1        0.0600
     62 H           3.2979    3.6066    2.5182 H       1  UNL1        0.2098
     63 H           4.6128    3.8882    1.0276 H       1  UNL1        0.0403
     64 H           4.0152    3.8875   -0.6405 H       1  UNL1        0.0403
     65 H           0.3496   -2.4699    0.6882 H       1  UNL1        0.0388
@<TRIPOS>BOND
     1     1     2    1
     2     2     3    1
     3     3     4    1
     4     3     5    1
     5     5     6    2
     6     5     7    1
     7     7     8    1
     8     8     9    1
     9     9    10    1
    10    10    11    1
    11    10    12    1
    12    12    13    2
    13    13    14    1
    14    14    15    2
    15    15    16    1
    16    16    17    1
    17    16    18    1
    18    18    19    1
    19    19    20    1
    20    20    21    1
    21    21    22    1
    22    22    23    1
    23    23    24    1
    24    23    25    1
    25    25    26    1
    26    26    27    2
    27    26    28    1
    28    18    29    1
    29    29     8    1
    30    29    13    1
    31    28    21    1
    32     1    30    1
    33     1    31    1
    34     1    32    1
    35     2    33    1
    36     2    34    1
    37     3    35    1
    38     4    36    1
    39     4    37    1
    40     4    38    1
    41     8    39    1
    42     9    40    1
    43     9    41    1
    44    10    42    1
    45    11    43    1
    46    11    44    1
    47    11    45    1
    48    12    46    1
    49    14    47    1
    50    15    48    1
    51    16    49    1
    52    17    50    1
    53    17    51    1
    54    17    52    1
    55    18    53    1
    56    19    54    1
    57    19    55    1
    58    20    56    1
    59    20    57    1
    60    21    58    1
    61    22    59    1
    62    22    60    1
    63    23    61    1
    64    24    62    1
    65    25    63    1
    66    25    64    1
    67    29    65    1
