
     RDKit          3D

 65 67  0  0  0  0  0  0  0  0999 V2000
   -2.0527    4.1458   -0.7087 C   0  0  0  0  0  0  0  0  0  0  0  0
   -3.2625    3.3816   -0.2668 C   0  0  0  0  0  0  0  0  0  0  0  0
   -3.1728    1.9095   -0.5678 C   0  0  2  0  0  0  0  0  0  0  0  0
   -4.4526    1.2571   -0.0730 C   0  0  0  0  0  0  0  0  0  0  0  0
   -2.0573    1.2526    0.1990 C   0  0  0  0  0  0  0  0  0  0  0  0
   -1.3835    1.9857    0.9504 O   0  0  0  0  0  0  0  0  0  0  0  0
   -1.8120   -0.0704    0.0668 O   0  0  0  0  0  0  0  0  0  0  0  0
   -0.7476   -0.6832    0.7951 C   0  0  1  0  0  0  0  0  0  0  0  0
   -1.4922   -1.4980    1.9023 C   0  0  0  0  0  0  0  0  0  0  0  0
   -1.9051   -2.8465    1.4562 C   0  0  1  0  0  0  0  0  0  0  0  0
   -3.1810   -3.3036    2.1384 C   0  0  0  0  0  0  0  0  0  0  0  0
   -2.0283   -2.9159   -0.0097 C   0  0  0  0  0  0  0  0  0  0  0  0
   -1.1089   -2.3601   -0.7750 C   0  0  0  0  0  0  0  0  0  0  0  0
   -1.1946   -2.4074   -2.2120 C   0  0  0  0  0  0  0  0  0  0  0  0
   -0.0451   -2.2754   -2.8420 C   0  0  0  0  0  0  0  0  0  0  0  0
    1.2225   -2.0958   -2.1516 C   0  0  2  0  0  0  0  0  0  0  0  0
    1.7796   -3.4721   -1.8620 C   0  0  0  0  0  0  0  0  0  0  0  0
    1.1518   -1.2369   -0.8759 C   0  0  2  0  0  0  0  0  0  0  0  0
    2.4010   -1.5164   -0.0753 C   0  0  0  0  0  0  0  0  0  0  0  0
    2.6924   -0.7551    1.1345 C   0  0  0  0  0  0  0  0  0  0  0  0
    3.1306    0.6552    1.0124 C   0  0  2  0  0  0  0  0  0  0  0  0
    2.2628    1.6365    0.3284 C   0  0  0  0  0  0  0  0  0  0  0  0
    2.6517    3.0613    0.7492 C   0  0  1  0  0  0  0  0  0  0  0  0
    2.4866    3.1929    2.1074 O   0  0  0  0  0  0  0  0  0  0  0  0
    4.0750    3.2583    0.2955 C   0  0  0  0  0  0  0  0  0  0  0  0
    4.7676    2.0187   -0.0647 C   0  0  0  0  0  0  0  0  0  0  0  0
    5.7490    2.0905   -0.8473 O   0  0  0  0  0  0  0  0  0  0  0  0
    4.4250    0.7533    0.3933 O   0  0  0  0  0  0  0  0  0  0  0  0
   -0.0073   -1.6725   -0.0363 C   0  0  1  0  0  0  0  0  0  0  0  0
   -1.4662    4.4360    0.1906 H   0  0  0  0  0  0  0  0  0  0  0  0
   -2.3463    5.1016   -1.1958 H   0  0  0  0  0  0  0  0  0  0  0  0
   -1.4341    3.5921   -1.4447 H   0  0  0  0  0  0  0  0  0  0  0  0
   -3.4731    3.5506    0.8288 H   0  0  0  0  0  0  0  0  0  0  0  0
   -4.1619    3.7600   -0.7931 H   0  0  0  0  0  0  0  0  0  0  0  0
   -3.0379    1.7939   -1.6567 H   0  0  0  0  0  0  0  0  0  0  0  0
   -4.2667    0.3418    0.5081 H   0  0  0  0  0  0  0  0  0  0  0  0
   -5.1358    1.0456   -0.9370 H   0  0  0  0  0  0  0  0  0  0  0  0
   -5.0236    1.9449    0.6064 H   0  0  0  0  0  0  0  0  0  0  0  0
   -0.2246    0.0546    1.3577 H   0  0  0  0  0  0  0  0  0  0  0  0
   -2.3006   -0.8307    2.2395 H   0  0  0  0  0  0  0  0  0  0  0  0
   -0.7738   -1.5306    2.7745 H   0  0  0  0  0  0  0  0  0  0  0  0
   -1.0585   -3.5485    1.7157 H   0  0  0  0  0  0  0  0  0  0  0  0
   -2.8599   -3.8305    3.0698 H   0  0  0  0  0  0  0  0  0  0  0  0
   -3.7662   -2.3819    2.3587 H   0  0  0  0  0  0  0  0  0  0  0  0
   -3.7119   -3.9970    1.4544 H   0  0  0  0  0  0  0  0  0  0  0  0
   -2.8659   -3.4171   -0.4505 H   0  0  0  0  0  0  0  0  0  0  0  0
   -2.1303   -2.5428   -2.7085 H   0  0  0  0  0  0  0  0  0  0  0  0
   -0.0513   -2.3041   -3.9229 H   0  0  0  0  0  0  0  0  0  0  0  0
    1.9349   -1.6190   -2.8535 H   0  0  0  0  0  0  0  0  0  0  0  0
    2.8843   -3.4800   -1.8195 H   0  0  0  0  0  0  0  0  0  0  0  0
    1.5069   -4.1116   -2.7295 H   0  0  0  0  0  0  0  0  0  0  0  0
    1.3057   -3.9400   -0.9770 H   0  0  0  0  0  0  0  0  0  0  0  0
    1.0739   -0.2209   -1.1432 H   0  0  0  0  0  0  0  0  0  0  0  0
    3.3198   -1.4165   -0.7314 H   0  0  0  0  0  0  0  0  0  0  0  0
    2.4232   -2.6430    0.1332 H   0  0  0  0  0  0  0  0  0  0  0  0
    3.5659   -1.2937    1.6492 H   0  0  0  0  0  0  0  0  0  0  0  0
    1.9022   -0.7789    1.9207 H   0  0  0  0  0  0  0  0  0  0  0  0
    3.3250    1.1028    2.0544 H   0  0  0  0  0  0  0  0  0  0  0  0
    1.2162    1.4488    0.4922 H   0  0  0  0  0  0  0  0  0  0  0  0
    2.5300    1.5805   -0.7769 H   0  0  0  0  0  0  0  0  0  0  0  0
    1.9331    3.7318    0.2337 H   0  0  0  0  0  0  0  0  0  0  0  0
    3.2979    3.6066    2.5182 H   0  0  0  0  0  0  0  0  0  0  0  0
    4.6128    3.8882    1.0276 H   0  0  0  0  0  0  0  0  0  0  0  0
    4.0152    3.8875   -0.6405 H   0  0  0  0  0  0  0  0  0  0  0  0
    0.3496   -2.4699    0.6882 H   0  0  0  0  0  0  0  0  0  0  0  0
  1  2  1  0
  2  3  1  0
  3  4  1  0
  3  5  1  0
  5  6  2  0
  5  7  1  0
  7  8  1  0
  8  9  1  0
  9 10  1  0
 10 11  1  0
 10 12  1  0
 12 13  2  0
 13 14  1  0
 14 15  2  0
 15 16  1  0
 16 17  1  0
 16 18  1  0
 18 19  1  0
 19 20  1  0
 20 21  1  0
 21 22  1  0
 22 23  1  0
 23 24  1  0
 23 25  1  0
 25 26  1  0
 26 27  2  0
 26 28  1  0
 18 29  1  0
 29  8  1  0
 29 13  1  0
 28 21  1  0
  1 30  1  0
  1 31  1  0
  1 32  1  0
  2 33  1  0
  2 34  1  0
  3 35  1  6
  4 36  1  0
  4 37  1  0
  4 38  1  0
  8 39  1  1
  9 40  1  0
  9 41  1  0
 10 42  1  1
 11 43  1  0
 11 44  1  0
 11 45  1  0
 12 46  1  0
 14 47  1  0
 15 48  1  0
 16 49  1  6
 17 50  1  0
 17 51  1  0
 17 52  1  0
 18 53  1  6
 19 54  1  0
 19 55  1  0
 20 56  1  0
 20 57  1  0
 21 58  1  1
 22 59  1  0
 22 60  1  0
 23 61  1  6
 24 62  1  0
 25 63  1  0
 25 64  1  0
 29 65  1  1
M  END
$$$$
