@<TRIPOS>MOLECULE
*****
 43 44 0 0 0
SMALL
GASTEIGER

@<TRIPOS>ATOM
      1 C          -0.5337    1.2826   -2.3999 C.3     1  UNL1       -0.0494
      2 C          -1.2948    0.7750   -1.2081 C.3     1  UNL1        0.0089
      3 C          -2.7327    0.5504   -1.6464 C.3     1  UNL1       -0.0125
      4 C          -3.5700    0.0431   -0.5231 C.ar    1  UNL1       -0.0457
      5 C          -4.2119    0.9784    0.2836 C.ar    1  UNL1       -0.0551
      6 C          -4.9978    0.5117    1.3372 C.ar    1  UNL1       -0.0199
      7 C          -5.1376   -0.8372    1.5763 C.ar    1  UNL1        0.1169
      8 O          -5.8997   -1.3881    2.6021 O.3     1  UNL1       -0.5068
      9 C          -4.4907   -1.7530    0.7624 C.ar    1  UNL1       -0.0199
     10 C          -3.6964   -1.3136   -0.3012 C.ar    1  UNL1       -0.0551
     11 N          -0.7297   -0.3594   -0.5882 N.3     1  UNL1       -0.3104
     12 C           0.5106   -0.2844    0.0610 C.3     1  UNL1        0.0264
     13 C           1.7400   -0.0842   -0.7536 C.3     1  UNL1        0.0928
     14 O           1.9238   -1.1085   -1.6990 O.3     1  UNL1       -0.3859
     15 C           2.9708   -0.0177    0.1225 C.ar    1  UNL1       -0.0111
     16 C           4.1395   -0.0643   -0.6474 C.ar    1  UNL1       -0.0143
     17 C           5.3508   -0.0163   -0.0217 C.ar    1  UNL1        0.1207
     18 O           6.6012   -0.0525   -0.6412 O.3     1  UNL1       -0.5066
     19 C           5.4564    0.0762    1.3392 C.ar    1  UNL1        0.0213
     20 C           4.2947    0.1237    2.1209 C.ar    1  UNL1        0.1207
     21 O           4.2760    0.2171    3.5015 O.3     1  UNL1       -0.5066
     22 C           3.0804    0.0746    1.4811 C.ar    1  UNL1       -0.0143
     23 H          -1.3077    1.5493   -3.1890 H       1  UNL1        0.0245
     24 H           0.0523    2.2072   -2.1967 H       1  UNL1        0.0245
     25 H           0.0704    0.4970   -2.9209 H       1  UNL1        0.0245
     26 H          -1.2727    1.6430   -0.4671 H       1  UNL1        0.0461
     27 H          -3.1230    1.5218   -1.9951 H       1  UNL1        0.0328
     28 H          -2.6993   -0.1593   -2.4984 H       1  UNL1        0.0328
     29 H          -4.1386    2.0528    0.1431 H       1  UNL1        0.0621
     30 H          -5.5347    1.1590    2.0179 H       1  UNL1        0.0654
     31 H          -6.2544   -0.7410    3.2956 H       1  UNL1        0.2921
     32 H          -4.5666   -2.8396    0.9068 H       1  UNL1        0.0654
     33 H          -3.1672   -1.9840   -0.9706 H       1  UNL1        0.0621
     34 H          -0.7396   -1.1646   -1.2509 H       1  UNL1        0.1223
     35 H           0.5144    0.5140    0.8614 H       1  UNL1        0.0453
     36 H           0.6486   -1.2248    0.6663 H       1  UNL1        0.0453
     37 H           1.7432    0.8708   -1.2963 H       1  UNL1        0.0656
     38 H           2.7984   -1.5375   -1.5636 H       1  UNL1        0.2103
     39 H           4.2607   -0.1373   -1.7373 H       1  UNL1        0.0658
     40 H           7.2916    0.6816   -0.5520 H       1  UNL1        0.2921
     41 H           6.3881    0.1193    1.9160 H       1  UNL1        0.0691
     42 H           3.8496   -0.4841    4.0910 H       1  UNL1        0.2921
     43 H           2.1372    0.1030    1.9816 H       1  UNL1        0.0658
@<TRIPOS>BOND
     1     1     2    1
     2     2     3    1
     3     3     4    1
     4     4     5   ar
     5     5     6   ar
     6     6     7   ar
     7     7     8    1
     8     7     9   ar
     9     9    10   ar
    10     2    11    1
    11    11    12    1
    12    12    13    1
    13    13    14    1
    14    13    15    1
    15    15    16   ar
    16    16    17   ar
    17    17    18    1
    18    17    19   ar
    19    19    20   ar
    20    20    21    1
    21    20    22   ar
    22    10     4   ar
    23    22    15   ar
    24     1    23    1
    25     1    24    1
    26     1    25    1
    27     2    26    1
    28     3    27    1
    29     3    28    1
    30     5    29    1
    31     6    30    1
    32     8    31    1
    33     9    32    1
    34    10    33    1
    35    11    34    1
    36    12    35    1
    37    12    36    1
    38    13    37    1
    39    14    38    1
    40    16    39    1
    41    18    40    1
    42    19    41    1
    43    21    42    1
    44    22    43    1
