@<TRIPOS>MOLECULE
*****
 40 42 0 0 0
SMALL
GASTEIGER

@<TRIPOS>ATOM
      1 N           7.2869    0.4522   -0.2426 N.3     1  UNL1       -0.1739
      2 S           5.7726   -0.3369   -0.4980 S.O2    1  UNL1        0.1893
      3 O           5.6813   -1.5110    0.4429 O.2     1  UNL1       -0.1191
      4 O           5.7138   -0.8749   -1.8888 O.2     1  UNL1       -0.1191
      5 O           4.4839    0.7114   -0.1495 O.3     1  UNL1       -0.3327
      6 C           3.2092    0.1475   -0.0735 C.ar    1  UNL1        0.1717
      7 C           2.7382   -0.3292    1.1453 C.ar    1  UNL1       -0.0156
      8 C           1.4730   -0.8744    1.1563 C.ar    1  UNL1       -0.0534
      9 C           0.6863   -0.9523    0.0042 C.ar    1  UNL1       -0.0270
     10 C          -0.6688   -1.5692    0.1626 C.3     1  UNL1        0.0587
     11 N          -1.6480   -0.5801    0.4869 N.pl3   1  UNL1       -0.2334
     12 N          -1.3104    0.0551    1.6855 N.ar    1  UNL1       -0.2332
     13 C          -0.5339    1.1589    1.5908 C.ar    1  UNL1        0.1376
     14 N          -0.3287    1.6101    2.8403 N.ar    1  UNL1       -0.1365
     15 N          -0.9456    0.8333    3.7141 N.ar    1  UNL1       -0.1365
     16 C          -1.5518   -0.1276    2.9955 C.ar    1  UNL1        0.1376
     17 C          -2.8261   -0.1954   -0.2041 C.ar    1  UNL1        0.0505
     18 C          -3.6389    0.7991    0.2979 C.ar    1  UNL1       -0.0377
     19 C          -4.7762    1.1487   -0.3986 C.ar    1  UNL1       -0.0425
     20 C          -5.1336    0.5298   -1.5957 C.ar    1  UNL1        0.0519
     21 C          -4.3226   -0.4747   -2.1129 C.ar    1  UNL1       -0.0425
     22 C          -3.1798   -0.8076   -1.3885 C.ar    1  UNL1       -0.0377
     23 C          -6.3383    0.9324   -2.2900 C.1     1  UNL1        0.0992
     24 N          -7.2972    1.2714   -2.8460 N.1     1  UNL1       -0.1909
     25 C           1.1697   -0.4743   -1.1970 C.ar    1  UNL1       -0.0394
     26 C           2.4395    0.0752   -1.2184 C.ar    1  UNL1        0.0627
     27 BR          3.1292    0.7423   -2.8664 Br      1  UNL1       -0.0464
     28 H           7.5398    0.4168    0.7642 H       1  UNL1        0.1472
     29 H           7.9844   -0.0342   -0.8508 H       1  UNL1        0.1472
     30 H           3.3513   -0.2659    2.0320 H       1  UNL1        0.0655
     31 H           1.1116   -1.2403    2.0924 H       1  UNL1        0.0622
     32 H          -0.8980   -2.0381   -0.8121 H       1  UNL1        0.0533
     33 H          -0.6482   -2.3671    0.9376 H       1  UNL1        0.0533
     34 H          -0.0674    1.7274    0.7786 H       1  UNL1        0.1064
     35 H          -2.1794   -1.0020    3.2132 H       1  UNL1        0.1064
     36 H          -3.3916    1.3114    1.2390 H       1  UNL1        0.0637
     37 H          -5.4095    1.9254   -0.0049 H       1  UNL1        0.0631
     38 H          -4.6018   -0.9498   -3.0369 H       1  UNL1        0.0631
     39 H          -2.6010   -1.5856   -1.8396 H       1  UNL1        0.0637
     40 H           0.5261   -0.5549   -2.0652 H       1  UNL1        0.0633
@<TRIPOS>BOND
     1     1     2    1
     2     2     3    2
     3     2     4    2
     4     2     5    1
     5     5     6    1
     6     6     7   ar
     7     7     8   ar
     8     8     9   ar
     9     9    10    1
    10    10    11    1
    11    11    12    1
    12    12    13   ar
    13    13    14   ar
    14    14    15   ar
    15    15    16   ar
    16    11    17    1
    17    17    18   ar
    18    18    19   ar
    19    19    20   ar
    20    20    21   ar
    21    21    22   ar
    22    20    23    1
    23    23    24    3
    24     9    25   ar
    25    25    26   ar
    26    26    27    1
    27    26     6   ar
    28    16    12   ar
    29    22    17   ar
    30     1    28    1
    31     1    29    1
    32     7    30    1
    33     8    31    1
    34    10    32    1
    35    10    33    1
    36    13    34    1
    37    16    35    1
    38    18    36    1
    39    19    37    1
    40    21    38    1
    41    22    39    1
    42    25    40    1
