
     RDKit          3D

 60 64  0  0  0  0  0  0  0  0999 V2000
    2.2728   -4.2042   -0.7648 C   0  0  0  0  0  0  0  0  0  0  0  0
    2.0541   -2.8916   -0.1076 C   0  0  0  0  0  0  0  0  0  0  0  0
    2.9533   -2.1205    0.6026 C   0  0  0  0  0  0  0  0  0  0  0  0
    2.3241   -1.0119    1.0178 N   0  0  0  0  0  0  0  0  0  0  0  0
    2.9617    0.0372    1.7942 C   0  0  0  0  0  0  0  0  0  0  0  0
    3.5848    1.1056    0.9324 C   0  0  0  0  0  0  0  0  0  0  0  0
    4.6316    0.6037    0.0572 N   0  0  0  0  0  0  0  0  0  0  0  0
    5.1132    1.6662   -0.8211 C   0  0  0  0  0  0  0  0  0  0  0  0
    5.7837    0.1685    0.8724 C   0  0  0  0  0  0  0  0  0  0  0  0
    1.0390   -1.0094    0.6149 C   0  0  0  0  0  0  0  0  0  0  0  0
    0.8645   -2.1805   -0.0892 C   0  0  0  0  0  0  0  0  0  0  0  0
   -0.5360   -2.1632   -0.5350 C   0  0  0  0  0  0  0  0  0  0  0  0
   -1.0319   -3.0973   -1.2113 O   0  0  0  0  0  0  0  0  0  0  0  0
   -1.1730   -0.9750   -0.0874 N   0  0  0  0  0  0  0  0  0  0  0  0
   -2.5296   -0.6502   -0.3700 C   0  0  0  0  0  0  0  0  0  0  0  0
   -2.9257    0.0406   -1.4977 C   0  0  0  0  0  0  0  0  0  0  0  0
   -4.2420    0.3429   -1.7392 C   0  0  0  0  0  0  0  0  0  0  0  0
   -4.6495    1.0813   -2.9454 C   0  0  0  0  0  0  0  0  0  0  0  0
   -5.2009   -0.0506   -0.8363 C   0  0  0  0  0  0  0  0  0  0  0  0
   -6.5620    0.1019   -0.8044 N   0  0  0  0  0  0  0  0  0  0  0  0
   -6.9976   -0.4672    0.2923 N   0  0  0  0  0  0  0  0  0  0  0  0
   -5.9814   -0.9779    0.9667 C   0  0  0  0  0  0  0  0  0  0  0  0
   -6.0037   -1.7099    2.2577 C   0  0  0  0  0  0  0  0  0  0  0  0
   -4.8429   -0.7177    0.2579 N   0  0  0  0  0  0  0  0  0  0  0  0
   -3.5444   -1.0140    0.4929 C   0  0  0  0  0  0  0  0  0  0  0  0
   -0.2206   -0.2150    0.6747 C   0  0  0  0  0  0  0  0  0  0  0  0
    0.0344    1.1425    0.2181 C   0  0  0  0  0  0  0  0  0  0  0  0
    0.2755    1.4486   -1.1004 C   0  0  0  0  0  0  0  0  0  0  0  0
    0.5135    2.7635   -1.4758 C   0  0  0  0  0  0  0  0  0  0  0  0
    0.5146    3.8009   -0.5348 C   0  0  0  0  0  0  0  0  0  0  0  0
    0.8159    5.4582   -1.0134 Cl  0  0  0  0  0  0  0  0  0  0  0  0
    0.2734    3.4817    0.7716 C   0  0  0  0  0  0  0  0  0  0  0  0
    0.0417    2.1812    1.1185 C   0  0  0  0  0  0  0  0  0  0  0  0
    2.2519   -5.0420   -0.0101 H   0  0  0  0  0  0  0  0  0  0  0  0
    3.2758   -4.2439   -1.2354 H   0  0  0  0  0  0  0  0  0  0  0  0
    1.4656   -4.4338   -1.4906 H   0  0  0  0  0  0  0  0  0  0  0  0
    3.9750   -2.4443    0.7489 H   0  0  0  0  0  0  0  0  0  0  0  0
    3.7475   -0.4333    2.4190 H   0  0  0  0  0  0  0  0  0  0  0  0
    2.2047    0.5574    2.4187 H   0  0  0  0  0  0  0  0  0  0  0  0
    2.8638    1.6361    0.2970 H   0  0  0  0  0  0  0  0  0  0  0  0
    3.9999    1.8751    1.6364 H   0  0  0  0  0  0  0  0  0  0  0  0
    4.3101    2.3490   -1.1010 H   0  0  0  0  0  0  0  0  0  0  0  0
    5.9931    2.1278   -0.3629 H   0  0  0  0  0  0  0  0  0  0  0  0
    5.4413    1.1430   -1.7565 H   0  0  0  0  0  0  0  0  0  0  0  0
    6.7292    0.5303    0.4169 H   0  0  0  0  0  0  0  0  0  0  0  0
    5.7630   -0.9209    0.9513 H   0  0  0  0  0  0  0  0  0  0  0  0
    5.6398    0.6283    1.8670 H   0  0  0  0  0  0  0  0  0  0  0  0
   -2.1400    0.3388   -2.2021 H   0  0  0  0  0  0  0  0  0  0  0  0
   -3.9640    0.8717   -3.7896 H   0  0  0  0  0  0  0  0  0  0  0  0
   -4.7347    2.1845   -2.7538 H   0  0  0  0  0  0  0  0  0  0  0  0
   -5.6660    0.7773   -3.3020 H   0  0  0  0  0  0  0  0  0  0  0  0
   -5.5807   -2.7410    2.1500 H   0  0  0  0  0  0  0  0  0  0  0  0
   -5.3328   -1.2000    2.9912 H   0  0  0  0  0  0  0  0  0  0  0  0
   -7.0250   -1.7081    2.6661 H   0  0  0  0  0  0  0  0  0  0  0  0
   -3.3223   -1.5564    1.3981 H   0  0  0  0  0  0  0  0  0  0  0  0
   -0.6217   -0.2069    1.7359 H   0  0  0  0  0  0  0  0  0  0  0  0
    0.2879    0.6813   -1.8833 H   0  0  0  0  0  0  0  0  0  0  0  0
    0.7092    3.0679   -2.4935 H   0  0  0  0  0  0  0  0  0  0  0  0
    0.2652    4.2437    1.5235 H   0  0  0  0  0  0  0  0  0  0  0  0
   -0.1460    1.9499    2.1527 H   0  0  0  0  0  0  0  0  0  0  0  0
  1  2  1  0
  2  3  2  0
  3  4  1  0
  4  5  1  0
  5  6  1  0
  6  7  1  0
  7  8  1  0
  7  9  1  0
  4 10  1  0
 10 11  2  0
 11 12  1  0
 12 13  2  0
 12 14  1  0
 14 15  1  0
 15 16  1  0
 16 17  2  0
 17 18  1  0
 17 19  1  0
 19 20  2  0
 20 21  1  0
 21 22  2  0
 22 23  1  0
 22 24  1  0
 24 25  1  0
 14 26  1  0
 26 27  1  0
 27 28  2  0
 28 29  1  0
 29 30  2  0
 30 31  1  0
 30 32  1  0
 32 33  2  0
 11  2  1  0
 25 15  2  0
 33 27  1  0
 26 10  1  0
 24 19  1  0
  1 34  1  0
  1 35  1  0
  1 36  1  0
  3 37  1  0
  5 38  1  0
  5 39  1  0
  6 40  1  0
  6 41  1  0
  8 42  1  0
  8 43  1  0
  8 44  1  0
  9 45  1  0
  9 46  1  0
  9 47  1  0
 16 48  1  0
 18 49  1  0
 18 50  1  0
 18 51  1  0
 23 52  1  0
 23 53  1  0
 23 54  1  0
 25 55  1  0
 26 56  1  0
 28 57  1  0
 29 58  1  0
 32 59  1  0
 33 60  1  0
M  END
$$$$
