@<TRIPOS>MOLECULE
*****
 60 64 0 0 0
SMALL
GASTEIGER

@<TRIPOS>ATOM
      1 C           2.2728   -4.2042   -0.7648 C.3     1  UNL1       -0.0376
      2 C           2.0541   -2.8916   -0.1076 C.ar    1  UNL1       -0.0205
      3 C           2.9533   -2.1205    0.6026 C.ar    1  UNL1        0.0086
      4 N           2.3241   -1.0119    1.0178 N.ar    1  UNL1       -0.3465
      5 C           2.9617    0.0372    1.7942 C.3     1  UNL1        0.0358
      6 C           3.5848    1.1056    0.9324 C.3     1  UNL1        0.0163
      7 N           4.6316    0.6037    0.0572 N.3     1  UNL1       -0.3067
      8 C           5.1132    1.6662   -0.8211 C.3     1  UNL1       -0.0130
      9 C           5.7837    0.1685    0.8724 C.3     1  UNL1       -0.0130
     10 C           1.0390   -1.0094    0.6149 C.ar    1  UNL1        0.0567
     11 C           0.8645   -2.1805   -0.0892 C.ar    1  UNL1        0.0630
     12 C          -0.5360   -2.1632   -0.5350 C.2     1  UNL1        0.2538
     13 O          -1.0319   -3.0973   -1.2113 O.2     1  UNL1       -0.2695
     14 N          -1.1730   -0.9750   -0.0874 N.am    1  UNL1       -0.2530
     15 C          -2.5296   -0.6502   -0.3700 C.ar    1  UNL1        0.0545
     16 C          -2.9257    0.0406   -1.4977 C.ar    1  UNL1       -0.0324
     17 C          -4.2420    0.3429   -1.7392 C.ar    1  UNL1       -0.0041
     18 C          -4.6495    1.0813   -2.9454 C.3     1  UNL1       -0.0361
     19 C          -5.2009   -0.0506   -0.8363 C.ar    1  UNL1        0.1641
     20 N          -6.5620    0.1019   -0.8044 N.ar    1  UNL1       -0.1292
     21 N          -6.9976   -0.4672    0.2923 N.ar    1  UNL1       -0.1340
     22 C          -5.9814   -0.9779    0.9667 C.ar    1  UNL1        0.1347
     23 C          -6.0037   -1.7099    2.2577 C.3     1  UNL1       -0.0041
     24 N          -4.8429   -0.7177    0.2579 N.ar    1  UNL1       -0.2846
     25 C          -3.5444   -1.0140    0.4929 C.ar    1  UNL1        0.0344
     26 C          -0.2206   -0.2150    0.6747 C.3     1  UNL1        0.0972
     27 C           0.0344    1.1425    0.2181 C.ar    1  UNL1       -0.0208
     28 C           0.2755    1.4486   -1.1004 C.ar    1  UNL1       -0.0550
     29 C           0.5135    2.7635   -1.4758 C.ar    1  UNL1       -0.0431
     30 C           0.5146    3.8009   -0.5348 C.ar    1  UNL1        0.0410
     31 CL          0.8159    5.4582   -1.0134 Cl      1  UNL1       -0.0835
     32 C           0.2734    3.4817    0.7716 C.ar    1  UNL1       -0.0431
     33 C           0.0417    2.1812    1.1185 C.ar    1  UNL1       -0.0550
     34 H           2.2519   -5.0420   -0.0101 H       1  UNL1        0.0278
     35 H           3.2758   -4.2439   -1.2354 H       1  UNL1        0.0278
     36 H           1.4656   -4.4338   -1.4906 H       1  UNL1        0.0278
     37 H           3.9750   -2.4443    0.7489 H       1  UNL1        0.0812
     38 H           3.7475   -0.4333    2.4190 H       1  UNL1        0.0504
     39 H           2.2047    0.5574    2.4187 H       1  UNL1        0.0504
     40 H           2.8638    1.6361    0.2970 H       1  UNL1        0.0444
     41 H           3.9999    1.8751    1.6364 H       1  UNL1        0.0444
     42 H           4.3101    2.3490   -1.1010 H       1  UNL1        0.0391
     43 H           5.9931    2.1278   -0.3629 H       1  UNL1        0.0391
     44 H           5.4413    1.1430   -1.7565 H       1  UNL1        0.0391
     45 H           6.7292    0.5303    0.4169 H       1  UNL1        0.0391
     46 H           5.7630   -0.9209    0.9513 H       1  UNL1        0.0391
     47 H           5.6398    0.6283    1.8670 H       1  UNL1        0.0391
     48 H          -2.1400    0.3388   -2.2021 H       1  UNL1        0.0640
     49 H          -3.9640    0.8717   -3.7896 H       1  UNL1        0.0279
     50 H          -4.7347    2.1845   -2.7538 H       1  UNL1        0.0279
     51 H          -5.6660    0.7773   -3.3020 H       1  UNL1        0.0279
     52 H          -5.5807   -2.7410    2.1500 H       1  UNL1        0.0308
     53 H          -5.3328   -1.2000    2.9912 H       1  UNL1        0.0308
     54 H          -7.0250   -1.7081    2.6661 H       1  UNL1        0.0308
     55 H          -3.3223   -1.5564    1.3981 H       1  UNL1        0.0833
     56 H          -0.6217   -0.2069    1.7359 H       1  UNL1        0.0619
     57 H           0.2879    0.6813   -1.8833 H       1  UNL1        0.0621
     58 H           0.7092    3.0679   -2.4935 H       1  UNL1        0.0632
     59 H           0.2652    4.2437    1.5235 H       1  UNL1        0.0632
     60 H          -0.1460    1.9499    2.1527 H       1  UNL1        0.0621
@<TRIPOS>BOND
     1     1     2    1
     2     2     3   ar
     3     3     4   ar
     4     4     5    1
     5     5     6    1
     6     6     7    1
     7     7     8    1
     8     7     9    1
     9     4    10   ar
    10    10    11   ar
    11    11    12    1
    12    12    13    2
    13    12    14   am
    14    14    15    1
    15    15    16   ar
    16    16    17   ar
    17    17    18    1
    18    17    19   ar
    19    19    20   ar
    20    20    21   ar
    21    21    22   ar
    22    22    23    1
    23    22    24   ar
    24    24    25   ar
    25    14    26    1
    26    26    27    1
    27    27    28   ar
    28    28    29   ar
    29    29    30   ar
    30    30    31    1
    31    30    32   ar
    32    32    33   ar
    33    11     2   ar
    34    25    15   ar
    35    33    27   ar
    36    26    10    1
    37    24    19   ar
    38     1    34    1
    39     1    35    1
    40     1    36    1
    41     3    37    1
    42     5    38    1
    43     5    39    1
    44     6    40    1
    45     6    41    1
    46     8    42    1
    47     8    43    1
    48     8    44    1
    49     9    45    1
    50     9    46    1
    51     9    47    1
    52    16    48    1
    53    18    49    1
    54    18    50    1
    55    18    51    1
    56    23    52    1
    57    23    53    1
    58    23    54    1
    59    25    55    1
    60    26    56    1
    61    28    57    1
    62    29    58    1
    63    32    59    1
    64    33    60    1
