@<TRIPOS>MOLECULE
*****
 44 46 0 0 0
SMALL
GASTEIGER

@<TRIPOS>ATOM
      1 C           4.3485    2.7022   -0.8136 C.3     1  UNL1       -0.0558
      2 C           4.7830    1.2868   -0.4873 C.3     1  UNL1        0.0115
      3 C           5.2481    1.1811    0.9417 C.3     1  UNL1       -0.0558
      4 C           3.6507    0.3282   -0.6687 C.ar    1  UNL1        0.1121
      5 N           2.5124    0.4068    0.0133 N.ar    1  UNL1       -0.2252
      6 C           1.6898   -0.5895   -0.3672 C.ar    1  UNL1        0.1693
      7 C           0.4076   -1.0311   -0.0386 C.ar    1  UNL1        0.2476
      8 O          -0.1809   -0.2448    0.9324 O.3     1  UNL1       -0.4745
      9 C          -1.4757   -0.5385    1.3899 C.3     1  UNL1        0.0941
     10 C          -2.5208   -0.4930    0.2935 C.3     1  UNL1       -0.0067
     11 C          -3.8258   -0.8243    0.9404 C.3     1  UNL1       -0.0471
     12 C          -5.0350   -0.2092    0.3190 C.3     1  UNL1       -0.0527
     13 C          -4.8014    1.3068    0.3570 C.3     1  UNL1       -0.0530
     14 C          -3.7182    1.5284   -0.6640 C.3     1  UNL1       -0.0527
     15 C          -2.4454    0.8332   -0.3730 C.3     1  UNL1       -0.0471
     16 N          -0.0508   -2.1138   -0.6881 N.ar    1  UNL1       -0.1777
     17 C           0.6657   -2.7632   -1.6148 C.ar    1  UNL1        0.2176
     18 N           0.0407   -3.8998   -2.2186 N.pl3   1  UNL1       -0.3273
     19 N           1.9100   -2.3523   -1.9483 N.ar    1  UNL1       -0.1950
     20 C           2.4294   -1.2607   -1.3245 C.ar    1  UNL1        0.1667
     21 N           3.6299   -0.7193   -1.5260 N.ar    1  UNL1       -0.3263
     22 H           4.2675    2.8303   -1.9050 H       1  UNL1        0.0236
     23 H           5.1804    3.3738   -0.4992 H       1  UNL1        0.0236
     24 H           3.4214    2.9626   -0.2516 H       1  UNL1        0.0236
     25 H           5.6258    1.0293   -1.1576 H       1  UNL1        0.0373
     26 H           4.5762    0.5402    1.5664 H       1  UNL1        0.0236
     27 H           6.2571    0.7117    1.0000 H       1  UNL1        0.0236
     28 H           5.2582    2.1791    1.4500 H       1  UNL1        0.0236
     29 H          -1.6990    0.2100    2.1877 H       1  UNL1        0.0700
     30 H          -1.4844   -1.5189    1.9216 H       1  UNL1        0.0700
     31 H          -2.2627   -1.2923   -0.4309 H       1  UNL1        0.0334
     32 H          -3.8337   -0.5805    2.0241 H       1  UNL1        0.0269
     33 H          -3.9634   -1.9350    0.9026 H       1  UNL1        0.0269
     34 H          -5.8863   -0.3806    0.9932 H       1  UNL1        0.0265
     35 H          -5.2377   -0.5195   -0.7113 H       1  UNL1        0.0265
     36 H          -4.4745    1.5706    1.3889 H       1  UNL1        0.0265
     37 H          -5.7074    1.8222    0.0445 H       1  UNL1        0.0265
     38 H          -4.1729    1.2471   -1.6510 H       1  UNL1        0.0265
     39 H          -3.5378    2.6220   -0.7495 H       1  UNL1        0.0265
     40 H          -1.9013    0.7315   -1.3562 H       1  UNL1        0.0269
     41 H          -1.8011    1.5449    0.2026 H       1  UNL1        0.0269
     42 H          -0.4419   -4.0326   -3.1406 H       1  UNL1        0.1452
     43 H           0.1680   -4.6424   -1.4994 H       1  UNL1        0.1452
     44 H           4.3877   -1.0073   -2.1754 H       1  UNL1        0.1685
@<TRIPOS>BOND
     1     1     2    1
     2     2     3    1
     3     2     4    1
     4     4     5   ar
     5     5     6   ar
     6     6     7   ar
     7     7     8    1
     8     8     9    1
     9     9    10    1
    10    10    11    1
    11    11    12    1
    12    12    13    1
    13    13    14    1
    14    14    15    1
    15     7    16   ar
    16    16    17   ar
    17    17    18    1
    18    17    19   ar
    19    19    20   ar
    20    20    21   ar
    21    21     4   ar
    22    20     6   ar
    23    15    10    1
    24     1    22    1
    25     1    23    1
    26     1    24    1
    27     2    25    1
    28     3    26    1
    29     3    27    1
    30     3    28    1
    31     9    29    1
    32     9    30    1
    33    10    31    1
    34    11    32    1
    35    11    33    1
    36    12    34    1
    37    12    35    1
    38    13    36    1
    39    13    37    1
    40    14    38    1
    41    14    39    1
    42    15    40    1
    43    15    41    1
    44    18    42    1
    45    18    43    1
    46    21    44    1
