@<TRIPOS>MOLECULE
*****
 32 34 0 0 0
SMALL
GASTEIGER

@<TRIPOS>ATOM
      1 C           0.3631   -0.2296   -1.6855 C.3     1  UNL1       -0.0358
      2 C           0.1339   -0.4219   -0.2115 C.3     1  UNL1        0.1351
      3 C           1.1207   -1.3433    0.4253 C.3     1  UNL1        0.0703
      4 N           2.4636   -0.8159    0.2584 N.ar    1  UNL1       -0.2495
      5 C           3.1822    0.0018    1.0256 C.ar    1  UNL1        0.0455
      6 C           4.4159    0.2263    0.4542 C.ar    1  UNL1        0.0693
      7 N           4.4090   -0.4872   -0.6831 N.ar    1  UNL1       -0.1380
      8 N           3.2452   -1.1037   -0.7922 N.ar    1  UNL1       -0.0657
      9 C          -1.2877   -0.7715    0.0632 C.3     1  UNL1        0.1508
     10 C          -1.8063   -1.7731   -0.9354 C.2     1  UNL1        0.3278
     11 O          -1.2068   -2.8638   -1.0410 O.2     1  UNL1       -0.2488
     12 O          -2.9092   -1.5105   -1.7183 O.3     1  UNL1       -0.4793
     13 N          -2.1054    0.3597    0.0074 N.am    1  UNL1       -0.2632
     14 C          -3.2549    1.1765   -0.0308 C.2     1  UNL1        0.2212
     15 O          -4.3682    1.1169   -0.5722 O.2     1  UNL1       -0.2754
     16 C          -2.4595    2.0958    0.8759 C.3     1  UNL1        0.0629
     17 C          -1.3929    1.6546   -0.0449 C.3     1  UNL1        0.1536
     18 S           0.1837    1.1880    0.6052 S.O2    1  UNL1       -0.0022
     19 O           1.2930    2.0257    0.0978 O.2     1  UNL1       -0.1719
     20 O           0.1704    0.9730    2.0661 O.2     1  UNL1       -0.1719
     21 H           1.4147   -0.0325   -1.9019 H       1  UNL1        0.0252
     22 H          -0.2175    0.6926   -1.9747 H       1  UNL1        0.0252
     23 H          -0.0660   -1.0900   -2.2470 H       1  UNL1        0.0252
     24 H           0.8827   -1.3466    1.5295 H       1  UNL1        0.0532
     25 H           1.0282   -2.3878    0.1082 H       1  UNL1        0.0532
     26 H           2.8561    0.4299    1.9586 H       1  UNL1        0.0842
     27 H           5.2487    0.8272    0.7880 H       1  UNL1        0.0864
     28 H          -1.2617   -1.2747    1.0861 H       1  UNL1        0.0640
     29 H          -3.4361   -2.2620   -2.1760 H       1  UNL1        0.2951
     30 H          -2.8079    3.1415    0.7715 H       1  UNL1        0.0393
     31 H          -2.4452    1.6671    1.8772 H       1  UNL1        0.0393
     32 H          -1.3860    2.1374   -1.0191 H       1  UNL1        0.0750
@<TRIPOS>BOND
     1     2     1    1
     2     2     3    1
     3     3     4    1
     4     4     5   ar
     5     5     6   ar
     6     6     7   ar
     7     7     8   ar
     8     2     9    1
     9     9    10    1
    10    10    11    2
    11    10    12    1
    12     9    13    1
    13    13    14   am
    14    14    15    2
    15    14    16    1
    16    16    17    1
    17    17    18    1
    18    18    19    2
    19    18    20    2
    20    18     2    1
    21     8     4   ar
    22    17    13    1
    23     1    21    1
    24     1    22    1
    25     1    23    1
    26     3    24    1
    27     3    25    1
    28     5    26    1
    29     6    27    1
    30     9    28    1
    31    12    29    1
    32    16    30    1
    33    16    31    1
    34    17    32    1
