
     RDKit          3D

 32 34  0  0  0  0  0  0  0  0999 V2000
    0.3631   -0.2296   -1.6855 C   0  0  0  0  0  0  0  0  0  0  0  0
    0.1339   -0.4219   -0.2115 C   0  0  2  0  0  0  0  0  0  0  0  0
    1.1207   -1.3433    0.4253 C   0  0  0  0  0  0  0  0  0  0  0  0
    2.4636   -0.8159    0.2584 N   0  0  0  0  0  0  0  0  0  0  0  0
    3.1822    0.0018    1.0256 C   0  0  0  0  0  0  0  0  0  0  0  0
    4.4159    0.2263    0.4542 C   0  0  0  0  0  0  0  0  0  0  0  0
    4.4090   -0.4872   -0.6831 N   0  0  0  0  0  0  0  0  0  0  0  0
    3.2452   -1.1037   -0.7922 N   0  0  0  0  0  0  0  0  0  0  0  0
   -1.2877   -0.7715    0.0632 C   0  0  2  0  0  0  0  0  0  0  0  0
   -1.8063   -1.7731   -0.9354 C   0  0  0  0  0  0  0  0  0  0  0  0
   -1.2068   -2.8638   -1.0410 O   0  0  0  0  0  0  0  0  0  0  0  0
   -2.9092   -1.5105   -1.7183 O   0  0  0  0  0  0  0  0  0  0  0  0
   -2.1054    0.3597    0.0074 N   0  0  0  0  0  0  0  0  0  0  0  0
   -3.2549    1.1765   -0.0308 C   0  0  0  0  0  0  0  0  0  0  0  0
   -4.3682    1.1169   -0.5722 O   0  0  0  0  0  0  0  0  0  0  0  0
   -2.4595    2.0958    0.8759 C   0  0  0  0  0  0  0  0  0  0  0  0
   -1.3929    1.6546   -0.0449 C   0  0  1  0  0  0  0  0  0  0  0  0
    0.1837    1.1880    0.6052 S   0  0  0  0  0  6  0  0  0  0  0  0
    1.2930    2.0257    0.0978 O   0  0  0  0  0  0  0  0  0  0  0  0
    0.1704    0.9730    2.0661 O   0  0  0  0  0  0  0  0  0  0  0  0
    1.4147   -0.0325   -1.9019 H   0  0  0  0  0  0  0  0  0  0  0  0
   -0.2175    0.6926   -1.9747 H   0  0  0  0  0  0  0  0  0  0  0  0
   -0.0660   -1.0900   -2.2470 H   0  0  0  0  0  0  0  0  0  0  0  0
    0.8827   -1.3466    1.5295 H   0  0  0  0  0  0  0  0  0  0  0  0
    1.0282   -2.3878    0.1082 H   0  0  0  0  0  0  0  0  0  0  0  0
    2.8561    0.4299    1.9586 H   0  0  0  0  0  0  0  0  0  0  0  0
    5.2487    0.8272    0.7880 H   0  0  0  0  0  0  0  0  0  0  0  0
   -1.2617   -1.2747    1.0861 H   0  0  0  0  0  0  0  0  0  0  0  0
   -3.4361   -2.2620   -2.1760 H   0  0  0  0  0  0  0  0  0  0  0  0
   -2.8079    3.1415    0.7715 H   0  0  0  0  0  0  0  0  0  0  0  0
   -2.4452    1.6671    1.8772 H   0  0  0  0  0  0  0  0  0  0  0  0
   -1.3860    2.1374   -1.0191 H   0  0  0  0  0  0  0  0  0  0  0  0
  2  1  1  6
  2  3  1  0
  3  4  1  0
  4  5  1  0
  5  6  2  0
  6  7  1  0
  7  8  2  0
  2  9  1  0
  9 10  1  0
 10 11  2  0
 10 12  1  0
  9 13  1  0
 13 14  1  0
 14 15  2  0
 14 16  1  0
 16 17  1  0
 17 18  1  0
 18 19  2  0
 18 20  2  0
 18  2  1  0
  8  4  1  0
 17 13  1  0
  1 21  1  0
  1 22  1  0
  1 23  1  0
  3 24  1  0
  3 25  1  0
  5 26  1  0
  6 27  1  0
  9 28  1  1
 12 29  1  0
 16 30  1  0
 16 31  1  0
 17 32  1  6
M  END
$$$$
