@<TRIPOS>MOLECULE
*****
 53 56 0 0 0
SMALL
GASTEIGER

@<TRIPOS>ATOM
      1 C           2.8867    1.0851   -1.3882 C.3     1  UNL1        0.0874
      2 O           2.9766    1.0555   -2.7608 O.3     1  UNL1       -0.3886
      3 C           1.5619    0.4604   -0.9106 C.3     1  UNL1        0.0273
      4 N           1.7935    0.0223    0.4243 N.3     1  UNL1       -0.2897
      5 C           1.3488   -1.3241    0.6916 C.3     1  UNL1        0.0762
      6 C          -0.1102   -1.4178    0.6829 C.2     1  UNL1        0.2313
      7 O          -0.3566   -2.6305    0.9110 O.2     1  UNL1       -0.2741
      8 N          -1.2301   -0.5883    0.5035 N.am    1  UNL1       -0.2821
      9 C          -2.6198   -0.7598    0.5098 C.ar    1  UNL1        0.0692
     10 C          -3.3464   -1.8877    0.7644 C.ar    1  UNL1        0.1464
     11 F          -2.7143   -3.0358    1.0810 F       1  UNL1       -0.2035
     12 C          -4.7128   -2.0262    0.7470 C.ar    1  UNL1       -0.0006
     13 C          -5.3865   -0.8578    0.4285 C.ar    1  UNL1        0.0523
     14 C          -4.7211    0.3134    0.1607 C.ar    1  UNL1       -0.0358
     15 C          -3.3517    0.3568    0.2024 C.ar    1  UNL1       -0.0357
     16 N          -6.8032   -0.8057    0.3589 N.ar    1  UNL1       -0.2841
     17 C          -7.4345    0.2911    0.8128 C.ar    1  UNL1        0.0132
     18 C          -8.8250    0.4424    0.7895 C.ar    1  UNL1       -0.0449
     19 C          -9.5099   -0.6351    0.2578 C.ar    1  UNL1       -0.0552
     20 C          -8.9410   -1.7942   -0.2282 C.ar    1  UNL1        0.0033
     21 C          -7.5641   -1.8131   -0.1461 C.ar    1  UNL1        0.2557
     22 O          -6.9828   -2.8602   -0.5813 O.2     1  UNL1       -0.2673
     23 C           3.2274    0.0407    0.6633 C.3     1  UNL1        0.0204
     24 C           3.8859    0.1981   -0.6807 C.3     1  UNL1        0.0632
     25 N           5.1755    0.8169   -0.5557 N.am    1  UNL1       -0.3043
     26 C           6.4149    0.3116   -0.9554 C.2     1  UNL1        0.2511
     27 O           6.5756   -0.8190   -1.5099 O.2     1  UNL1       -0.2696
     28 C           7.6385    1.0672   -0.7581 C.ar    1  UNL1        0.0752
     29 C           7.8506    2.3279   -0.1900 C.ar    1  UNL1       -0.0411
     30 C           9.1269    2.8140   -0.1256 C.ar    1  UNL1       -0.0355
     31 C          10.1729    1.9949   -0.6479 C.ar    1  UNL1        0.0787
     32 CL         11.8916    2.4972   -0.6330 Cl      1  UNL1       -0.0758
     33 S           9.2226    0.4748   -1.2432 S.2     1  UNL1       -0.0722
     34 H           2.9825    2.1110   -0.9534 H       1  UNL1        0.0625
     35 H           2.1902    0.5413   -3.1213 H       1  UNL1        0.2099
     36 H           0.8170    1.2437   -1.0596 H       1  UNL1        0.0453
     37 H           1.3234   -0.3914   -1.5794 H       1  UNL1        0.0453
     38 H           1.7480   -1.9564   -0.1607 H       1  UNL1        0.0522
     39 H           1.7994   -1.7170    1.6417 H       1  UNL1        0.0522
     40 H          -0.8052    0.3489    0.3447 H       1  UNL1        0.1549
     41 H          -5.2368   -2.9384    0.9570 H       1  UNL1        0.0668
     42 H          -5.2643    1.2142   -0.0863 H       1  UNL1        0.0639
     43 H          -2.8845    1.3285   -0.0230 H       1  UNL1        0.0638
     44 H          -6.8186    1.1012    1.2212 H       1  UNL1        0.0814
     45 H          -9.3235    1.3275    1.1569 H       1  UNL1        0.0632
     46 H         -10.5889   -0.5237    0.2370 H       1  UNL1        0.0620
     47 H          -9.5062   -2.6021   -0.6303 H       1  UNL1        0.0672
     48 H           3.4696    0.9247    1.2568 H       1  UNL1        0.0446
     49 H           3.5763   -0.9079    1.1490 H       1  UNL1        0.0446
     50 H           3.9273   -0.8061   -1.1531 H       1  UNL1        0.0537
     51 H           5.1474    1.7716   -0.1011 H       1  UNL1        0.1494
     52 H           6.9687    2.8355    0.1629 H       1  UNL1        0.0631
     53 H           9.3388    3.7800    0.3030 H       1  UNL1        0.0638
@<TRIPOS>BOND
     1     1     2    1
     2     1     3    1
     3     3     4    1
     4     4     5    1
     5     5     6    1
     6     6     7    2
     7     6     8   am
     8     8     9    1
     9     9    10   ar
    10    10    11    1
    11    10    12   ar
    12    12    13   ar
    13    13    14   ar
    14    14    15   ar
    15    13    16    1
    16    16    17   ar
    17    17    18   ar
    18    18    19   ar
    19    19    20   ar
    20    20    21   ar
    21    21    22    2
    22     4    23    1
    23    23    24    1
    24    24    25    1
    25    25    26   am
    26    26    27    2
    27    26    28    1
    28    28    29   ar
    29    29    30   ar
    30    30    31   ar
    31    31    32    1
    32    31    33   ar
    33    24     1    1
    34    33    28   ar
    35    15     9   ar
    36    21    16   ar
    37     1    34    1
    38     2    35    1
    39     3    36    1
    40     3    37    1
    41     5    38    1
    42     5    39    1
    43     8    40    1
    44    12    41    1
    45    14    42    1
    46    15    43    1
    47    17    44    1
    48    18    45    1
    49    19    46    1
    50    20    47    1
    51    23    48    1
    52    23    49    1
    53    24    50    1
    54    25    51    1
    55    29    52    1
    56    30    53    1
