
     RDKit          3D

 53 56  0  0  0  0  0  0  0  0999 V2000
    2.8867    1.0851   -1.3882 C   0  0  1  0  0  0  0  0  0  0  0  0
    2.9766    1.0555   -2.7608 O   0  0  0  0  0  0  0  0  0  0  0  0
    1.5619    0.4604   -0.9106 C   0  0  0  0  0  0  0  0  0  0  0  0
    1.7935    0.0223    0.4243 N   0  0  0  0  0  0  0  0  0  0  0  0
    1.3488   -1.3241    0.6916 C   0  0  0  0  0  0  0  0  0  0  0  0
   -0.1102   -1.4178    0.6829 C   0  0  0  0  0  0  0  0  0  0  0  0
   -0.3566   -2.6305    0.9110 O   0  0  0  0  0  0  0  0  0  0  0  0
   -1.2301   -0.5883    0.5035 N   0  0  0  0  0  0  0  0  0  0  0  0
   -2.6198   -0.7598    0.5098 C   0  0  0  0  0  0  0  0  0  0  0  0
   -3.3464   -1.8877    0.7644 C   0  0  0  0  0  0  0  0  0  0  0  0
   -2.7143   -3.0358    1.0810 F   0  0  0  0  0  0  0  0  0  0  0  0
   -4.7128   -2.0262    0.7470 C   0  0  0  0  0  0  0  0  0  0  0  0
   -5.3865   -0.8578    0.4285 C   0  0  0  0  0  0  0  0  0  0  0  0
   -4.7211    0.3134    0.1607 C   0  0  0  0  0  0  0  0  0  0  0  0
   -3.3517    0.3568    0.2024 C   0  0  0  0  0  0  0  0  0  0  0  0
   -6.8032   -0.8057    0.3589 N   0  0  0  0  0  0  0  0  0  0  0  0
   -7.4345    0.2911    0.8128 C   0  0  0  0  0  0  0  0  0  0  0  0
   -8.8250    0.4424    0.7895 C   0  0  0  0  0  0  0  0  0  0  0  0
   -9.5099   -0.6351    0.2578 C   0  0  0  0  0  0  0  0  0  0  0  0
   -8.9410   -1.7942   -0.2282 C   0  0  0  0  0  0  0  0  0  0  0  0
   -7.5641   -1.8131   -0.1461 C   0  0  0  0  0  0  0  0  0  0  0  0
   -6.9828   -2.8602   -0.5813 O   0  0  0  0  0  0  0  0  0  0  0  0
    3.2274    0.0407    0.6633 C   0  0  0  0  0  0  0  0  0  0  0  0
    3.8859    0.1981   -0.6807 C   0  0  2  0  0  0  0  0  0  0  0  0
    5.1755    0.8169   -0.5557 N   0  0  0  0  0  0  0  0  0  0  0  0
    6.4149    0.3116   -0.9554 C   0  0  0  0  0  0  0  0  0  0  0  0
    6.5756   -0.8190   -1.5099 O   0  0  0  0  0  0  0  0  0  0  0  0
    7.6385    1.0672   -0.7581 C   0  0  0  0  0  0  0  0  0  0  0  0
    7.8506    2.3279   -0.1900 C   0  0  0  0  0  0  0  0  0  0  0  0
    9.1269    2.8140   -0.1256 C   0  0  0  0  0  0  0  0  0  0  0  0
   10.1729    1.9949   -0.6479 C   0  0  0  0  0  0  0  0  0  0  0  0
   11.8916    2.4972   -0.6330 Cl  0  0  0  0  0  0  0  0  0  0  0  0
    9.2226    0.4748   -1.2432 S   0  0  0  0  0  0  0  0  0  0  0  0
    2.9825    2.1110   -0.9534 H   0  0  0  0  0  0  0  0  0  0  0  0
    2.1902    0.5413   -3.1213 H   0  0  0  0  0  0  0  0  0  0  0  0
    0.8170    1.2437   -1.0596 H   0  0  0  0  0  0  0  0  0  0  0  0
    1.3234   -0.3914   -1.5794 H   0  0  0  0  0  0  0  0  0  0  0  0
    1.7480   -1.9564   -0.1607 H   0  0  0  0  0  0  0  0  0  0  0  0
    1.7994   -1.7170    1.6417 H   0  0  0  0  0  0  0  0  0  0  0  0
   -0.8052    0.3489    0.3447 H   0  0  0  0  0  0  0  0  0  0  0  0
   -5.2368   -2.9384    0.9570 H   0  0  0  0  0  0  0  0  0  0  0  0
   -5.2643    1.2142   -0.0863 H   0  0  0  0  0  0  0  0  0  0  0  0
   -2.8845    1.3285   -0.0230 H   0  0  0  0  0  0  0  0  0  0  0  0
   -6.8186    1.1012    1.2212 H   0  0  0  0  0  0  0  0  0  0  0  0
   -9.3235    1.3275    1.1569 H   0  0  0  0  0  0  0  0  0  0  0  0
  -10.5889   -0.5237    0.2370 H   0  0  0  0  0  0  0  0  0  0  0  0
   -9.5062   -2.6021   -0.6303 H   0  0  0  0  0  0  0  0  0  0  0  0
    3.4696    0.9247    1.2568 H   0  0  0  0  0  0  0  0  0  0  0  0
    3.5763   -0.9079    1.1490 H   0  0  0  0  0  0  0  0  0  0  0  0
    3.9273   -0.8061   -1.1531 H   0  0  0  0  0  0  0  0  0  0  0  0
    5.1474    1.7716   -0.1011 H   0  0  0  0  0  0  0  0  0  0  0  0
    6.9687    2.8355    0.1629 H   0  0  0  0  0  0  0  0  0  0  0  0
    9.3388    3.7800    0.3030 H   0  0  0  0  0  0  0  0  0  0  0  0
  1  2  1  0
  1  3  1  0
  3  4  1  0
  4  5  1  0
  5  6  1  0
  6  7  2  0
  6  8  1  0
  8  9  1  0
  9 10  2  0
 10 11  1  0
 10 12  1  0
 12 13  2  0
 13 14  1  0
 14 15  2  0
 13 16  1  0
 16 17  1  0
 17 18  2  0
 18 19  1  0
 19 20  2  0
 20 21  1  0
 21 22  2  0
  4 23  1  0
 23 24  1  0
 24 25  1  0
 25 26  1  0
 26 27  2  0
 26 28  1  0
 28 29  2  0
 29 30  1  0
 30 31  2  0
 31 32  1  0
 31 33  1  0
 24  1  1  0
 33 28  1  0
 15  9  1  0
 21 16  1  0
  1 34  1  1
  2 35  1  0
  3 36  1  0
  3 37  1  0
  5 38  1  0
  5 39  1  0
  8 40  1  0
 12 41  1  0
 14 42  1  0
 15 43  1  0
 17 44  1  0
 18 45  1  0
 19 46  1  0
 20 47  1  0
 23 48  1  0
 23 49  1  0
 24 50  1  6
 25 51  1  0
 29 52  1  0
 30 53  1  0
M  END
$$$$
