@<TRIPOS>MOLECULE
*****
 18 18 0 0 0
SMALL
GASTEIGER

@<TRIPOS>ATOM
      1 N           3.1207    0.1890   -0.0057 N.pl3   1  UNL1       -0.3579
      2 C           1.7088    0.0056   -0.0579 C.ar    1  UNL1        0.0281
      3 C           0.9855    1.0231    0.5312 C.ar    1  UNL1        0.0013
      4 C          -0.3967    0.9419    0.5347 C.ar    1  UNL1        0.1326
      5 O          -1.1911    1.9254    1.1074 O.3     1  UNL1       -0.5059
      6 C          -0.9641   -0.1679   -0.0603 C.ar    1  UNL1        0.1002
      7 C          -0.2251   -1.1759   -0.6447 C.ar    1  UNL1       -0.0425
      8 C           1.1491   -1.1065   -0.6543 C.ar    1  UNL1       -0.0400
      9 C          -2.4227   -0.2569   -0.0585 C.2     1  UNL1        0.3404
     10 O          -3.0606   -1.3644   -0.6497 O.3     1  UNL1       -0.4770
     11 O          -3.1127    0.6532    0.4699 O.2     1  UNL1       -0.2450
     12 H           3.3987   -0.4071    0.8294 H       1  UNL1        0.1423
     13 H           3.9615    0.6252   -0.4010 H       1  UNL1        0.1423
     14 H           1.4320    1.8869    0.9941 H       1  UNL1        0.0673
     15 H          -1.5144    2.7445    0.5789 H       1  UNL1        0.2922
     16 H          -0.6886   -2.0407   -1.1075 H       1  UNL1        0.0627
     17 H           1.8184   -1.8277   -1.0774 H       1  UNL1        0.0636
     18 H          -3.9987   -1.6476   -0.3284 H       1  UNL1        0.2954
@<TRIPOS>BOND
     1     1     2    1
     2     2     3   ar
     3     3     4   ar
     4     4     5    1
     5     4     6   ar
     6     6     7   ar
     7     7     8   ar
     8     6     9    1
     9     9    10    1
    10     9    11    2
    11     8     2   ar
    12     1    12    1
    13     1    13    1
    14     3    14    1
    15     5    15    1
    16     7    16    1
    17     8    17    1
    18    10    18    1
