
     RDKit          3D

 45 49  0  0  0  0  0  0  0  0999 V2000
    7.6451    0.4285    0.5624 C   0  0  0  0  0  0  0  0  0  0  0  0
    6.6758   -0.5059    0.9229 O   0  0  0  0  0  0  0  0  0  0  0  0
    5.3122   -0.2827    1.0099 C   0  0  0  0  0  0  0  0  0  0  0  0
    4.7547    0.9549    0.7345 C   0  0  0  0  0  0  0  0  0  0  0  0
    3.3746    1.0537    0.8564 C   0  0  0  0  0  0  0  0  0  0  0  0
    2.5618    0.0103    1.2261 C   0  0  0  0  0  0  0  0  0  0  0  0
    1.1287    0.2116    1.3551 C   0  0  0  0  0  0  0  0  0  0  0  0
    0.5313    0.5992    2.5375 N   0  0  0  0  0  0  0  0  0  0  0  0
   -0.7541    0.7046    2.3768 N   0  0  0  0  0  0  0  0  0  0  0  0
   -1.0497    0.3904    1.0850 C   0  0  0  0  0  0  0  0  0  0  0  0
   -2.2538    0.3521    0.4326 C   0  0  0  0  0  0  0  0  0  0  0  0
   -3.4605    0.7130    1.1440 C   0  0  0  0  0  0  0  0  0  0  0  0
   -3.3596    1.2079    2.3229 O   0  0  0  0  0  0  0  0  0  0  0  0
   -4.8077    0.5608    0.6251 C   0  0  0  0  0  0  0  0  0  0  0  0
   -5.0763   -0.3752   -0.3419 C   0  0  0  0  0  0  0  0  0  0  0  0
   -6.3706   -0.5153   -0.8588 C   0  0  0  0  0  0  0  0  0  0  0  0
   -7.3695    0.3033   -0.3787 C   0  0  0  0  0  0  0  0  0  0  0  0
   -7.0699    1.2345    0.5931 C   0  0  0  0  0  0  0  0  0  0  0  0
   -5.7951    1.3816    1.1110 C   0  0  0  0  0  0  0  0  0  0  0  0
   -2.2312    0.0008   -0.8557 N   0  0  0  0  0  0  0  0  0  0  0  0
   -1.0888   -0.3035   -1.4965 C   0  0  0  0  0  0  0  0  0  0  0  0
   -1.1225   -0.6554   -2.8364 C   0  0  0  0  0  0  0  0  0  0  0  0
    0.0375   -0.9621   -3.4997 C   0  0  0  0  0  0  0  0  0  0  0  0
    1.2406   -0.9217   -2.8366 C   0  0  0  0  0  0  0  0  0  0  0  0
    1.3015   -0.5676   -1.4792 C   0  0  0  0  0  0  0  0  0  0  0  0
    0.1308   -0.2636   -0.8313 C   0  0  0  0  0  0  0  0  0  0  0  0
    0.1410    0.0907    0.4841 N   0  0  0  0  0  0  0  0  0  0  0  0
    3.1596   -1.2240    1.4970 C   0  0  0  0  0  0  0  0  0  0  0  0
    4.5224   -1.3564    1.3862 C   0  0  0  0  0  0  0  0  0  0  0  0
    7.4741    0.7226   -0.4974 H   0  0  0  0  0  0  0  0  0  0  0  0
    8.6657   -0.0360    0.6115 H   0  0  0  0  0  0  0  0  0  0  0  0
    7.7025    1.3175    1.2162 H   0  0  0  0  0  0  0  0  0  0  0  0
    5.3766    1.7973    0.4382 H   0  0  0  0  0  0  0  0  0  0  0  0
    2.9621    2.0494    0.6306 H   0  0  0  0  0  0  0  0  0  0  0  0
   -4.3109   -1.0523   -0.7472 H   0  0  0  0  0  0  0  0  0  0  0  0
   -6.5619   -1.2568   -1.6165 H   0  0  0  0  0  0  0  0  0  0  0  0
   -8.3644    0.1780   -0.7902 H   0  0  0  0  0  0  0  0  0  0  0  0
   -7.8825    1.8611    0.9439 H   0  0  0  0  0  0  0  0  0  0  0  0
   -5.6582    2.1400    1.8694 H   0  0  0  0  0  0  0  0  0  0  0  0
   -2.0767   -0.6872   -3.3606 H   0  0  0  0  0  0  0  0  0  0  0  0
    0.0069   -1.2340   -4.5426 H   0  0  0  0  0  0  0  0  0  0  0  0
    2.1588   -1.1630   -3.3651 H   0  0  0  0  0  0  0  0  0  0  0  0
    2.2614   -0.5614   -1.0356 H   0  0  0  0  0  0  0  0  0  0  0  0
    2.5633   -2.0757    1.7937 H   0  0  0  0  0  0  0  0  0  0  0  0
    4.9750   -2.3376    1.6037 H   0  0  0  0  0  0  0  0  0  0  0  0
  1  2  1  0
  2  3  1  0
  3  4  2  0
  4  5  1  0
  5  6  2  0
  6  7  1  0
  7  8  2  0
  8  9  1  0
  9 10  2  0
 10 11  1  0
 11 12  1  0
 12 13  2  0
 12 14  1  0
 14 15  2  0
 15 16  1  0
 16 17  2  0
 17 18  1  0
 18 19  2  0
 11 20  2  0
 20 21  1  0
 21 22  2  0
 22 23  1  0
 23 24  2  0
 24 25  1  0
 25 26  2  0
 26 27  1  0
  6 28  1  0
 28 29  2  0
 29  3  1  0
 27  7  1  0
 27 10  1  0
 19 14  1  0
 26 21  1  0
  1 30  1  0
  1 31  1  0
  1 32  1  0
  4 33  1  0
  5 34  1  0
 15 35  1  0
 16 36  1  0
 17 37  1  0
 18 38  1  0
 19 39  1  0
 22 40  1  0
 23 41  1  0
 24 42  1  0
 25 43  1  0
 28 44  1  0
 29 45  1  0
M  END
$$$$
