@<TRIPOS>MOLECULE
*****
 45 49 0 0 0
SMALL
GASTEIGER

@<TRIPOS>ATOM
      1 C           7.6451    0.4285    0.5624 C.3     1  UNL1        0.0788
      2 O           6.6758   -0.5059    0.9229 O.3     1  UNL1       -0.4951
      3 C           5.3122   -0.2827    1.0099 C.ar    1  UNL1        0.1201
      4 C           4.7547    0.9549    0.7345 C.ar    1  UNL1       -0.0193
      5 C           3.3746    1.0537    0.8564 C.ar    1  UNL1       -0.0476
      6 C           2.5618    0.0103    1.2261 C.ar    1  UNL1        0.0198
      7 C           1.1287    0.2116    1.3551 C.ar    1  UNL1        0.1691
      8 N           0.5313    0.5992    2.5375 N.ar    1  UNL1       -0.1284
      9 N          -0.7541    0.7046    2.3768 N.ar    1  UNL1       -0.1267
     10 C          -1.0497    0.3904    1.0850 C.ar    1  UNL1        0.1913
     11 C          -2.2538    0.3521    0.4326 C.ar    1  UNL1        0.1561
     12 C          -3.4605    0.7130    1.1440 C.2     1  UNL1        0.2149
     13 O          -3.3596    1.2079    2.3229 O.2     1  UNL1       -0.2849
     14 C          -4.8077    0.5608    0.6251 C.ar    1  UNL1        0.0239
     15 C          -5.0763   -0.3752   -0.3419 C.ar    1  UNL1       -0.0509
     16 C          -6.3706   -0.5153   -0.8588 C.ar    1  UNL1       -0.0611
     17 C          -7.3695    0.3033   -0.3787 C.ar    1  UNL1       -0.0617
     18 C          -7.0699    1.2345    0.5931 C.ar    1  UNL1       -0.0611
     19 C          -5.7951    1.3816    1.1110 C.ar    1  UNL1       -0.0509
     20 N          -2.2312    0.0008   -0.8557 N.ar    1  UNL1       -0.2382
     21 C          -1.0888   -0.3035   -1.4965 C.ar    1  UNL1        0.0886
     22 C          -1.1225   -0.6554   -2.8364 C.ar    1  UNL1       -0.0343
     23 C           0.0375   -0.9621   -3.4997 C.ar    1  UNL1       -0.0596
     24 C           1.2406   -0.9217   -2.8366 C.ar    1  UNL1       -0.0597
     25 C           1.3015   -0.5676   -1.4792 C.ar    1  UNL1       -0.0357
     26 C           0.1308   -0.2636   -0.8313 C.ar    1  UNL1        0.0754
     27 N           0.1410    0.0907    0.4841 N.ar    1  UNL1       -0.2718
     28 C           3.1596   -1.2240    1.4970 C.ar    1  UNL1       -0.0476
     29 C           4.5224   -1.3564    1.3862 C.ar    1  UNL1       -0.0193
     30 H           7.4741    0.7226   -0.4974 H       1  UNL1        0.0660
     31 H           8.6657   -0.0360    0.6115 H       1  UNL1        0.0660
     32 H           7.7025    1.3175    1.2162 H       1  UNL1        0.0660
     33 H           5.3766    1.7973    0.4382 H       1  UNL1        0.0654
     34 H           2.9621    2.0494    0.6306 H       1  UNL1        0.0626
     35 H          -4.3109   -1.0523   -0.7472 H       1  UNL1        0.0625
     36 H          -6.5619   -1.2568   -1.6165 H       1  UNL1        0.0618
     37 H          -8.3644    0.1780   -0.7902 H       1  UNL1        0.0618
     38 H          -7.8825    1.8611    0.9439 H       1  UNL1        0.0618
     39 H          -5.6582    2.1400    1.8694 H       1  UNL1        0.0625
     40 H          -2.0767   -0.6872   -3.3606 H       1  UNL1        0.0639
     41 H           0.0069   -1.2340   -4.5426 H       1  UNL1        0.0618
     42 H           2.1588   -1.1630   -3.3651 H       1  UNL1        0.0618
     43 H           2.2614   -0.5614   -1.0356 H       1  UNL1        0.0639
     44 H           2.5633   -2.0757    1.7937 H       1  UNL1        0.0626
     45 H           4.9750   -2.3376    1.6037 H       1  UNL1        0.0654
@<TRIPOS>BOND
     1     1     2    1
     2     2     3    1
     3     3     4   ar
     4     4     5   ar
     5     5     6   ar
     6     6     7    1
     7     7     8   ar
     8     8     9   ar
     9     9    10   ar
    10    10    11   ar
    11    11    12    1
    12    12    13    2
    13    12    14    1
    14    14    15   ar
    15    15    16   ar
    16    16    17   ar
    17    17    18   ar
    18    18    19   ar
    19    11    20   ar
    20    20    21   ar
    21    21    22   ar
    22    22    23   ar
    23    23    24   ar
    24    24    25   ar
    25    25    26   ar
    26    26    27   ar
    27     6    28   ar
    28    28    29   ar
    29    29     3   ar
    30    27     7   ar
    31    27    10   ar
    32    19    14   ar
    33    26    21   ar
    34     1    30    1
    35     1    31    1
    36     1    32    1
    37     4    33    1
    38     5    34    1
    39    15    35    1
    40    16    36    1
    41    17    37    1
    42    18    38    1
    43    19    39    1
    44    22    40    1
    45    23    41    1
    46    24    42    1
    47    25    43    1
    48    28    44    1
    49    29    45    1
