@<TRIPOS>MOLECULE
*****
 45 46 0 0 0
SMALL
GASTEIGER

@<TRIPOS>ATOM
      1 C           0.8891    2.8884    0.5298 C.3     1  UNL1        0.0000
      2 C          -0.0792    1.9079   -0.0835 C.3     1  UNL1        0.0000
      3 C          -0.1033    2.1263   -1.5588 C.3     1  UNL1        0.0000
      4 C           0.2317    0.4777    0.2974 C.3     1  UNL1        0.0000
      5 N           1.5811    0.1194   -0.1529 N.am    1  UNL1        0.0000
      6 C           2.5628   -0.3012    0.7597 C.2     1  UNL1        0.0000
      7 O           2.3234   -0.3895    2.0161 O.2     1  UNL1        0.0000
      8 C           3.9106   -0.6651    0.3568 C.ar    1  UNL1        0.0000
      9 C           4.8621   -1.0791    1.2843 C.ar    1  UNL1        0.0000
     10 C           6.1210   -1.4136    0.8677 C.ar    1  UNL1        0.0000
     11 C           6.4961   -1.3585   -0.4509 C.ar    1  UNL1        0.0000
     12 N           5.5872   -0.9629   -1.3381 N.ar    1  UNL1        0.0000
     13 C           4.3229   -0.6227   -0.9517 C.ar    1  UNL1        0.0000
     14 C          -0.7570   -0.4694   -0.2719 C.2     1  UNL1        0.0000
     15 O          -0.3026   -1.3294   -1.1215 O.2     1  UNL1        0.0000
     16 N          -2.1336   -0.5055    0.0389 N.am    1  UNL1        0.0000
     17 C          -2.8263    0.3442    0.9619 C.3     1  UNL1        0.0000
     18 C          -4.0085   -0.4653    1.4550 C.3     1  UNL1        0.0000
     19 C          -3.9988   -1.7239    0.6685 C.3     1  UNL1        0.0000
     20 C          -3.1289   -1.4237   -0.5164 C.3     1  UNL1        0.0000
     21 B          -3.9506   -0.7485   -1.6709 B       1  UNL1        0.0000
     22 O          -4.7626    0.4291   -1.4079 O.3     1  UNL1        0.0000
     23 O          -4.1910   -1.4957   -2.8973 O.3     1  UNL1        0.0000
     24 H           0.8405    3.8468   -0.0287 H       1  UNL1        0.0000
     25 H           0.6399    3.1255    1.5841 H       1  UNL1        0.0000
     26 H           1.9397    2.5498    0.4706 H       1  UNL1        0.0000
     27 H          -1.0659    2.1605    0.3339 H       1  UNL1        0.0000
     28 H           0.9168    2.1913   -2.0092 H       1  UNL1        0.0000
     29 H          -0.5800    3.1095   -1.7619 H       1  UNL1        0.0000
     30 H          -0.6828    1.3754   -2.1184 H       1  UNL1        0.0000
     31 H           0.2262    0.3382    1.3907 H       1  UNL1        0.0000
     32 H           1.7774    0.1882   -1.1556 H       1  UNL1        0.0000
     33 H           4.5633   -1.1223    2.3293 H       1  UNL1        0.0000
     34 H           6.8587   -1.7370    1.6051 H       1  UNL1        0.0000
     35 H           7.5062   -1.6340   -0.7308 H       1  UNL1        0.0000
     36 H           3.6040   -0.3036   -1.7008 H       1  UNL1        0.0000
     37 H          -2.1972    0.6799    1.7835 H       1  UNL1        0.0000
     38 H          -3.2170    1.2302    0.3795 H       1  UNL1        0.0000
     39 H          -4.9421    0.1172    1.3120 H       1  UNL1        0.0000
     40 H          -3.8835   -0.6286    2.5515 H       1  UNL1        0.0000
     41 H          -3.6083   -2.5560    1.2871 H       1  UNL1        0.0000
     42 H          -5.0279   -1.9546    0.2945 H       1  UNL1        0.0000
     43 H          -2.6653   -2.3635   -0.8537 H       1  UNL1        0.0000
     44 H          -5.5155    0.4980   -2.0429 H       1  UNL1        0.0000
     45 H          -4.1330   -2.4498   -2.7096 H       1  UNL1        0.0000
@<TRIPOS>BOND
     1     1     2    1
     2     2     3    1
     3     2     4    1
     4     4     5    1
     5     5     6   am
     6     6     7    2
     7     6     8    1
     8     8     9   ar
     9     9    10   ar
    10    10    11   ar
    11    11    12   ar
    12    12    13   ar
    13     4    14    1
    14    14    15    2
    15    14    16   am
    16    16    17    1
    17    17    18    1
    18    18    19    1
    19    19    20    1
    20    20    21    1
    21    21    22    1
    22    21    23    1
    23    13     8   ar
    24    20    16    1
    25     1    24    1
    26     1    25    1
    27     1    26    1
    28     2    27    1
    29     3    28    1
    30     3    29    1
    31     3    30    1
    32     4    31    1
    33     5    32    1
    34     9    33    1
    35    10    34    1
    36    11    35    1
    37    13    36    1
    38    17    37    1
    39    17    38    1
    40    18    39    1
    41    18    40    1
    42    19    41    1
    43    19    42    1
    44    20    43    1
    45    22    44    1
    46    23    45    1
