@<TRIPOS>MOLECULE
*****
 37 39 0 0 0
SMALL
GASTEIGER

@<TRIPOS>ATOM
      1 C           2.9863   -0.4900   -2.3151 C.3     1  UNL1       -0.0350
      2 C           2.9694    0.0914   -0.9494 C.2     1  UNL1        0.0106
      3 C           1.7064    0.6191   -0.4011 C.ar    1  UNL1        0.1327
      4 C           1.4223    1.6984    0.4098 C.ar    1  UNL1       -0.0155
      5 C           0.0748    1.7623    0.6371 C.ar    1  UNL1       -0.0153
      6 C          -0.4309    0.6729   -0.0748 C.ar    1  UNL1        0.1357
      7 O           0.5472    0.0246   -0.6708 O.2     1  UNL1       -0.4551
      8 C          -1.8630    0.3531   -0.1102 C.ar    1  UNL1        0.0174
      9 C          -2.8090    1.0999    0.5555 C.ar    1  UNL1       -0.0492
     10 C          -4.1578    0.7458    0.4818 C.ar    1  UNL1       -0.0347
     11 C          -4.5732   -0.3548   -0.2555 C.ar    1  UNL1        0.1050
     12 C          -3.6137   -1.1025   -0.9234 C.ar    1  UNL1       -0.0347
     13 C          -2.2759   -0.7548   -0.8530 C.ar    1  UNL1       -0.0492
     14 S          -6.2530   -0.7811   -0.3359 S.O2    1  UNL1        0.0559
     15 N          -6.7127   -1.8825    0.9012 N.3     1  UNL1       -0.2035
     16 O          -7.1441    0.4381   -0.2269 O.2     1  UNL1       -0.1533
     17 O          -6.5900   -1.4192   -1.6506 O.2     1  UNL1       -0.1533
     18 C           4.0654    0.1497   -0.2124 C.2     1  UNL1        0.0837
     19 S           4.1604    0.8283    1.4455 S.3     1  UNL1       -0.0491
     20 C           5.8509    0.3045    1.7612 C.2     1  UNL1        0.1579
     21 N           6.4544    0.3885    2.8735 N.2     1  UNL1       -0.2793
     22 N           6.3333   -0.2062    0.5126 N.am    1  UNL1       -0.2607
     23 C           5.4136   -0.2976   -0.5424 C.2     1  UNL1        0.2568
     24 O           5.7372   -0.7332   -1.6811 O.2     1  UNL1       -0.2692
     25 H           3.3038    0.2557   -3.0787 H       1  UNL1        0.0279
     26 H           1.9426   -0.8542   -2.5155 H       1  UNL1        0.0279
     27 H           3.6302   -1.3771   -2.4072 H       1  UNL1        0.0279
     28 H           2.2199    2.3347    0.7580 H       1  UNL1        0.0655
     29 H          -0.4209    2.5119    1.2407 H       1  UNL1        0.0656
     30 H          -2.4894    1.9517    1.1272 H       1  UNL1        0.0625
     31 H          -4.9114    1.3218    0.9964 H       1  UNL1        0.0637
     32 H          -3.9302   -1.9615   -1.4975 H       1  UNL1        0.0637
     33 H          -1.5068   -1.3223   -1.3656 H       1  UNL1        0.0625
     34 H          -7.7244   -1.8999    1.0631 H       1  UNL1        0.1442
     35 H          -6.2167   -1.6997    1.7843 H       1  UNL1        0.1442
     36 H           7.4467    0.0696    3.0187 H       1  UNL1        0.1886
     37 H           7.3582   -0.4851    0.4603 H       1  UNL1        0.1571
@<TRIPOS>BOND
     1     1     2    1
     2     2     3    1
     3     3     4   ar
     4     4     5   ar
     5     5     6   ar
     6     6     7   ar
     7     6     8    1
     8     8     9   ar
     9     9    10   ar
    10    10    11   ar
    11    11    12   ar
    12    12    13   ar
    13    11    14    1
    14    14    15    1
    15    14    16    2
    16    14    17    2
    17     2    18    2
    18    18    19    1
    19    19    20    1
    20    20    21    2
    21    20    22    1
    22    22    23   am
    23    23    24    2
    24     7     3   ar
    25    13     8   ar
    26    23    18    1
    27     1    25    1
    28     1    26    1
    29     1    27    1
    30     4    28    1
    31     5    29    1
    32     9    30    1
    33    10    31    1
    34    12    32    1
    35    13    33    1
    36    15    34    1
    37    15    35    1
    38    21    36    1
    39    22    37    1
