
     RDKit          3D

 56 59  0  0  0  0  0  0  0  0999 V2000
   -5.9575    3.4398    0.8648 N   0  0  0  0  0  0  0  0  0  0  0  0
   -5.9902    2.0700    0.4836 C   0  0  0  0  0  0  0  0  0  0  0  0
   -6.9166    1.3194    0.9326 N   0  0  0  0  0  0  0  0  0  0  0  0
   -7.0322   -0.0742    0.6044 C   0  0  0  0  0  0  0  0  0  0  0  0
   -5.8509   -0.6618   -0.0932 C   0  0  0  0  0  0  0  0  0  0  0  0
   -5.3691    0.3479   -1.1442 C   0  0  0  0  0  0  0  0  0  0  0  0
   -5.0104    1.5331   -0.3838 N   0  0  0  0  0  0  0  0  0  0  0  0
   -3.7084    2.1578   -0.4922 C   0  0  0  0  0  0  0  0  0  0  0  0
   -2.5892    1.2851   -0.1193 C   0  0  0  0  0  0  0  0  0  0  0  0
   -1.9604    0.5099   -1.0692 C   0  0  0  0  0  0  0  0  0  0  0  0
   -0.8980   -0.3310   -0.7549 C   0  0  0  0  0  0  0  0  0  0  0  0
   -0.4346   -0.4189    0.5231 C   0  0  0  0  0  0  0  0  0  0  0  0
    0.6754   -1.2793    0.9251 C   0  0  0  0  0  0  0  0  0  0  0  0
    1.0656   -1.3241    2.1210 O   0  0  0  0  0  0  0  0  0  0  0  0
    1.3636   -2.1000    0.0000 N   0  0  0  0  0  0  0  0  0  0  0  0
    2.4368   -2.9235    0.4236 C   0  0  0  0  0  0  0  0  0  0  0  0
    2.1777   -4.2207    0.8483 C   0  0  0  0  0  0  0  0  0  0  0  0
    3.2222   -5.0251    1.2615 C   0  0  0  0  0  0  0  0  0  0  0  0
    4.5146   -4.5536    1.2561 C   0  0  0  0  0  0  0  0  0  0  0  0
    5.8748   -5.5371    1.7716 Cl  0  0  0  0  0  0  0  0  0  0  0  0
    4.7283   -3.2609    0.8273 C   0  0  0  0  0  0  0  0  0  0  0  0
    3.7220   -2.4231    0.4071 C   0  0  0  0  0  0  0  0  0  0  0  0
    3.9248   -1.0525   -0.0505 C   0  0  0  0  0  0  0  0  0  0  0  0
    2.9243   -0.3887   -0.4087 O   0  0  0  0  0  0  0  0  0  0  0  0
    5.1741   -0.4203   -0.1179 N   0  0  0  0  0  0  0  0  0  0  0  0
    5.4985    0.8708   -0.5324 C   0  0  0  0  0  0  0  0  0  0  0  0
    4.6024    1.7799   -0.9640 C   0  0  0  0  0  0  0  0  0  0  0  0
    4.9896    3.0511   -1.3637 C   0  0  0  0  0  0  0  0  0  0  0  0
    6.2985    3.4029   -1.3250 C   0  0  0  0  0  0  0  0  0  0  0  0
    6.8433    5.0026   -1.8207 Cl  0  0  0  0  0  0  0  0  0  0  0  0
    7.2129    2.4732   -0.8838 C   0  0  0  0  0  0  0  0  0  0  0  0
    6.8049    1.2547   -0.5053 N   0  0  0  0  0  0  0  0  0  0  0  0
   -1.0585    0.3570    1.4923 C   0  0  0  0  0  0  0  0  0  0  0  0
   -2.1168    1.1924    1.1709 C   0  0  0  0  0  0  0  0  0  0  0  0
   -5.4963    4.1797    0.2660 H   0  0  0  0  0  0  0  0  0  0  0  0
   -6.3807    3.7992    1.7483 H   0  0  0  0  0  0  0  0  0  0  0  0
   -7.9910   -0.2525    0.0489 H   0  0  0  0  0  0  0  0  0  0  0  0
   -7.1726   -0.6113    1.5885 H   0  0  0  0  0  0  0  0  0  0  0  0
   -6.0597   -1.6278   -0.5546 H   0  0  0  0  0  0  0  0  0  0  0  0
   -5.0157   -0.7242    0.6578 H   0  0  0  0  0  0  0  0  0  0  0  0
   -4.5531   -0.0542   -1.7406 H   0  0  0  0  0  0  0  0  0  0  0  0
   -6.2721    0.5954   -1.7472 H   0  0  0  0  0  0  0  0  0  0  0  0
   -3.6196    2.4861   -1.5597 H   0  0  0  0  0  0  0  0  0  0  0  0
   -3.7279    3.0966    0.0957 H   0  0  0  0  0  0  0  0  0  0  0  0
   -2.2606    0.5196   -2.0989 H   0  0  0  0  0  0  0  0  0  0  0  0
   -0.4250   -0.9295   -1.5319 H   0  0  0  0  0  0  0  0  0  0  0  0
    1.1170   -2.1344   -1.0124 H   0  0  0  0  0  0  0  0  0  0  0  0
    1.1671   -4.6243    0.8648 H   0  0  0  0  0  0  0  0  0  0  0  0
    3.0300   -6.0356    1.5936 H   0  0  0  0  0  0  0  0  0  0  0  0
    5.7376   -2.9040    0.8270 H   0  0  0  0  0  0  0  0  0  0  0  0
    5.9931   -1.0403    0.2022 H   0  0  0  0  0  0  0  0  0  0  0  0
    3.5538    1.5836   -1.0253 H   0  0  0  0  0  0  0  0  0  0  0  0
    4.2573    3.7638   -1.7058 H   0  0  0  0  0  0  0  0  0  0  0  0
    8.2641    2.7693   -0.8574 H   0  0  0  0  0  0  0  0  0  0  0  0
   -0.6962    0.2911    2.5031 H   0  0  0  0  0  0  0  0  0  0  0  0
   -2.6108    1.8009    1.9148 H   0  0  0  0  0  0  0  0  0  0  0  0
  1  2  1  0
  2  3  2  0
  3  4  1  0
  4  5  1  0
  5  6  1  0
  6  7  1  0
  7  8  1  0
  8  9  1  0
  9 10  2  0
 10 11  1  0
 11 12  2  0
 12 13  1  0
 13 14  2  0
 13 15  1  0
 15 16  1  0
 16 17  2  0
 17 18  1  0
 18 19  2  0
 19 20  1  0
 19 21  1  0
 21 22  2  0
 22 23  1  0
 23 24  2  0
 23 25  1  0
 25 26  1  0
 26 27  2  0
 27 28  1  0
 28 29  2  0
 29 30  1  0
 29 31  1  0
 31 32  2  0
 12 33  1  0
 33 34  2  0
  7  2  1  0
 34  9  1  0
 22 16  1  0
 32 26  1  0
  1 35  1  0
  1 36  1  0
  4 37  1  0
  4 38  1  0
  5 39  1  0
  5 40  1  0
  6 41  1  0
  6 42  1  0
  8 43  1  0
  8 44  1  0
 10 45  1  0
 11 46  1  0
 15 47  1  0
 17 48  1  0
 18 49  1  0
 21 50  1  0
 25 51  1  0
 27 52  1  0
 28 53  1  0
 31 54  1  0
 33 55  1  0
 34 56  1  0
M  END
$$$$
