@<TRIPOS>MOLECULE
*****
 56 59 0 0 0
SMALL
GASTEIGER

@<TRIPOS>ATOM
      1 N          -5.9575    3.4398    0.8648 N.pl3   1  UNL1       -0.2516
      2 C          -5.9902    2.0700    0.4836 C.cat   1  UNL1        0.3648
      3 N          -6.9166    1.3194    0.9326 N.2     1  UNL1       -0.1172
      4 C          -7.0322   -0.0742    0.6044 C.3     1  UNL1        0.1070
      5 C          -5.8509   -0.6618   -0.0932 C.3     1  UNL1        0.0104
      6 C          -5.3691    0.3479   -1.1442 C.3     1  UNL1        0.0638
      7 N          -5.0104    1.5331   -0.3838 N.pl3   1  UNL1       -0.2210
      8 C          -3.7084    2.1578   -0.4922 C.3     1  UNL1        0.0858
      9 C          -2.5892    1.2851   -0.1193 C.ar    1  UNL1       -0.0158
     10 C          -1.9604    0.5099   -1.0692 C.ar    1  UNL1       -0.0550
     11 C          -0.8980   -0.3310   -0.7549 C.ar    1  UNL1       -0.0493
     12 C          -0.4346   -0.4189    0.5231 C.ar    1  UNL1        0.0370
     13 C           0.6754   -1.2793    0.9251 C.2     1  UNL1        0.2483
     14 O           1.0656   -1.3241    2.1210 O.2     1  UNL1       -0.2699
     15 N           1.3636   -2.1000    0.0000 N.am    1  UNL1       -0.2808
     16 C           2.4368   -2.9235    0.4236 C.ar    1  UNL1        0.0459
     17 C           2.1777   -4.2207    0.8483 C.ar    1  UNL1       -0.0384
     18 C           3.2222   -5.0251    1.2615 C.ar    1  UNL1       -0.0416
     19 C           4.5146   -4.5536    1.2561 C.ar    1  UNL1        0.0418
     20 CL          5.8748   -5.5371    1.7716 Cl      1  UNL1       -0.0835
     21 C           4.7283   -3.2609    0.8273 C.ar    1  UNL1       -0.0295
     22 C           3.7220   -2.4231    0.4071 C.ar    1  UNL1        0.0596
     23 C           3.9248   -1.0525   -0.0505 C.2     1  UNL1        0.2511
     24 O           2.9243   -0.3887   -0.4087 O.2     1  UNL1       -0.2697
     25 N           5.1741   -0.4203   -0.1179 N.am    1  UNL1       -0.2663
     26 C           5.4985    0.8708   -0.5324 C.ar    1  UNL1        0.1252
     27 C           4.6024    1.7799   -0.9640 C.ar    1  UNL1       -0.0201
     28 C           4.9896    3.0511   -1.3637 C.ar    1  UNL1       -0.0387
     29 C           6.2985    3.4029   -1.3250 C.ar    1  UNL1        0.0592
     30 CL          6.8433    5.0026   -1.8207 Cl      1  UNL1       -0.0820
     31 C           7.2129    2.4732   -0.8838 C.ar    1  UNL1        0.0480
     32 N           6.8049    1.2547   -0.5053 N.ar    1  UNL1       -0.2387
     33 C          -1.0585    0.3570    1.4923 C.ar    1  UNL1       -0.0493
     34 C          -2.1168    1.1924    1.1709 C.ar    1  UNL1       -0.0550
     35 H          -5.4963    4.1797    0.2660 H       1  UNL1        0.2412
     36 H          -6.3807    3.7992    1.7483 H       1  UNL1        0.2412
     37 H          -7.9910   -0.2525    0.0489 H       1  UNL1        0.0694
     38 H          -7.1726   -0.6113    1.5885 H       1  UNL1        0.0694
     39 H          -6.0597   -1.6278   -0.5546 H       1  UNL1        0.0326
     40 H          -5.0157   -0.7242    0.6578 H       1  UNL1        0.0326
     41 H          -4.5531   -0.0542   -1.7406 H       1  UNL1        0.0635
     42 H          -6.2721    0.5954   -1.7472 H       1  UNL1        0.0635
     43 H          -3.6196    2.4861   -1.5597 H       1  UNL1        0.0685
     44 H          -3.7279    3.0966    0.0957 H       1  UNL1        0.0685
     45 H          -2.2606    0.5196   -2.0989 H       1  UNL1        0.0621
     46 H          -0.4250   -0.9295   -1.5319 H       1  UNL1        0.0625
     47 H           1.1170   -2.1344   -1.0124 H       1  UNL1        0.1552
     48 H           1.1671   -4.6243    0.8648 H       1  UNL1        0.0637
     49 H           3.0300   -6.0356    1.5936 H       1  UNL1        0.0633
     50 H           5.7376   -2.9040    0.8270 H       1  UNL1        0.0640
     51 H           5.9931   -1.0403    0.2022 H       1  UNL1        0.1566
     52 H           3.5538    1.5836   -1.0253 H       1  UNL1        0.0652
     53 H           4.2573    3.7638   -1.7058 H       1  UNL1        0.0634
     54 H           8.2641    2.7693   -0.8574 H       1  UNL1        0.0845
     55 H          -0.6962    0.2911    2.5031 H       1  UNL1        0.0625
     56 H          -2.6108    1.8009    1.9148 H       1  UNL1        0.0621
@<TRIPOS>BOND
     1     1     2    1
     2     2     3    2
     3     3     4    1
     4     4     5    1
     5     5     6    1
     6     6     7    1
     7     7     8    1
     8     8     9    1
     9     9    10   ar
    10    10    11   ar
    11    11    12   ar
    12    12    13    1
    13    13    14    2
    14    13    15   am
    15    15    16    1
    16    16    17   ar
    17    17    18   ar
    18    18    19   ar
    19    19    20    1
    20    19    21   ar
    21    21    22   ar
    22    22    23    1
    23    23    24    2
    24    23    25   am
    25    25    26    1
    26    26    27   ar
    27    27    28   ar
    28    28    29   ar
    29    29    30    1
    30    29    31   ar
    31    31    32   ar
    32    12    33   ar
    33    33    34   ar
    34     7     2    1
    35    34     9   ar
    36    22    16   ar
    37    32    26   ar
    38     1    35    1
    39     1    36    1
    40     4    37    1
    41     4    38    1
    42     5    39    1
    43     5    40    1
    44     6    41    1
    45     6    42    1
    46     8    43    1
    47     8    44    1
    48    10    45    1
    49    11    46    1
    50    15    47    1
    51    17    48    1
    52    18    49    1
    53    21    50    1
    54    25    51    1
    55    27    52    1
    56    28    53    1
    57    31    54    1
    58    33    55    1
    59    34    56    1
