@<TRIPOS>MOLECULE
*****
 50 52 0 0 0
SMALL
GASTEIGER

@<TRIPOS>ATOM
      1 C          -2.5618    0.3791   -1.3781 C.3     1  UNL1       -0.0541
      2 C          -2.9547   -0.2905   -0.0779 C.3     1  UNL1        0.0088
      3 C          -3.8771    0.5659    0.7017 C.ar    1  UNL1       -0.0400
      4 C          -4.3582    0.1555    1.9284 C.ar    1  UNL1       -0.0580
      5 C          -5.2223    0.9359    2.6781 C.ar    1  UNL1       -0.0615
      6 C          -5.6442    2.1683    2.2283 C.ar    1  UNL1       -0.0617
      7 C          -5.1690    2.5863    1.0043 C.ar    1  UNL1       -0.0615
      8 C          -4.3014    1.7997    0.2547 C.ar    1  UNL1       -0.0580
      9 C          -3.5214   -1.6666   -0.3325 C.3     1  UNL1       -0.0408
     10 C          -2.5533   -2.3959   -1.2340 C.3     1  UNL1       -0.0363
     11 C          -1.1234   -2.2889   -0.8630 C.3     1  UNL1        0.0162
     12 N          -0.7257   -1.1278   -0.1433 N.am    1  UNL1       -0.2848
     13 C           0.5663   -0.5307   -0.2234 C.2     1  UNL1        0.3022
     14 O           0.8278    0.5010    0.4488 O.2     1  UNL1       -0.2526
     15 N           1.6006   -1.0513   -1.0421 N.am    1  UNL1       -0.2989
     16 C           2.9008   -0.4374   -1.1079 C.3     1  UNL1        0.0170
     17 C           3.5805   -0.4349    0.2374 C.3     1  UNL1       -0.0120
     18 C           4.9222    0.2151    0.0834 C.ar    1  UNL1       -0.0458
     19 C           6.0577   -0.5011   -0.2303 C.ar    1  UNL1       -0.0571
     20 C           7.2823    0.1240   -0.3661 C.ar    1  UNL1       -0.0431
     21 C           7.3849    1.5002   -0.1858 C.ar    1  UNL1        0.0410
     22 CL          8.9322    2.3036   -0.3555 Cl      1  UNL1       -0.0835
     23 C           6.2590    2.2214    0.1269 C.ar    1  UNL1       -0.0431
     24 C           5.0547    1.5867    0.2576 C.ar    1  UNL1       -0.0571
     25 C          -1.6964   -0.5071    0.7367 C.3     1  UNL1        0.0255
     26 H          -3.4833    0.5318   -1.9968 H       1  UNL1        0.0239
     27 H          -1.7999   -0.1727   -1.9268 H       1  UNL1        0.0239
     28 H          -2.1087    1.3731   -1.1011 H       1  UNL1        0.0239
     29 H          -4.0185   -0.8195    2.2740 H       1  UNL1        0.0620
     30 H          -5.5749    0.5741    3.6356 H       1  UNL1        0.0618
     31 H          -6.3284    2.7910    2.8172 H       1  UNL1        0.0618
     32 H          -5.4958    3.5650    0.6330 H       1  UNL1        0.0618
     33 H          -3.9435    2.1607   -0.7126 H       1  UNL1        0.0620
     34 H          -4.5012   -1.6460   -0.8394 H       1  UNL1        0.0275
     35 H          -3.5917   -2.2200    0.6250 H       1  UNL1        0.0275
     36 H          -2.8295   -3.4774   -1.2822 H       1  UNL1        0.0281
     37 H          -2.7148   -1.9579   -2.2623 H       1  UNL1        0.0281
     38 H          -0.5401   -2.3091   -1.8304 H       1  UNL1        0.0465
     39 H          -0.7369   -3.1754   -0.3030 H       1  UNL1        0.0465
     40 H           1.4272   -1.9052   -1.6181 H       1  UNL1        0.1502
     41 H           3.5412   -0.9503   -1.8553 H       1  UNL1        0.0466
     42 H           2.8071    0.6421   -1.4315 H       1  UNL1        0.0466
     43 H           3.7991   -1.5072    0.4807 H       1  UNL1        0.0328
     44 H           2.9884    0.0225    1.0238 H       1  UNL1        0.0328
     45 H           5.9848   -1.5632   -0.3706 H       1  UNL1        0.0621
     46 H           8.1432   -0.4868   -0.6138 H       1  UNL1        0.0632
     47 H           6.3527    3.2833    0.2634 H       1  UNL1        0.0632
     48 H           4.1822    2.1637    0.5025 H       1  UNL1        0.0621
     49 H          -1.3311    0.4698    1.1424 H       1  UNL1        0.0474
     50 H          -1.8877   -1.1969    1.5996 H       1  UNL1        0.0474
@<TRIPOS>BOND
     1     1     2    1
     2     2     3    1
     3     3     4   ar
     4     4     5   ar
     5     5     6   ar
     6     6     7   ar
     7     7     8   ar
     8     2     9    1
     9     9    10    1
    10    10    11    1
    11    11    12    1
    12    12    13   am
    13    13    14    2
    14    13    15   am
    15    15    16    1
    16    16    17    1
    17    17    18    1
    18    18    19   ar
    19    19    20   ar
    20    20    21   ar
    21    21    22    1
    22    21    23   ar
    23    23    24   ar
    24    12    25    1
    25    25     2    1
    26     8     3   ar
    27    24    18   ar
    28     1    26    1
    29     1    27    1
    30     1    28    1
    31     4    29    1
    32     5    30    1
    33     6    31    1
    34     7    32    1
    35     8    33    1
    36     9    34    1
    37     9    35    1
    38    10    36    1
    39    10    37    1
    40    11    38    1
    41    11    39    1
    42    15    40    1
    43    16    41    1
    44    16    42    1
    45    17    43    1
    46    17    44    1
    47    19    45    1
    48    20    46    1
    49    23    47    1
    50    24    48    1
    51    25    49    1
    52    25    50    1
