@<TRIPOS>MOLECULE
*****
 91 95 0 0 0
SMALL
GASTEIGER

@<TRIPOS>ATOM
      1 C           2.6130    5.8483   -3.3671 C.3     1  UNL1       -0.0524
      2 C           1.6429    5.3874   -2.3187 C.3     1  UNL1       -0.0039
      3 N           0.5945    4.5647   -2.7691 N.3     1  UNL1       -0.3014
      4 C          -0.3954    5.1023   -3.6124 C.3     1  UNL1       -0.0039
      5 C           0.0429    5.4913   -4.9948 C.3     1  UNL1       -0.0524
      6 C           0.7957    3.1699   -2.8403 C.3     1  UNL1        0.0147
      7 C           0.9332    2.5196   -1.4587 C.3     1  UNL1        0.0278
      8 N           1.1454    1.0980   -1.5376 N.am    1  UNL1       -0.2945
      9 C           2.5172    0.6185   -1.6443 C.3     1  UNL1        0.0398
     10 C           3.0741    0.2287   -0.3021 C.ar    1  UNL1       -0.0301
     11 C           3.0310   -1.0976    0.0917 C.ar    1  UNL1       -0.0565
     12 C           3.5032   -1.4801    1.3323 C.ar    1  UNL1       -0.0537
     13 C           4.0364   -0.5515    2.2274 C.ar    1  UNL1       -0.0179
     14 C           4.5060   -1.0166    3.5071 C.ar    1  UNL1       -0.0179
     15 C           3.8917   -2.1007    4.1138 C.ar    1  UNL1       -0.0535
     16 C           4.3448   -2.5386    5.3250 C.ar    1  UNL1       -0.0495
     17 C           5.4067   -1.9325    5.9793 C.ar    1  UNL1        0.0548
     18 C           5.8808   -2.4122    7.2806 C.3     1  UNL1        0.4174
     19 F           6.1449   -3.7647    7.1512 F       1  UNL1       -0.1659
     20 F           4.8677   -2.1765    8.1966 F       1  UNL1       -0.1659
     21 F           7.0461   -1.7877    7.6434 F       1  UNL1       -0.1659
     22 C           6.0369   -0.8493    5.3942 C.ar    1  UNL1       -0.0495
     23 C           5.5584   -0.4305    4.1707 C.ar    1  UNL1       -0.0535
     24 C           4.0826    0.7668    1.8442 C.ar    1  UNL1       -0.0537
     25 C           3.5992    1.1218    0.5882 C.ar    1  UNL1       -0.0565
     26 C           0.0899    0.1942   -1.5254 C.2     1  UNL1        0.2357
     27 O           0.3244   -1.0421   -1.5944 O.2     1  UNL1       -0.2736
     28 C          -1.3235    0.6845   -1.4232 C.3     1  UNL1        0.1015
     29 N          -2.2064   -0.4610   -1.1898 N.ar    1  UNL1       -0.3177
     30 C          -2.6973   -1.2237   -2.1670 C.ar    1  UNL1        0.0161
     31 C          -3.4942   -2.3335   -1.8892 C.ar    1  UNL1        0.0394
     32 C          -4.0103   -3.1490   -3.0191 C.3     1  UNL1        0.0071
     33 C          -5.4318   -2.9144   -3.2523 C.ar    1  UNL1       -0.0054
     34 C          -6.4916   -3.6224   -2.7361 C.ar    1  UNL1        0.0528
     35 N          -7.6423   -3.0717   -3.1980 N.ar    1  UNL1       -0.1796
     36 N          -7.3419   -2.0485   -3.9823 N.ar    1  UNL1       -0.2742
     37 C          -8.3257   -1.2146   -4.6560 C.3     1  UNL1        0.0302
     38 C          -5.9832   -1.9202   -4.0398 C.ar    1  UNL1        0.0286
     39 C          -3.7467   -2.5991   -0.5801 C.ar    1  UNL1        0.2773
     40 O          -4.4728   -3.6060   -0.2883 O.2     1  UNL1       -0.2655
     41 N          -3.2371   -1.8102    0.3712 N.ar    1  UNL1       -0.1848
     42 C          -2.4783   -0.7555    0.1049 C.ar    1  UNL1        0.1733
     43 S          -1.8560    0.2742    1.3980 S.3     1  UNL1       -0.0829
     44 C          -2.3005   -0.2169    3.0475 C.3     1  UNL1        0.0262
     45 C          -1.6778   -1.4714    3.5287 C.ar    1  UNL1       -0.0370
     46 C          -2.2397   -2.7257    3.4076 C.ar    1  UNL1       -0.0551
     47 C          -1.6043   -3.8653    3.8882 C.ar    1  UNL1       -0.0262
     48 C          -0.3790   -3.7857    4.5071 C.ar    1  UNL1        0.1234
     49 F           0.2676   -4.8841    4.9878 F       1  UNL1       -0.2055
     50 C           0.1959   -2.5228    4.6323 C.ar    1  UNL1       -0.0262
     51 C          -0.4364   -1.4077    4.1586 C.ar    1  UNL1       -0.0551
     52 H           3.6317    5.8279   -2.9338 H       1  UNL1        0.0242
     53 H           2.4480    6.9099   -3.6582 H       1  UNL1        0.0242
     54 H           2.6252    5.1673   -4.2430 H       1  UNL1        0.0242
     55 H           2.2306    4.8281   -1.5435 H       1  UNL1        0.0424
     56 H           1.3070    6.3089   -1.7762 H       1  UNL1        0.0424
     57 H          -0.9567    5.9626   -3.1897 H       1  UNL1        0.0424
     58 H          -1.1806    4.3007   -3.7611 H       1  UNL1        0.0424
     59 H          -0.9115    5.5726   -5.5966 H       1  UNL1        0.0242
     60 H           0.6515    4.7567   -5.5160 H       1  UNL1        0.0242
     61 H           0.5541    6.4608   -5.0465 H       1  UNL1        0.0242
     62 H          -0.1129    2.7224   -3.3030 H       1  UNL1        0.0442
     63 H           1.6935    2.9179   -3.4689 H       1  UNL1        0.0442
     64 H           1.7675    2.9746   -0.8869 H       1  UNL1        0.0477
     65 H           0.0163    2.8107   -0.9091 H       1  UNL1        0.0477
     66 H           3.2038    1.3680   -2.0862 H       1  UNL1        0.0514
     67 H           2.4636   -0.2755   -2.2949 H       1  UNL1        0.0514
     68 H           2.6347   -1.8394   -0.5864 H       1  UNL1        0.0621
     69 H           3.4404   -2.5350    1.5710 H       1  UNL1        0.0624
     70 H           3.0551   -2.5550    3.5730 H       1  UNL1        0.0624
     71 H           3.8471   -3.3992    5.7936 H       1  UNL1        0.0623
     72 H           6.8700   -0.3567    5.8828 H       1  UNL1        0.0623
     73 H           6.0601    0.4322    3.7076 H       1  UNL1        0.0624
     74 H           4.4889    1.5279    2.5161 H       1  UNL1        0.0624
     75 H           3.6505    2.1662    0.3070 H       1  UNL1        0.0621
     76 H          -1.5935    1.0904   -2.4148 H       1  UNL1        0.0588
     77 H          -1.4662    1.4572   -0.6748 H       1  UNL1        0.0588
     78 H          -2.4436   -0.9351   -3.1906 H       1  UNL1        0.0814
     79 H          -3.3540   -2.9466   -3.9024 H       1  UNL1        0.0365
     80 H          -3.7851   -4.2165   -2.7471 H       1  UNL1        0.0365
     81 H          -6.4857   -4.4760   -2.0726 H       1  UNL1        0.0851
     82 H          -7.8186   -0.3420   -5.1294 H       1  UNL1        0.0473
     83 H          -8.8827   -1.8142   -5.4057 H       1  UNL1        0.0473
     84 H          -9.0252   -0.8113   -3.8883 H       1  UNL1        0.0473
     85 H          -5.5014   -1.1604   -4.6163 H       1  UNL1        0.0829
     86 H          -1.9768    0.5947    3.7572 H       1  UNL1        0.0429
     87 H          -3.4149   -0.2739    3.1707 H       1  UNL1        0.0429
     88 H          -3.1935   -2.8231    2.9385 H       1  UNL1        0.0621
     89 H          -2.1020   -4.8131    3.7594 H       1  UNL1        0.0646
     90 H           1.1539   -2.4258    5.1182 H       1  UNL1        0.0646
     91 H           0.0103   -0.4386    4.2556 H       1  UNL1        0.0621
@<TRIPOS>BOND
     1     1     2    1
     2     2     3    1
     3     3     4    1
     4     4     5    1
     5     3     6    1
     6     6     7    1
     7     7     8    1
     8     8     9    1
     9     9    10    1
    10    10    11   ar
    11    11    12   ar
    12    12    13   ar
    13    13    14    1
    14    14    15   ar
    15    15    16   ar
    16    16    17   ar
    17    17    18    1
    18    18    19    1
    19    18    20    1
    20    18    21    1
    21    17    22   ar
    22    22    23   ar
    23    13    24   ar
    24    24    25   ar
    25     8    26   am
    26    26    27    2
    27    26    28    1
    28    28    29    1
    29    29    30   ar
    30    30    31   ar
    31    31    32    1
    32    32    33    1
    33    33    34   ar
    34    34    35   ar
    35    35    36   ar
    36    36    37    1
    37    36    38   ar
    38    31    39   ar
    39    39    40    2
    40    39    41   ar
    41    41    42   ar
    42    42    43    1
    43    43    44    1
    44    44    45    1
    45    45    46   ar
    46    46    47   ar
    47    47    48   ar
    48    48    49    1
    49    48    50   ar
    50    50    51   ar
    51    25    10   ar
    52    42    29   ar
    53    51    45   ar
    54    23    14   ar
    55    38    33   ar
    56     1    52    1
    57     1    53    1
    58     1    54    1
    59     2    55    1
    60     2    56    1
    61     4    57    1
    62     4    58    1
    63     5    59    1
    64     5    60    1
    65     5    61    1
    66     6    62    1
    67     6    63    1
    68     7    64    1
    69     7    65    1
    70     9    66    1
    71     9    67    1
    72    11    68    1
    73    12    69    1
    74    15    70    1
    75    16    71    1
    76    22    72    1
    77    23    73    1
    78    24    74    1
    79    25    75    1
    80    28    76    1
    81    28    77    1
    82    30    78    1
    83    32    79    1
    84    32    80    1
    85    34    81    1
    86    37    82    1
    87    37    83    1
    88    37    84    1
    89    38    85    1
    90    44    86    1
    91    44    87    1
    92    46    88    1
    93    47    89    1
    94    50    90    1
    95    51    91    1
