
     RDKit          3D

 91 95  0  0  0  0  0  0  0  0999 V2000
    2.6130    5.8483   -3.3671 C   0  0  0  0  0  0  0  0  0  0  0  0
    1.6429    5.3874   -2.3187 C   0  0  0  0  0  0  0  0  0  0  0  0
    0.5945    4.5647   -2.7691 N   0  0  0  0  0  0  0  0  0  0  0  0
   -0.3954    5.1023   -3.6124 C   0  0  0  0  0  0  0  0  0  0  0  0
    0.0429    5.4913   -4.9948 C   0  0  0  0  0  0  0  0  0  0  0  0
    0.7957    3.1699   -2.8403 C   0  0  0  0  0  0  0  0  0  0  0  0
    0.9332    2.5196   -1.4587 C   0  0  0  0  0  0  0  0  0  0  0  0
    1.1454    1.0980   -1.5376 N   0  0  0  0  0  0  0  0  0  0  0  0
    2.5172    0.6185   -1.6443 C   0  0  0  0  0  0  0  0  0  0  0  0
    3.0741    0.2287   -0.3021 C   0  0  0  0  0  0  0  0  0  0  0  0
    3.0310   -1.0976    0.0917 C   0  0  0  0  0  0  0  0  0  0  0  0
    3.5032   -1.4801    1.3323 C   0  0  0  0  0  0  0  0  0  0  0  0
    4.0364   -0.5515    2.2274 C   0  0  0  0  0  0  0  0  0  0  0  0
    4.5060   -1.0166    3.5071 C   0  0  0  0  0  0  0  0  0  0  0  0
    3.8917   -2.1007    4.1138 C   0  0  0  0  0  0  0  0  0  0  0  0
    4.3448   -2.5386    5.3250 C   0  0  0  0  0  0  0  0  0  0  0  0
    5.4067   -1.9325    5.9793 C   0  0  0  0  0  0  0  0  0  0  0  0
    5.8808   -2.4122    7.2806 C   0  0  0  0  0  0  0  0  0  0  0  0
    6.1449   -3.7647    7.1512 F   0  0  0  0  0  0  0  0  0  0  0  0
    4.8677   -2.1765    8.1966 F   0  0  0  0  0  0  0  0  0  0  0  0
    7.0461   -1.7877    7.6434 F   0  0  0  0  0  0  0  0  0  0  0  0
    6.0369   -0.8493    5.3942 C   0  0  0  0  0  0  0  0  0  0  0  0
    5.5584   -0.4305    4.1707 C   0  0  0  0  0  0  0  0  0  0  0  0
    4.0826    0.7668    1.8442 C   0  0  0  0  0  0  0  0  0  0  0  0
    3.5992    1.1218    0.5882 C   0  0  0  0  0  0  0  0  0  0  0  0
    0.0899    0.1942   -1.5254 C   0  0  0  0  0  0  0  0  0  0  0  0
    0.3244   -1.0421   -1.5944 O   0  0  0  0  0  0  0  0  0  0  0  0
   -1.3235    0.6845   -1.4232 C   0  0  0  0  0  0  0  0  0  0  0  0
   -2.2064   -0.4610   -1.1898 N   0  0  0  0  0  0  0  0  0  0  0  0
   -2.6973   -1.2237   -2.1670 C   0  0  0  0  0  0  0  0  0  0  0  0
   -3.4942   -2.3335   -1.8892 C   0  0  0  0  0  0  0  0  0  0  0  0
   -4.0103   -3.1490   -3.0191 C   0  0  0  0  0  0  0  0  0  0  0  0
   -5.4318   -2.9144   -3.2523 C   0  0  0  0  0  0  0  0  0  0  0  0
   -6.4916   -3.6224   -2.7361 C   0  0  0  0  0  0  0  0  0  0  0  0
   -7.6423   -3.0717   -3.1980 N   0  0  0  0  0  0  0  0  0  0  0  0
   -7.3419   -2.0485   -3.9823 N   0  0  0  0  0  0  0  0  0  0  0  0
   -8.3257   -1.2146   -4.6560 C   0  0  0  0  0  0  0  0  0  0  0  0
   -5.9832   -1.9202   -4.0398 C   0  0  0  0  0  0  0  0  0  0  0  0
   -3.7467   -2.5991   -0.5801 C   0  0  0  0  0  0  0  0  0  0  0  0
   -4.4728   -3.6060   -0.2883 O   0  0  0  0  0  0  0  0  0  0  0  0
   -3.2371   -1.8102    0.3712 N   0  0  0  0  0  0  0  0  0  0  0  0
   -2.4783   -0.7555    0.1049 C   0  0  0  0  0  0  0  0  0  0  0  0
   -1.8560    0.2742    1.3980 S   0  0  0  0  0  0  0  0  0  0  0  0
   -2.3005   -0.2169    3.0475 C   0  0  0  0  0  0  0  0  0  0  0  0
   -1.6778   -1.4714    3.5287 C   0  0  0  0  0  0  0  0  0  0  0  0
   -2.2397   -2.7257    3.4076 C   0  0  0  0  0  0  0  0  0  0  0  0
   -1.6043   -3.8653    3.8882 C   0  0  0  0  0  0  0  0  0  0  0  0
   -0.3790   -3.7857    4.5071 C   0  0  0  0  0  0  0  0  0  0  0  0
    0.2676   -4.8841    4.9878 F   0  0  0  0  0  0  0  0  0  0  0  0
    0.1959   -2.5228    4.6323 C   0  0  0  0  0  0  0  0  0  0  0  0
   -0.4364   -1.4077    4.1586 C   0  0  0  0  0  0  0  0  0  0  0  0
    3.6317    5.8279   -2.9338 H   0  0  0  0  0  0  0  0  0  0  0  0
    2.4480    6.9099   -3.6582 H   0  0  0  0  0  0  0  0  0  0  0  0
    2.6252    5.1673   -4.2430 H   0  0  0  0  0  0  0  0  0  0  0  0
    2.2306    4.8281   -1.5435 H   0  0  0  0  0  0  0  0  0  0  0  0
    1.3070    6.3089   -1.7762 H   0  0  0  0  0  0  0  0  0  0  0  0
   -0.9567    5.9626   -3.1897 H   0  0  0  0  0  0  0  0  0  0  0  0
   -1.1806    4.3007   -3.7611 H   0  0  0  0  0  0  0  0  0  0  0  0
   -0.9115    5.5726   -5.5966 H   0  0  0  0  0  0  0  0  0  0  0  0
    0.6515    4.7567   -5.5160 H   0  0  0  0  0  0  0  0  0  0  0  0
    0.5541    6.4608   -5.0465 H   0  0  0  0  0  0  0  0  0  0  0  0
   -0.1129    2.7224   -3.3030 H   0  0  0  0  0  0  0  0  0  0  0  0
    1.6935    2.9179   -3.4689 H   0  0  0  0  0  0  0  0  0  0  0  0
    1.7675    2.9746   -0.8869 H   0  0  0  0  0  0  0  0  0  0  0  0
    0.0163    2.8107   -0.9091 H   0  0  0  0  0  0  0  0  0  0  0  0
    3.2038    1.3680   -2.0862 H   0  0  0  0  0  0  0  0  0  0  0  0
    2.4636   -0.2755   -2.2949 H   0  0  0  0  0  0  0  0  0  0  0  0
    2.6347   -1.8394   -0.5864 H   0  0  0  0  0  0  0  0  0  0  0  0
    3.4404   -2.5350    1.5710 H   0  0  0  0  0  0  0  0  0  0  0  0
    3.0551   -2.5550    3.5730 H   0  0  0  0  0  0  0  0  0  0  0  0
    3.8471   -3.3992    5.7936 H   0  0  0  0  0  0  0  0  0  0  0  0
    6.8700   -0.3567    5.8828 H   0  0  0  0  0  0  0  0  0  0  0  0
    6.0601    0.4322    3.7076 H   0  0  0  0  0  0  0  0  0  0  0  0
    4.4889    1.5279    2.5161 H   0  0  0  0  0  0  0  0  0  0  0  0
    3.6505    2.1662    0.3070 H   0  0  0  0  0  0  0  0  0  0  0  0
   -1.5935    1.0904   -2.4148 H   0  0  0  0  0  0  0  0  0  0  0  0
   -1.4662    1.4572   -0.6748 H   0  0  0  0  0  0  0  0  0  0  0  0
   -2.4436   -0.9351   -3.1906 H   0  0  0  0  0  0  0  0  0  0  0  0
   -3.3540   -2.9466   -3.9024 H   0  0  0  0  0  0  0  0  0  0  0  0
   -3.7851   -4.2165   -2.7471 H   0  0  0  0  0  0  0  0  0  0  0  0
   -6.4857   -4.4760   -2.0726 H   0  0  0  0  0  0  0  0  0  0  0  0
   -7.8186   -0.3420   -5.1294 H   0  0  0  0  0  0  0  0  0  0  0  0
   -8.8827   -1.8142   -5.4057 H   0  0  0  0  0  0  0  0  0  0  0  0
   -9.0252   -0.8113   -3.8883 H   0  0  0  0  0  0  0  0  0  0  0  0
   -5.5014   -1.1604   -4.6163 H   0  0  0  0  0  0  0  0  0  0  0  0
   -1.9768    0.5947    3.7572 H   0  0  0  0  0  0  0  0  0  0  0  0
   -3.4149   -0.2739    3.1707 H   0  0  0  0  0  0  0  0  0  0  0  0
   -3.1935   -2.8231    2.9385 H   0  0  0  0  0  0  0  0  0  0  0  0
   -2.1020   -4.8131    3.7594 H   0  0  0  0  0  0  0  0  0  0  0  0
    1.1539   -2.4258    5.1182 H   0  0  0  0  0  0  0  0  0  0  0  0
    0.0103   -0.4386    4.2556 H   0  0  0  0  0  0  0  0  0  0  0  0
  1  2  1  0
  2  3  1  0
  3  4  1  0
  4  5  1  0
  3  6  1  0
  6  7  1  0
  7  8  1  0
  8  9  1  0
  9 10  1  0
 10 11  2  0
 11 12  1  0
 12 13  2  0
 13 14  1  0
 14 15  2  0
 15 16  1  0
 16 17  2  0
 17 18  1  0
 18 19  1  0
 18 20  1  0
 18 21  1  0
 17 22  1  0
 22 23  2  0
 13 24  1  0
 24 25  2  0
  8 26  1  0
 26 27  2  0
 26 28  1  0
 28 29  1  0
 29 30  1  0
 30 31  2  0
 31 32  1  0
 32 33  1  0
 33 34  1  0
 34 35  2  0
 35 36  1  0
 36 37  1  0
 36 38  1  0
 31 39  1  0
 39 40  2  0
 39 41  1  0
 41 42  2  0
 42 43  1  0
 43 44  1  0
 44 45  1  0
 45 46  2  0
 46 47  1  0
 47 48  2  0
 48 49  1  0
 48 50  1  0
 50 51  2  0
 25 10  1  0
 42 29  1  0
 51 45  1  0
 23 14  1  0
 38 33  2  0
  1 52  1  0
  1 53  1  0
  1 54  1  0
  2 55  1  0
  2 56  1  0
  4 57  1  0
  4 58  1  0
  5 59  1  0
  5 60  1  0
  5 61  1  0
  6 62  1  0
  6 63  1  0
  7 64  1  0
  7 65  1  0
  9 66  1  0
  9 67  1  0
 11 68  1  0
 12 69  1  0
 15 70  1  0
 16 71  1  0
 22 72  1  0
 23 73  1  0
 24 74  1  0
 25 75  1  0
 28 76  1  0
 28 77  1  0
 30 78  1  0
 32 79  1  0
 32 80  1  0
 34 81  1  0
 37 82  1  0
 37 83  1  0
 37 84  1  0
 38 85  1  0
 44 86  1  0
 44 87  1  0
 46 88  1  0
 47 89  1  0
 50 90  1  0
 51 91  1  0
M  END
$$$$
