
     RDKit          3D

 41 43  0  0  0  0  0  0  0  0999 V2000
   -1.3640    0.2188    1.4352 O   0  0  0  0  0  0  0  0  0  0  0  0
   -1.2567    0.2520    0.1829 C   0  0  0  0  0  0  0  0  0  0  0  0
   -2.3837    0.7358   -0.5323 N   0  0  0  0  0  0  0  0  0  0  0  0
   -3.5761    1.1632    0.1171 C   0  0  0  0  0  0  0  0  0  0  0  0
   -3.8142    2.4521    0.5348 C   0  0  0  0  0  0  0  0  0  0  0  0
   -4.9815    2.8166    1.1576 C   0  0  0  0  0  0  0  0  0  0  0  0
   -5.9609    1.8473    1.3750 C   0  0  0  0  0  0  0  0  0  0  0  0
   -5.7556    0.5519    0.9707 C   0  0  0  0  0  0  0  0  0  0  0  0
   -6.7545   -0.3812    1.2057 O   0  0  0  0  0  0  0  0  0  0  0  0
   -4.5620    0.2155    0.3426 C   0  0  0  0  0  0  0  0  0  0  0  0
   -4.3811   -1.1554   -0.0686 C   0  0  0  0  0  0  0  0  0  0  0  0
   -3.8548   -1.9598    0.7443 O   0  0  0  0  0  0  0  0  0  0  0  0
   -4.7511   -1.6500   -1.3090 O   0  0  0  0  0  0  0  0  0  0  0  0
   -0.0280   -0.1900   -0.4594 C   0  0  0  0  0  0  0  0  0  0  0  0
    0.1622   -0.1827   -1.8166 C   0  0  0  0  0  0  0  0  0  0  0  0
    1.3472   -0.6106   -2.4159 C   0  0  0  0  0  0  0  0  0  0  0  0
    2.3762   -1.0627   -1.6006 C   0  0  0  0  0  0  0  0  0  0  0  0
    4.0048   -1.6776   -2.3716 Br  0  0  0  0  0  0  0  0  0  0  0  0
    2.2124   -1.0801   -0.2354 C   0  0  0  0  0  0  0  0  0  0  0  0
    3.2435   -1.5319    0.5535 O   0  0  0  0  0  0  0  0  0  0  0  0
    4.4973   -0.9738    0.6520 C   0  0  0  0  0  0  0  0  0  0  0  0
    4.8447    0.2137    0.0459 C   0  0  0  0  0  0  0  0  0  0  0  0
    6.1359    0.7258    0.1835 C   0  0  0  0  0  0  0  0  0  0  0  0
    7.1029    0.0849    0.9145 C   0  0  0  0  0  0  0  0  0  0  0  0
    6.7660   -1.1031    1.5250 C   0  0  0  0  0  0  0  0  0  0  0  0
    5.5015   -1.6039    1.3896 C   0  0  0  0  0  0  0  0  0  0  0  0
    1.0136   -0.6442    0.3156 C   0  0  0  0  0  0  0  0  0  0  0  0
   -2.3074    0.7684   -1.5724 H   0  0  0  0  0  0  0  0  0  0  0  0
   -3.0066    3.1738    0.3370 H   0  0  0  0  0  0  0  0  0  0  0  0
   -5.1071    3.8461    1.4617 H   0  0  0  0  0  0  0  0  0  0  0  0
   -6.8716    2.1809    1.8727 H   0  0  0  0  0  0  0  0  0  0  0  0
   -7.3747   -0.7410    0.5197 H   0  0  0  0  0  0  0  0  0  0  0  0
   -4.2486   -2.3927   -1.7804 H   0  0  0  0  0  0  0  0  0  0  0  0
   -0.5989    0.1549   -2.4743 H   0  0  0  0  0  0  0  0  0  0  0  0
    1.4795   -0.5975   -3.4939 H   0  0  0  0  0  0  0  0  0  0  0  0
    4.1160    0.7612   -0.5347 H   0  0  0  0  0  0  0  0  0  0  0  0
    6.3394    1.6595   -0.3177 H   0  0  0  0  0  0  0  0  0  0  0  0
    8.0853    0.5351    0.9821 H   0  0  0  0  0  0  0  0  0  0  0  0
    7.5347   -1.6060    2.1023 H   0  0  0  0  0  0  0  0  0  0  0  0
    5.2404   -2.5347    1.8689 H   0  0  0  0  0  0  0  0  0  0  0  0
    0.9356   -0.6789    1.3977 H   0  0  0  0  0  0  0  0  0  0  0  0
  1  2  2  0
  2  3  1  0
  3  4  1  0
  4  5  2  0
  5  6  1  0
  6  7  2  0
  7  8  1  0
  8  9  1  0
  8 10  2  0
 10 11  1  0
 11 12  2  0
 11 13  1  0
  2 14  1  0
 14 15  2  0
 15 16  1  0
 16 17  2  0
 17 18  1  0
 17 19  1  0
 19 20  1  0
 20 21  1  0
 21 22  2  0
 22 23  1  0
 23 24  2  0
 24 25  1  0
 25 26  2  0
 19 27  2  0
 10  4  1  0
 27 14  1  0
 26 21  1  0
  3 28  1  0
  5 29  1  0
  6 30  1  0
  7 31  1  0
  9 32  1  0
 13 33  1  0
 15 34  1  0
 16 35  1  0
 22 36  1  0
 23 37  1  0
 24 38  1  0
 25 39  1  0
 26 40  1  0
 27 41  1  0
M  END
$$$$
