@<TRIPOS>MOLECULE
*****
 41 43 0 0 0
SMALL
GASTEIGER

@<TRIPOS>ATOM
      1 O          -1.3640    0.2188    1.4352 O.2     1  UNL1       -0.2699
      2 C          -1.2567    0.2520    0.1829 C.2     1  UNL1        0.2484
      3 N          -2.3837    0.7358   -0.5323 N.am    1  UNL1       -0.2807
      4 C          -3.5761    1.1632    0.1171 C.ar    1  UNL1        0.0513
      5 C          -3.8142    2.4521    0.5348 C.ar    1  UNL1       -0.0394
      6 C          -4.9815    2.8166    1.1576 C.ar    1  UNL1       -0.0565
      7 C          -5.9609    1.8473    1.3750 C.ar    1  UNL1       -0.0192
      8 C          -5.7556    0.5519    0.9707 C.ar    1  UNL1        0.1326
      9 O          -6.7545   -0.3812    1.2057 O.3     1  UNL1       -0.5059
     10 C          -4.5620    0.2155    0.3426 C.ar    1  UNL1        0.1212
     11 C          -4.3811   -1.1554   -0.0686 C.2     1  UNL1        0.3422
     12 O          -3.8548   -1.9598    0.7443 O.2     1  UNL1       -0.2449
     13 O          -4.7511   -1.6500   -1.3090 O.3     1  UNL1       -0.4770
     14 C          -0.0280   -0.1900   -0.4594 C.ar    1  UNL1        0.0406
     15 C           0.1622   -0.1827   -1.8166 C.ar    1  UNL1       -0.0484
     16 C           1.3472   -0.6106   -2.4159 C.ar    1  UNL1       -0.0435
     17 C           2.3762   -1.0627   -1.6006 C.ar    1  UNL1        0.0601
     18 BR          4.0048   -1.6776   -2.3716 Br      1  UNL1       -0.0465
     19 C           2.2124   -1.0801   -0.2354 C.ar    1  UNL1        0.1430
     20 O           3.2435   -1.5319    0.5535 O.3     1  UNL1       -0.4549
     21 C           4.4973   -0.9738    0.6520 C.ar    1  UNL1        0.1285
     22 C           4.8447    0.2137    0.0459 C.ar    1  UNL1       -0.0193
     23 C           6.1359    0.7258    0.1835 C.ar    1  UNL1       -0.0583
     24 C           7.1029    0.0849    0.9145 C.ar    1  UNL1       -0.0615
     25 C           6.7660   -1.1031    1.5250 C.ar    1  UNL1       -0.0583
     26 C           5.5015   -1.6039    1.3896 C.ar    1  UNL1       -0.0193
     27 C           1.0136   -0.6442    0.3156 C.ar    1  UNL1       -0.0061
     28 H          -2.3074    0.7684   -1.5724 H       1  UNL1        0.1552
     29 H          -3.0066    3.1738    0.3370 H       1  UNL1        0.0636
     30 H          -5.1071    3.8461    1.4617 H       1  UNL1        0.0619
     31 H          -6.8716    2.1809    1.8727 H       1  UNL1        0.0654
     32 H          -7.3747   -0.7410    0.5197 H       1  UNL1        0.2922
     33 H          -4.2486   -2.3927   -1.7804 H       1  UNL1        0.2954
     34 H          -0.5989    0.1549   -2.4743 H       1  UNL1        0.0625
     35 H           1.4795   -0.5975   -3.4939 H       1  UNL1        0.0630
     36 H           4.1160    0.7612   -0.5347 H       1  UNL1        0.0654
     37 H           6.3394    1.6595   -0.3177 H       1  UNL1        0.0619
     38 H           8.0853    0.5351    0.9821 H       1  UNL1        0.0618
     39 H           7.5347   -1.6060    2.1023 H       1  UNL1        0.0619
     40 H           5.2404   -2.5347    1.8689 H       1  UNL1        0.0654
     41 H           0.9356   -0.6789    1.3977 H       1  UNL1        0.0662
@<TRIPOS>BOND
     1     1     2    2
     2     2     3   am
     3     3     4    1
     4     4     5   ar
     5     5     6   ar
     6     6     7   ar
     7     7     8   ar
     8     8     9    1
     9     8    10   ar
    10    10    11    1
    11    11    12    2
    12    11    13    1
    13     2    14    1
    14    14    15   ar
    15    15    16   ar
    16    16    17   ar
    17    17    18    1
    18    17    19   ar
    19    19    20    1
    20    20    21    1
    21    21    22   ar
    22    22    23   ar
    23    23    24   ar
    24    24    25   ar
    25    25    26   ar
    26    19    27   ar
    27    10     4   ar
    28    27    14   ar
    29    26    21   ar
    30     3    28    1
    31     5    29    1
    32     6    30    1
    33     7    31    1
    34     9    32    1
    35    13    33    1
    36    15    34    1
    37    16    35    1
    38    22    36    1
    39    23    37    1
    40    24    38    1
    41    25    39    1
    42    26    40    1
    43    27    41    1
