@<TRIPOS>MOLECULE
*****
 55 59 0 0 0
SMALL
GASTEIGER

@<TRIPOS>ATOM
      1 N          -2.8547   -1.6695    2.1652 N.am    1  UNL1       -0.3241
      2 C          -3.6282   -2.3787    1.2412 C.2     1  UNL1        0.2599
      3 O          -4.5077   -3.1802    1.7143 O.2     1  UNL1       -0.2687
      4 C          -3.5200   -2.2849   -0.2050 C.ar    1  UNL1        0.1280
      5 C          -4.2593   -2.9731   -1.1487 C.ar    1  UNL1        0.0588
      6 N          -3.8487   -2.6011   -2.3700 N.ar    1  UNL1       -0.2353
      7 C          -2.8533   -1.6807   -2.2159 C.ar    1  UNL1        0.1381
      8 C          -2.1311   -1.0198   -3.1816 C.ar    1  UNL1       -0.0182
      9 C          -1.1663   -0.1261   -2.7529 C.ar    1  UNL1       -0.0477
     10 C          -0.9428    0.0886   -1.4027 C.ar    1  UNL1        0.0173
     11 C           0.0638    1.0168   -0.9107 C.ar    1  UNL1        0.0779
     12 C          -0.1825    2.1851   -0.2240 C.ar    1  UNL1        0.0968
     13 C          -1.4518    2.7696    0.1740 C.ar    1  UNL1        0.0040
     14 C          -2.0438    3.8025   -0.5189 C.ar    1  UNL1       -0.0497
     15 C          -3.2596    4.3462   -0.1118 C.ar    1  UNL1       -0.0244
     16 C          -3.9092    3.8671    0.9987 C.ar    1  UNL1        0.1417
     17 F          -5.1090    4.4073    1.3947 F       1  UNL1       -0.2040
     18 C          -3.3270    2.8363    1.6978 C.ar    1  UNL1        0.0767
     19 CL         -4.1691    2.2274    3.1206 Cl      1  UNL1       -0.0806
     20 C          -2.1197    2.3072    1.2808 C.ar    1  UNL1       -0.0313
     21 N           1.0502    2.7098    0.0233 N.ar    1  UNL1       -0.2351
     22 C           2.0072    1.9211   -0.4760 C.ar    1  UNL1        0.0971
     23 N           1.4200    0.8898   -1.0455 N.ar    1  UNL1       -0.3283
     24 C           2.0616   -0.2203   -1.7169 C.3     1  UNL1        0.0375
     25 C           2.3188   -1.3056   -0.6799 C.3     1  UNL1        0.0171
     26 N           3.1893   -0.7611    0.3211 N.3     1  UNL1       -0.2963
     27 C           4.5101   -0.5375   -0.2267 C.3     1  UNL1        0.0225
     28 C           5.5363   -0.8583    0.8255 C.3     1  UNL1        0.0604
     29 O           5.1636   -0.3028    2.0398 O.3     1  UNL1       -0.3772
     30 C           4.1083   -1.0404    2.5732 C.3     1  UNL1        0.0604
     31 C           3.1768   -1.5710    1.5038 C.3     1  UNL1        0.0225
     32 C          -1.7160   -0.6203   -0.5142 C.ar    1  UNL1        0.0211
     33 N          -2.6625   -1.4969   -0.8978 N.ar    1  UNL1       -0.2949
     34 H          -1.8934   -1.9684    2.4423 H       1  UNL1        0.1453
     35 H          -3.2350   -0.8043    2.6048 H       1  UNL1        0.1453
     36 H          -5.0439   -3.6973   -0.9125 H       1  UNL1        0.0853
     37 H          -2.2988   -1.1802   -4.2407 H       1  UNL1        0.0654
     38 H          -0.5849    0.4075   -3.4768 H       1  UNL1        0.0626
     39 H          -1.5157    4.1695   -1.3953 H       1  UNL1        0.0625
     40 H          -3.7074    5.1586   -0.6698 H       1  UNL1        0.0647
     41 H          -1.7068    1.5146    1.8517 H       1  UNL1        0.0640
     42 H           3.0549    2.1719   -0.3806 H       1  UNL1        0.1029
     43 H           3.0038    0.1175   -2.1844 H       1  UNL1        0.0505
     44 H           1.4230   -0.6730   -2.4935 H       1  UNL1        0.0505
     45 H           1.3468   -1.5340   -0.1851 H       1  UNL1        0.0444
     46 H           2.7407   -2.1903   -1.1789 H       1  UNL1        0.0444
     47 H           4.6534   -1.2905   -1.0453 H       1  UNL1        0.0449
     48 H           4.6529    0.4363   -0.6869 H       1  UNL1        0.0449
     49 H           5.6066   -1.9738    0.9248 H       1  UNL1        0.0572
     50 H           6.5345   -0.4733    0.5082 H       1  UNL1        0.0572
     51 H           4.5172   -1.9116    3.1127 H       1  UNL1        0.0572
     52 H           3.5391   -0.3530    3.2185 H       1  UNL1        0.0572
     53 H           2.1480   -1.5468    1.9106 H       1  UNL1        0.0449
     54 H           3.4074   -2.6294    1.2330 H       1  UNL1        0.0449
     55 H          -1.5867   -0.4964    0.5685 H       1  UNL1        0.0820
@<TRIPOS>BOND
     1     1     2   am
     2     2     3    2
     3     2     4    1
     4     4     5   ar
     5     5     6   ar
     6     6     7   ar
     7     7     8   ar
     8     8     9   ar
     9     9    10   ar
    10    10    11    1
    11    11    12   ar
    12    12    13    1
    13    13    14   ar
    14    14    15   ar
    15    15    16   ar
    16    16    17    1
    17    16    18   ar
    18    18    19    1
    19    18    20   ar
    20    12    21   ar
    21    21    22   ar
    22    22    23   ar
    23    23    24    1
    24    24    25    1
    25    25    26    1
    26    26    27    1
    27    27    28    1
    28    28    29    1
    29    29    30    1
    30    30    31    1
    31    10    32   ar
    32    32    33   ar
    33    33     4   ar
    34    33     7   ar
    35    23    11   ar
    36    31    26    1
    37    20    13   ar
    38     1    34    1
    39     1    35    1
    40     5    36    1
    41     8    37    1
    42     9    38    1
    43    14    39    1
    44    15    40    1
    45    20    41    1
    46    22    42    1
    47    24    43    1
    48    24    44    1
    49    25    45    1
    50    25    46    1
    51    27    47    1
    52    27    48    1
    53    28    49    1
    54    28    50    1
    55    30    51    1
    56    30    52    1
    57    31    53    1
    58    31    54    1
    59    32    55    1
