
     RDKit          3D

 55 59  0  0  0  0  0  0  0  0999 V2000
   -2.8547   -1.6695    2.1652 N   0  0  0  0  0  0  0  0  0  0  0  0
   -3.6282   -2.3787    1.2412 C   0  0  0  0  0  0  0  0  0  0  0  0
   -4.5077   -3.1802    1.7143 O   0  0  0  0  0  0  0  0  0  0  0  0
   -3.5200   -2.2849   -0.2050 C   0  0  0  0  0  0  0  0  0  0  0  0
   -4.2593   -2.9731   -1.1487 C   0  0  0  0  0  0  0  0  0  0  0  0
   -3.8487   -2.6011   -2.3700 N   0  0  0  0  0  0  0  0  0  0  0  0
   -2.8533   -1.6807   -2.2159 C   0  0  0  0  0  0  0  0  0  0  0  0
   -2.1311   -1.0198   -3.1816 C   0  0  0  0  0  0  0  0  0  0  0  0
   -1.1663   -0.1261   -2.7529 C   0  0  0  0  0  0  0  0  0  0  0  0
   -0.9428    0.0886   -1.4027 C   0  0  0  0  0  0  0  0  0  0  0  0
    0.0638    1.0168   -0.9107 C   0  0  0  0  0  0  0  0  0  0  0  0
   -0.1825    2.1851   -0.2240 C   0  0  0  0  0  0  0  0  0  0  0  0
   -1.4518    2.7696    0.1740 C   0  0  0  0  0  0  0  0  0  0  0  0
   -2.0438    3.8025   -0.5189 C   0  0  0  0  0  0  0  0  0  0  0  0
   -3.2596    4.3462   -0.1118 C   0  0  0  0  0  0  0  0  0  0  0  0
   -3.9092    3.8671    0.9987 C   0  0  0  0  0  0  0  0  0  0  0  0
   -5.1090    4.4073    1.3947 F   0  0  0  0  0  0  0  0  0  0  0  0
   -3.3270    2.8363    1.6978 C   0  0  0  0  0  0  0  0  0  0  0  0
   -4.1691    2.2274    3.1206 Cl  0  0  0  0  0  0  0  0  0  0  0  0
   -2.1197    2.3072    1.2808 C   0  0  0  0  0  0  0  0  0  0  0  0
    1.0502    2.7098    0.0233 N   0  0  0  0  0  0  0  0  0  0  0  0
    2.0072    1.9211   -0.4760 C   0  0  0  0  0  0  0  0  0  0  0  0
    1.4200    0.8898   -1.0455 N   0  0  0  0  0  0  0  0  0  0  0  0
    2.0616   -0.2203   -1.7169 C   0  0  0  0  0  0  0  0  0  0  0  0
    2.3188   -1.3056   -0.6799 C   0  0  0  0  0  0  0  0  0  0  0  0
    3.1893   -0.7611    0.3211 N   0  0  0  0  0  0  0  0  0  0  0  0
    4.5101   -0.5375   -0.2267 C   0  0  0  0  0  0  0  0  0  0  0  0
    5.5363   -0.8583    0.8255 C   0  0  0  0  0  0  0  0  0  0  0  0
    5.1636   -0.3028    2.0398 O   0  0  0  0  0  0  0  0  0  0  0  0
    4.1083   -1.0404    2.5732 C   0  0  0  0  0  0  0  0  0  0  0  0
    3.1768   -1.5710    1.5038 C   0  0  0  0  0  0  0  0  0  0  0  0
   -1.7160   -0.6203   -0.5142 C   0  0  0  0  0  0  0  0  0  0  0  0
   -2.6625   -1.4969   -0.8978 N   0  0  0  0  0  0  0  0  0  0  0  0
   -1.8934   -1.9684    2.4423 H   0  0  0  0  0  0  0  0  0  0  0  0
   -3.2350   -0.8043    2.6048 H   0  0  0  0  0  0  0  0  0  0  0  0
   -5.0439   -3.6973   -0.9125 H   0  0  0  0  0  0  0  0  0  0  0  0
   -2.2988   -1.1802   -4.2407 H   0  0  0  0  0  0  0  0  0  0  0  0
   -0.5849    0.4075   -3.4768 H   0  0  0  0  0  0  0  0  0  0  0  0
   -1.5157    4.1695   -1.3953 H   0  0  0  0  0  0  0  0  0  0  0  0
   -3.7074    5.1586   -0.6698 H   0  0  0  0  0  0  0  0  0  0  0  0
   -1.7068    1.5146    1.8517 H   0  0  0  0  0  0  0  0  0  0  0  0
    3.0549    2.1719   -0.3806 H   0  0  0  0  0  0  0  0  0  0  0  0
    3.0038    0.1175   -2.1844 H   0  0  0  0  0  0  0  0  0  0  0  0
    1.4230   -0.6730   -2.4935 H   0  0  0  0  0  0  0  0  0  0  0  0
    1.3468   -1.5340   -0.1851 H   0  0  0  0  0  0  0  0  0  0  0  0
    2.7407   -2.1903   -1.1789 H   0  0  0  0  0  0  0  0  0  0  0  0
    4.6534   -1.2905   -1.0453 H   0  0  0  0  0  0  0  0  0  0  0  0
    4.6529    0.4363   -0.6869 H   0  0  0  0  0  0  0  0  0  0  0  0
    5.6066   -1.9738    0.9248 H   0  0  0  0  0  0  0  0  0  0  0  0
    6.5345   -0.4733    0.5082 H   0  0  0  0  0  0  0  0  0  0  0  0
    4.5172   -1.9116    3.1127 H   0  0  0  0  0  0  0  0  0  0  0  0
    3.5391   -0.3530    3.2185 H   0  0  0  0  0  0  0  0  0  0  0  0
    2.1480   -1.5468    1.9106 H   0  0  0  0  0  0  0  0  0  0  0  0
    3.4074   -2.6294    1.2330 H   0  0  0  0  0  0  0  0  0  0  0  0
   -1.5867   -0.4964    0.5685 H   0  0  0  0  0  0  0  0  0  0  0  0
  1  2  1  0
  2  3  2  0
  2  4  1  0
  4  5  2  0
  5  6  1  0
  6  7  2  0
  7  8  1  0
  8  9  2  0
  9 10  1  0
 10 11  1  0
 11 12  2  0
 12 13  1  0
 13 14  2  0
 14 15  1  0
 15 16  2  0
 16 17  1  0
 16 18  1  0
 18 19  1  0
 18 20  2  0
 12 21  1  0
 21 22  2  0
 22 23  1  0
 23 24  1  0
 24 25  1  0
 25 26  1  0
 26 27  1  0
 27 28  1  0
 28 29  1  0
 29 30  1  0
 30 31  1  0
 10 32  2  0
 32 33  1  0
 33  4  1  0
 33  7  1  0
 23 11  1  0
 31 26  1  0
 20 13  1  0
  1 34  1  0
  1 35  1  0
  5 36  1  0
  8 37  1  0
  9 38  1  0
 14 39  1  0
 15 40  1  0
 20 41  1  0
 22 42  1  0
 24 43  1  0
 24 44  1  0
 25 45  1  0
 25 46  1  0
 27 47  1  0
 27 48  1  0
 28 49  1  0
 28 50  1  0
 30 51  1  0
 30 52  1  0
 31 53  1  0
 31 54  1  0
 32 55  1  0
M  END
$$$$
