@<TRIPOS>MOLECULE
*****
 34 36 0 0 0
SMALL
GASTEIGER

@<TRIPOS>ATOM
      1 O           6.0596   -1.6069    0.2474 O.2     1  UNL1       -0.2871
      2 C           5.5231   -0.4721    0.1937 C.ar    1  UNL1        0.1925
      3 C           6.3047    0.6620    0.1512 C.ar    1  UNL1        0.0207
      4 C           5.6591    1.8768    0.0931 C.ar    1  UNL1        0.0961
      5 O           4.3472    1.9589    0.0785 O.2     1  UNL1       -0.4626
      6 C           3.5533    0.9274    0.1164 C.ar    1  UNL1        0.1418
      7 C           2.1725    1.0373    0.1000 C.ar    1  UNL1        0.0231
      8 C           1.3591   -0.0739    0.1412 C.ar    1  UNL1        0.1245
      9 O          -0.0204    0.0857    0.1227 O.3     1  UNL1       -0.4873
     10 C          -0.8965   -1.0172    0.1630 C.3     1  UNL1        0.1146
     11 C          -2.2929   -0.5636    0.1316 C.ar    1  UNL1       -0.0104
     12 C          -2.9648   -0.2966    1.3191 C.ar    1  UNL1       -0.0548
     13 C          -4.2745    0.1249    1.1899 C.ar    1  UNL1       -0.0498
     14 C          -4.9194    0.2867   -0.0000 C.ar    1  UNL1        0.0548
     15 C          -6.3519    0.7506   -0.0678 C.3     1  UNL1        0.4174
     16 F          -7.1779   -0.2254    0.4043 F       1  UNL1       -0.1659
     17 F          -6.4104    1.8803    0.7546 F       1  UNL1       -0.1659
     18 F          -6.6523    1.1628   -1.3468 F       1  UNL1       -0.1659
     19 C          -4.2420    0.0187   -1.1690 C.ar    1  UNL1       -0.0498
     20 C          -2.9150   -0.4104   -1.0890 C.ar    1  UNL1       -0.0548
     21 C           1.9777   -1.3069    0.1999 C.ar    1  UNL1       -0.0190
     22 C           3.3482   -1.4425    0.2174 C.ar    1  UNL1       -0.0439
     23 C           4.1529   -0.3242    0.1757 C.ar    1  UNL1        0.0642
     24 H           7.3698    0.5525    0.1650 H       1  UNL1        0.0687
     25 H           6.2386    2.7945    0.0583 H       1  UNL1        0.1031
     26 H           1.7220    2.0315    0.0531 H       1  UNL1        0.0691
     27 H          -0.6913   -1.7432   -0.6471 H       1  UNL1        0.0748
     28 H          -0.7325   -1.5275    1.1457 H       1  UNL1        0.0748
     29 H          -2.4747   -0.4174    2.2759 H       1  UNL1        0.0621
     30 H          -4.8336    0.3437    2.0938 H       1  UNL1        0.0623
     31 H          -4.7278    0.1384   -2.1183 H       1  UNL1        0.0623
     32 H          -2.4137   -0.6114   -2.0194 H       1  UNL1        0.0621
     33 H           1.3552   -2.1832    0.2326 H       1  UNL1        0.0654
     34 H           3.8486   -2.4105    0.2635 H       1  UNL1        0.0627
@<TRIPOS>BOND
     1     1     2    2
     2     2     3   ar
     3     3     4   ar
     4     4     5   ar
     5     5     6   ar
     6     6     7   ar
     7     7     8   ar
     8     8     9    1
     9     9    10    1
    10    10    11    1
    11    11    12   ar
    12    12    13   ar
    13    13    14   ar
    14    14    15    1
    15    15    16    1
    16    15    17    1
    17    15    18    1
    18    14    19   ar
    19    19    20   ar
    20     8    21   ar
    21    21    22   ar
    22    22    23   ar
    23    23     2   ar
    24    23     6   ar
    25    20    11   ar
    26     3    24    1
    27     4    25    1
    28     7    26    1
    29    10    27    1
    30    10    28    1
    31    12    29    1
    32    13    30    1
    33    19    31    1
    34    20    32    1
    35    21    33    1
    36    22    34    1
