
     RDKit          3D

 34 36  0  0  0  0  0  0  0  0999 V2000
    6.0596   -1.6069    0.2474 O   0  0  0  0  0  0  0  0  0  0  0  0
    5.5231   -0.4721    0.1937 C   0  0  0  0  0  0  0  0  0  0  0  0
    6.3047    0.6620    0.1512 C   0  0  0  0  0  0  0  0  0  0  0  0
    5.6591    1.8768    0.0931 C   0  0  0  0  0  0  0  0  0  0  0  0
    4.3472    1.9589    0.0785 O   0  0  0  0  0  0  0  0  0  0  0  0
    3.5533    0.9274    0.1164 C   0  0  0  0  0  0  0  0  0  0  0  0
    2.1725    1.0373    0.1000 C   0  0  0  0  0  0  0  0  0  0  0  0
    1.3591   -0.0739    0.1412 C   0  0  0  0  0  0  0  0  0  0  0  0
   -0.0204    0.0857    0.1227 O   0  0  0  0  0  0  0  0  0  0  0  0
   -0.8965   -1.0172    0.1630 C   0  0  0  0  0  0  0  0  0  0  0  0
   -2.2929   -0.5636    0.1316 C   0  0  0  0  0  0  0  0  0  0  0  0
   -2.9648   -0.2966    1.3191 C   0  0  0  0  0  0  0  0  0  0  0  0
   -4.2745    0.1249    1.1899 C   0  0  0  0  0  0  0  0  0  0  0  0
   -4.9194    0.2867   -0.0000 C   0  0  0  0  0  0  0  0  0  0  0  0
   -6.3519    0.7506   -0.0678 C   0  0  0  0  0  0  0  0  0  0  0  0
   -7.1779   -0.2254    0.4043 F   0  0  0  0  0  0  0  0  0  0  0  0
   -6.4104    1.8803    0.7546 F   0  0  0  0  0  0  0  0  0  0  0  0
   -6.6523    1.1628   -1.3468 F   0  0  0  0  0  0  0  0  0  0  0  0
   -4.2420    0.0187   -1.1690 C   0  0  0  0  0  0  0  0  0  0  0  0
   -2.9150   -0.4104   -1.0890 C   0  0  0  0  0  0  0  0  0  0  0  0
    1.9777   -1.3069    0.1999 C   0  0  0  0  0  0  0  0  0  0  0  0
    3.3482   -1.4425    0.2174 C   0  0  0  0  0  0  0  0  0  0  0  0
    4.1529   -0.3242    0.1757 C   0  0  0  0  0  0  0  0  0  0  0  0
    7.3698    0.5525    0.1650 H   0  0  0  0  0  0  0  0  0  0  0  0
    6.2386    2.7945    0.0583 H   0  0  0  0  0  0  0  0  0  0  0  0
    1.7220    2.0315    0.0531 H   0  0  0  0  0  0  0  0  0  0  0  0
   -0.6913   -1.7432   -0.6471 H   0  0  0  0  0  0  0  0  0  0  0  0
   -0.7325   -1.5275    1.1457 H   0  0  0  0  0  0  0  0  0  0  0  0
   -2.4747   -0.4174    2.2759 H   0  0  0  0  0  0  0  0  0  0  0  0
   -4.8336    0.3437    2.0938 H   0  0  0  0  0  0  0  0  0  0  0  0
   -4.7278    0.1384   -2.1183 H   0  0  0  0  0  0  0  0  0  0  0  0
   -2.4137   -0.6114   -2.0194 H   0  0  0  0  0  0  0  0  0  0  0  0
    1.3552   -2.1832    0.2326 H   0  0  0  0  0  0  0  0  0  0  0  0
    3.8486   -2.4105    0.2635 H   0  0  0  0  0  0  0  0  0  0  0  0
  1  2  2  0
  2  3  1  0
  3  4  2  0
  4  5  1  0
  5  6  1  0
  6  7  2  0
  7  8  1  0
  8  9  1  0
  9 10  1  0
 10 11  1  0
 11 12  2  0
 12 13  1  0
 13 14  2  0
 14 15  1  0
 15 16  1  0
 15 17  1  0
 15 18  1  0
 14 19  1  0
 19 20  2  0
  8 21  2  0
 21 22  1  0
 22 23  2  0
 23  2  1  0
 23  6  1  0
 20 11  1  0
  3 24  1  0
  4 25  1  0
  7 26  1  0
 10 27  1  0
 10 28  1  0
 12 29  1  0
 13 30  1  0
 19 31  1  0
 20 32  1  0
 21 33  1  0
 22 34  1  0
M  END
$$$$
