
     RDKit          3D

 34 35  0  0  0  0  0  0  0  0999 V2000
   -6.6196    1.7114    0.0803 O   0  0  0  0  0  0  0  0  0  0  0  0
   -5.6414    0.8351    0.5290 C   0  0  0  0  0  0  0  0  0  0  0  0
   -5.3187    1.0199    1.7404 O   0  0  0  0  0  0  0  0  0  0  0  0
   -5.2348   -0.0936   -0.5504 C   0  0  0  0  0  0  0  0  0  0  0  0
   -4.1660   -1.0551   -0.1124 C   0  0  0  0  0  0  0  0  0  0  0  0
   -2.9512   -0.2963    0.3082 C   0  0  0  0  0  0  0  0  0  0  0  0
   -1.8775   -1.2042    0.7425 N   0  0  0  0  0  0  0  0  0  0  0  0
   -0.5803   -0.8600    1.2139 C   0  0  0  0  0  0  0  0  0  0  0  0
    0.4612   -0.6374    0.4305 C   0  0  0  0  0  0  0  0  0  0  0  0
    1.7862   -0.2910    0.8014 N   0  0  0  0  0  0  0  0  0  0  0  0
    2.5244   -0.1566   -0.2614 C   0  0  0  0  0  0  0  0  0  0  0  0
    1.7736   -0.3961   -1.4087 O   0  0  0  0  0  0  0  0  0  0  0  0
    0.4529   -0.7067   -1.0266 C   0  0  0  0  0  0  0  0  0  0  0  0
   -0.5117   -0.9831   -1.8207 O   0  0  0  0  0  0  0  0  0  0  0  0
    3.9393    0.1981   -0.1945 C   0  0  0  0  0  0  0  0  0  0  0  0
    4.5059    0.3965    1.0555 C   0  0  0  0  0  0  0  0  0  0  0  0
    5.8475    0.7366    1.1972 C   0  0  0  0  0  0  0  0  0  0  0  0
    6.6231    0.8765    0.0464 C   0  0  0  0  0  0  0  0  0  0  0  0
    6.0594    0.6780   -1.2193 C   0  0  0  0  0  0  0  0  0  0  0  0
    4.7227    0.3417   -1.3062 C   0  0  0  0  0  0  0  0  0  0  0  0
   -7.0543    2.3936    0.6835 H   0  0  0  0  0  0  0  0  0  0  0  0
   -4.8252    0.5249   -1.3716 H   0  0  0  0  0  0  0  0  0  0  0  0
   -6.1169   -0.6475   -0.9619 H   0  0  0  0  0  0  0  0  0  0  0  0
   -4.5336   -1.6194    0.7757 H   0  0  0  0  0  0  0  0  0  0  0  0
   -3.9511   -1.7695   -0.9249 H   0  0  0  0  0  0  0  0  0  0  0  0
   -3.1738    0.3699    1.1492 H   0  0  0  0  0  0  0  0  0  0  0  0
   -2.5690    0.3461   -0.5311 H   0  0  0  0  0  0  0  0  0  0  0  0
   -1.9891   -2.2521    0.7399 H   0  0  0  0  0  0  0  0  0  0  0  0
   -0.4395   -0.7755    2.2850 H   0  0  0  0  0  0  0  0  0  0  0  0
    3.9365    0.2978    1.9825 H   0  0  0  0  0  0  0  0  0  0  0  0
    6.2576    0.8842    2.1910 H   0  0  0  0  0  0  0  0  0  0  0  0
    7.6488    1.1408    0.2505 H   0  0  0  0  0  0  0  0  0  0  0  0
    6.7071    0.8001   -2.0615 H   0  0  0  0  0  0  0  0  0  0  0  0
    4.3072    0.1930   -2.2917 H   0  0  0  0  0  0  0  0  0  0  0  0
  1  2  1  0
  2  3  2  0
  2  4  1  0
  4  5  1  0
  5  6  1  0
  6  7  1  0
  7  8  1  0
  8  9  2  3
  9 10  1  0
 10 11  2  0
 11 12  1  0
 12 13  1  0
 13 14  2  0
 11 15  1  0
 15 16  2  0
 16 17  1  0
 17 18  2  0
 18 19  1  0
 19 20  2  0
 13  9  1  0
 20 15  1  0
  1 21  1  0
  4 22  1  0
  4 23  1  0
  5 24  1  0
  5 25  1  0
  6 26  1  0
  6 27  1  0
  7 28  1  0
  8 29  1  0
 16 30  1  0
 17 31  1  0
 18 32  1  0
 19 33  1  0
 20 34  1  0
M  END
$$$$
