
     RDKit          3D

 55 58  0  0  0  0  0  0  0  0999 V2000
   -1.2694    0.5064   -0.7050 C   0  0  0  0  0  0  0  0  0  0  0  0
   -0.6491   -0.6687   -1.2622 C   0  0  0  0  0  0  0  0  0  0  0  0
    0.4595   -1.3149   -0.4894 C   0  0  0  0  0  0  0  0  0  0  0  0
    1.5845   -0.4251   -0.2651 N   0  0  0  0  0  0  0  0  0  0  0  0
    2.2414   -0.1400   -1.4786 C   0  0  0  0  0  0  0  0  0  0  0  0
    3.7120    0.0042   -1.4999 C   0  0  0  0  0  0  0  0  0  0  0  0
    4.2271    0.0437   -0.1488 N   0  0  0  0  0  0  0  0  0  0  0  0
    5.6326    0.3014   -0.1066 C   0  0  0  0  0  0  0  0  0  0  0  0
    6.2216    0.3502    1.2761 C   0  0  0  0  0  0  0  0  0  0  0  0
    7.5927    0.6134    1.1203 O   0  0  0  0  0  0  0  0  0  0  0  0
    3.8033   -1.1690    0.4870 C   0  0  0  0  0  0  0  0  0  0  0  0
    2.3376   -1.0101    0.7953 C   0  0  0  0  0  0  0  0  0  0  0  0
   -2.4435    0.8187   -0.2079 C   0  0  0  0  0  0  0  0  0  0  0  0
   -2.7574    2.1381    0.2681 C   0  0  0  0  0  0  0  0  0  0  0  0
   -1.7828    3.1124    0.2714 C   0  0  0  0  0  0  0  0  0  0  0  0
   -1.9439    4.3826    0.7193 C   0  0  0  0  0  0  0  0  0  0  0  0
   -3.1934    4.7621    1.2253 C   0  0  0  0  0  0  0  0  0  0  0  0
   -4.1930    3.8154    1.2376 C   0  0  0  0  0  0  0  0  0  0  0  0
   -3.9513    2.5557    0.7677 C   0  0  0  0  0  0  0  0  0  0  0  0
   -5.3318    1.4639    0.8089 S   0  0  0  0  0  0  0  0  0  0  0  0
   -4.7242   -0.1393    0.2462 C   0  0  0  0  0  0  0  0  0  0  0  0
   -3.4288   -0.2211   -0.1831 C   0  0  0  0  0  0  0  0  0  0  0  0
   -3.1101   -1.4918   -0.5403 C   0  0  0  0  0  0  0  0  0  0  0  0
   -3.9389   -2.6229   -0.5089 C   0  0  0  0  0  0  0  0  0  0  0  0
   -5.2292   -2.3778   -0.0509 C   0  0  0  0  0  0  0  0  0  0  0  0
   -5.6542   -1.1246    0.3403 C   0  0  0  0  0  0  0  0  0  0  0  0
   -3.6729   -4.0231   -0.8802 C   0  0  0  0  0  0  0  0  0  0  0  0
   -4.3327   -4.8380    0.0181 F   0  0  0  0  0  0  0  0  0  0  0  0
   -2.3129   -4.2660   -0.8902 F   0  0  0  0  0  0  0  0  0  0  0  0
   -4.2246   -4.2547   -2.1432 F   0  0  0  0  0  0  0  0  0  0  0  0
   -0.5630    1.3240   -0.6823 H   0  0  0  0  0  0  0  0  0  0  0  0
    0.0767   -0.1348   -2.0595 H   0  0  0  0  0  0  0  0  0  0  0  0
   -1.0849   -1.2292   -2.1107 H   0  0  0  0  0  0  0  0  0  0  0  0
    0.8414   -2.1298   -1.1257 H   0  0  0  0  0  0  0  0  0  0  0  0
    0.1716   -1.7438    0.4709 H   0  0  0  0  0  0  0  0  0  0  0  0
    1.9689   -0.9416   -2.2082 H   0  0  0  0  0  0  0  0  0  0  0  0
    1.8385    0.8568   -1.8395 H   0  0  0  0  0  0  0  0  0  0  0  0
    4.0705    0.9325   -2.0295 H   0  0  0  0  0  0  0  0  0  0  0  0
    4.2245   -0.8177   -2.0750 H   0  0  0  0  0  0  0  0  0  0  0  0
    5.7635    1.3470   -0.5167 H   0  0  0  0  0  0  0  0  0  0  0  0
    6.2071   -0.3554   -0.7938 H   0  0  0  0  0  0  0  0  0  0  0  0
    6.1703   -0.6398    1.8077 H   0  0  0  0  0  0  0  0  0  0  0  0
    5.7792    1.1771    1.8332 H   0  0  0  0  0  0  0  0  0  0  0  0
    7.7559    1.3798    0.5002 H   0  0  0  0  0  0  0  0  0  0  0  0
    4.3907   -1.4870    1.3434 H   0  0  0  0  0  0  0  0  0  0  0  0
    3.8693   -1.9889   -0.2871 H   0  0  0  0  0  0  0  0  0  0  0  0
    2.2838   -0.2960    1.6549 H   0  0  0  0  0  0  0  0  0  0  0  0
    1.9453   -1.9742    1.1751 H   0  0  0  0  0  0  0  0  0  0  0  0
   -0.7691    2.9975   -0.0776 H   0  0  0  0  0  0  0  0  0  0  0  0
   -1.2154    5.1887    0.7465 H   0  0  0  0  0  0  0  0  0  0  0  0
   -3.3860    5.7574    1.5975 H   0  0  0  0  0  0  0  0  0  0  0  0
   -5.1466    4.1261    1.6308 H   0  0  0  0  0  0  0  0  0  0  0  0
   -2.2256   -1.9450   -0.8413 H   0  0  0  0  0  0  0  0  0  0  0  0
   -5.9712   -3.1900    0.0153 H   0  0  0  0  0  0  0  0  0  0  0  0
   -6.6636   -0.9949    0.6879 H   0  0  0  0  0  0  0  0  0  0  0  0
  1  2  1  0
  2  3  1  0
  3  4  1  0
  4  5  1  0
  5  6  1  0
  6  7  1  0
  7  8  1  0
  8  9  1  0
  9 10  1  0
  7 11  1  0
 11 12  1  0
  1 13  2  0
 13 14  1  0
 14 15  2  0
 15 16  1  0
 16 17  2  0
 17 18  1  0
 18 19  2  0
 19 20  1  0
 20 21  1  0
 21 22  2  0
 22 23  1  0
 23 24  2  0
 24 25  1  0
 25 26  2  0
 24 27  1  0
 27 28  1  0
 27 29  1  0
 27 30  1  0
 12  4  1  0
 22 13  1  0
 19 14  1  0
 26 21  1  0
  1 31  1  0
  2 32  1  0
  2 33  1  0
  3 34  1  0
  3 35  1  0
  5 36  1  0
  5 37  1  0
  6 38  1  0
  6 39  1  0
  8 40  1  0
  8 41  1  0
  9 42  1  0
  9 43  1  0
 10 44  1  0
 11 45  1  0
 11 46  1  0
 12 47  1  0
 12 48  1  0
 15 49  1  0
 16 50  1  0
 17 51  1  0
 18 52  1  0
 23 53  1  0
 25 54  1  0
 26 55  1  0
M  END
$$$$
