@<TRIPOS>MOLECULE
*****
 55 58 0 0 0
SMALL
GASTEIGER

@<TRIPOS>ATOM
      1 C          -1.2694    0.5064   -0.7050 C.2     1  UNL1       -0.0745
      2 C          -0.6491   -0.6687   -1.2622 C.3     1  UNL1       -0.0211
      3 C           0.4595   -1.3149   -0.4894 C.3     1  UNL1        0.0024
      4 N           1.5845   -0.4251   -0.2651 N.3     1  UNL1       -0.2996
      5 C           2.2414   -0.1400   -1.4786 C.3     1  UNL1        0.0117
      6 C           3.7120    0.0042   -1.4999 C.3     1  UNL1        0.0118
      7 N           4.2271    0.0437   -0.1488 N.3     1  UNL1       -0.2977
      8 C           5.6326    0.3014   -0.1066 C.3     1  UNL1        0.0222
      9 C           6.2216    0.3502    1.2761 C.3     1  UNL1        0.0569
     10 O           7.5927    0.6134    1.1203 O.3     1  UNL1       -0.3937
     11 C           3.8033   -1.1690    0.4870 C.3     1  UNL1        0.0118
     12 C           2.3376   -1.0101    0.7953 C.3     1  UNL1        0.0117
     13 C          -2.4435    0.8187   -0.2079 C.2     1  UNL1       -0.0125
     14 C          -2.7574    2.1381    0.2681 C.ar    1  UNL1       -0.0039
     15 C          -1.7828    3.1124    0.2714 C.ar    1  UNL1       -0.0530
     16 C          -1.9439    4.3826    0.7193 C.ar    1  UNL1       -0.0611
     17 C          -3.1934    4.7621    1.2253 C.ar    1  UNL1       -0.0607
     18 C          -4.1930    3.8154    1.2376 C.ar    1  UNL1       -0.0474
     19 C          -3.9513    2.5557    0.7677 C.ar    1  UNL1        0.0205
     20 S          -5.3318    1.4639    0.8089 S.3     1  UNL1       -0.0882
     21 C          -4.7242   -0.1393    0.2462 C.ar    1  UNL1        0.0205
     22 C          -3.4288   -0.2211   -0.1831 C.ar    1  UNL1       -0.0033
     23 C          -3.1101   -1.4918   -0.5403 C.ar    1  UNL1       -0.0413
     24 C          -3.9389   -2.6229   -0.5089 C.ar    1  UNL1        0.0555
     25 C          -5.2292   -2.3778   -0.0509 C.ar    1  UNL1       -0.0490
     26 C          -5.6542   -1.1246    0.3403 C.ar    1  UNL1       -0.0469
     27 C          -3.6729   -4.0231   -0.8802 C.3     1  UNL1        0.4174
     28 F          -4.3327   -4.8380    0.0181 F       1  UNL1       -0.1659
     29 F          -2.3129   -4.2660   -0.8902 F       1  UNL1       -0.1659
     30 F          -4.2246   -4.2547   -2.1432 F       1  UNL1       -0.1659
     31 H          -0.5630    1.3240   -0.6823 H       1  UNL1        0.0579
     32 H           0.0767   -0.1348   -2.0595 H       1  UNL1        0.0320
     33 H          -1.0849   -1.2292   -2.1107 H       1  UNL1        0.0320
     34 H           0.8414   -2.1298   -1.1257 H       1  UNL1        0.0429
     35 H           0.1716   -1.7438    0.4709 H       1  UNL1        0.0429
     36 H           1.9689   -0.9416   -2.2082 H       1  UNL1        0.0439
     37 H           1.8385    0.8568   -1.8395 H       1  UNL1        0.0439
     38 H           4.0705    0.9325   -2.0295 H       1  UNL1        0.0439
     39 H           4.2245   -0.8177   -2.0750 H       1  UNL1        0.0439
     40 H           5.7635    1.3470   -0.5167 H       1  UNL1        0.0449
     41 H           6.2071   -0.3554   -0.7938 H       1  UNL1        0.0449
     42 H           6.1703   -0.6398    1.8077 H       1  UNL1        0.0570
     43 H           5.7792    1.1771    1.8332 H       1  UNL1        0.0570
     44 H           7.7559    1.3798    0.5002 H       1  UNL1        0.2095
     45 H           4.3907   -1.4870    1.3434 H       1  UNL1        0.0439
     46 H           3.8693   -1.9889   -0.2871 H       1  UNL1        0.0439
     47 H           2.2838   -0.2960    1.6549 H       1  UNL1        0.0439
     48 H           1.9453   -1.9742    1.1751 H       1  UNL1        0.0439
     49 H          -0.7691    2.9975   -0.0776 H       1  UNL1        0.0624
     50 H          -1.2154    5.1887    0.7465 H       1  UNL1        0.0618
     51 H          -3.3860    5.7574    1.5975 H       1  UNL1        0.0618
     52 H          -5.1466    4.1261    1.6308 H       1  UNL1        0.0629
     53 H          -2.2256   -1.9450   -0.8413 H       1  UNL1        0.0629
     54 H          -5.9712   -3.1900    0.0153 H       1  UNL1        0.0623
     55 H          -6.6636   -0.9949    0.6879 H       1  UNL1        0.0629
@<TRIPOS>BOND
     1     1     2    1
     2     2     3    1
     3     3     4    1
     4     4     5    1
     5     5     6    1
     6     6     7    1
     7     7     8    1
     8     8     9    1
     9     9    10    1
    10     7    11    1
    11    11    12    1
    12     1    13    2
    13    13    14    1
    14    14    15   ar
    15    15    16   ar
    16    16    17   ar
    17    17    18   ar
    18    18    19   ar
    19    19    20    1
    20    20    21    1
    21    21    22   ar
    22    22    23   ar
    23    23    24   ar
    24    24    25   ar
    25    25    26   ar
    26    24    27    1
    27    27    28    1
    28    27    29    1
    29    27    30    1
    30    12     4    1
    31    22    13    1
    32    19    14   ar
    33    26    21   ar
    34     1    31    1
    35     2    32    1
    36     2    33    1
    37     3    34    1
    38     3    35    1
    39     5    36    1
    40     5    37    1
    41     6    38    1
    42     6    39    1
    43     8    40    1
    44     8    41    1
    45     9    42    1
    46     9    43    1
    47    10    44    1
    48    11    45    1
    49    11    46    1
    50    12    47    1
    51    12    48    1
    52    15    49    1
    53    16    50    1
    54    17    51    1
    55    18    52    1
    56    23    53    1
    57    25    54    1
    58    26    55    1
