
     RDKit          3D

 47 50  0  0  0  0  0  0  0  0999 V2000
    2.9876    3.7865    0.9360 N   0  0  0  0  0  0  0  0  0  0  0  0
    1.5852    3.8866    0.9240 C   0  0  0  0  0  0  0  0  0  0  0  0
    1.0258    4.9755    1.1164 O   0  0  0  0  0  0  0  0  0  0  0  0
    0.7759    2.6915    0.6816 C   0  0  0  0  0  0  0  0  0  0  0  0
   -0.6198    2.7867    0.6687 C   0  0  0  0  0  0  0  0  0  0  0  0
   -1.4584    1.7154    0.4489 C   0  0  0  0  0  0  0  0  0  0  0  0
   -0.9034    0.4832    0.2293 C   0  0  0  0  0  0  0  0  0  0  0  0
   -1.7218   -0.6323   -0.0083 N   0  0  0  0  0  0  0  0  0  0  0  0
   -3.1543   -0.6360   -0.0845 C   0  0  1  0  0  0  0  0  0  0  0  0
   -3.7484    0.1080   -1.2285 C   0  0  0  0  0  0  0  0  0  0  0  0
   -5.1423    0.5693   -0.7816 C   0  0  0  0  0  0  0  0  0  0  0  0
   -5.6975   -0.5606    0.0696 C   0  0  0  0  0  0  0  0  0  0  0  0
   -5.1817   -1.8217   -0.3814 N   0  0  0  0  0  0  0  0  0  0  0  0
   -3.7664   -2.0020   -0.0537 C   0  0  0  0  0  0  0  0  0  0  0  0
    0.4619    0.3482    0.2342 C   0  0  0  0  0  0  0  0  0  0  0  0
    1.2912   -0.7485    0.0464 C   0  0  0  0  0  0  0  0  0  0  0  0
    2.5944   -0.3156    0.1567 C   0  0  0  0  0  0  0  0  0  0  0  0
    3.7878   -1.1422    0.0278 C   0  0  0  0  0  0  0  0  0  0  0  0
    3.6893   -2.4929   -0.2282 C   0  0  0  0  0  0  0  0  0  0  0  0
    4.8060   -3.3017   -0.3555 C   0  0  0  0  0  0  0  0  0  0  0  0
    6.0590   -2.7579   -0.2256 C   0  0  0  0  0  0  0  0  0  0  0  0
    6.1915   -1.4134    0.0300 C   0  0  0  0  0  0  0  0  0  0  0  0
    5.0507   -0.6156    0.1547 C   0  0  0  0  0  0  0  0  0  0  0  0
    2.5720    1.0258    0.4084 N   0  0  0  0  0  0  0  0  0  0  0  0
    1.3004    1.4427    0.4585 C   0  0  0  0  0  0  0  0  0  0  0  0
    3.5691    3.9088    0.0606 H   0  0  0  0  0  0  0  0  0  0  0  0
    3.5495    3.5862    1.8069 H   0  0  0  0  0  0  0  0  0  0  0  0
   -1.0334    3.7658    0.8436 H   0  0  0  0  0  0  0  0  0  0  0  0
   -2.5501    1.8821    0.4636 H   0  0  0  0  0  0  0  0  0  0  0  0
   -1.2601   -1.5871   -0.1502 H   0  0  0  0  0  0  0  0  0  0  0  0
   -3.5103   -0.1142    0.8556 H   0  0  0  0  0  0  0  0  0  0  0  0
   -3.2099    0.9692   -1.6040 H   0  0  0  0  0  0  0  0  0  0  0  0
   -3.9744   -0.5781   -2.1029 H   0  0  0  0  0  0  0  0  0  0  0  0
   -5.7826    0.8065   -1.6457 H   0  0  0  0  0  0  0  0  0  0  0  0
   -5.0043    1.4404   -0.1162 H   0  0  0  0  0  0  0  0  0  0  0  0
   -5.5088   -0.3934    1.1521 H   0  0  0  0  0  0  0  0  0  0  0  0
   -6.7918   -0.5833   -0.0543 H   0  0  0  0  0  0  0  0  0  0  0  0
   -5.3594   -1.9021   -1.4056 H   0  0  0  0  0  0  0  0  0  0  0  0
   -3.3344   -2.5928   -0.8876 H   0  0  0  0  0  0  0  0  0  0  0  0
   -3.6559   -2.5101    0.9309 H   0  0  0  0  0  0  0  0  0  0  0  0
    1.0133   -1.7789   -0.1534 H   0  0  0  0  0  0  0  0  0  0  0  0
    2.7064   -2.9193   -0.3301 H   0  0  0  0  0  0  0  0  0  0  0  0
    4.6311   -4.3413   -0.5548 H   0  0  0  0  0  0  0  0  0  0  0  0
    6.9143   -3.4241   -0.3319 H   0  0  0  0  0  0  0  0  0  0  0  0
    7.1850   -1.0123    0.1274 H   0  0  0  0  0  0  0  0  0  0  0  0
    5.1555    0.4367    0.3548 H   0  0  0  0  0  0  0  0  0  0  0  0
    3.4658    1.5622    0.5290 H   0  0  0  0  0  0  0  0  0  0  0  0
  1  2  1  0
  2  3  2  0
  2  4  1  0
  4  5  2  0
  5  6  1  0
  6  7  2  0
  7  8  1  0
  8  9  1  0
  9 10  1  0
 10 11  1  0
 11 12  1  0
 12 13  1  0
 13 14  1  0
  7 15  1  0
 15 16  1  0
 16 17  2  0
 17 18  1  0
 18 19  2  0
 19 20  1  0
 20 21  2  0
 21 22  1  0
 22 23  2  0
 17 24  1  0
 24 25  1  0
 25  4  1  0
 14  9  1  0
 25 15  2  0
 23 18  1  0
  1 26  1  0
  1 27  1  0
  5 28  1  0
  6 29  1  0
  8 30  1  0
  9 31  1  1
 10 32  1  0
 10 33  1  0
 11 34  1  0
 11 35  1  0
 12 36  1  0
 12 37  1  0
 13 38  1  0
 14 39  1  0
 14 40  1  0
 16 41  1  0
 19 42  1  0
 20 43  1  0
 21 44  1  0
 22 45  1  0
 23 46  1  0
 24 47  1  0
M  END
$$$$
