@<TRIPOS>MOLECULE
*****
 47 50 0 0 0
SMALL
GASTEIGER

@<TRIPOS>ATOM
      1 N           2.9876    3.7865    0.9360 N.am    1  UNL1       -0.3253
      2 C           1.5852    3.8866    0.9240 C.2     1  UNL1        0.2435
      3 O           1.0258    4.9755    1.1164 O.2     1  UNL1       -0.2703
      4 C           0.7759    2.6915    0.6816 C.ar    1  UNL1        0.0604
      5 C          -0.6198    2.7867    0.6687 C.ar    1  UNL1       -0.0459
      6 C          -1.4584    1.7154    0.4489 C.ar    1  UNL1       -0.0394
      7 C          -0.9034    0.4832    0.2293 C.ar    1  UNL1        0.0367
      8 N          -1.7218   -0.6323   -0.0083 N.pl3   1  UNL1       -0.3393
      9 C          -3.1543   -0.6360   -0.0845 C.3     1  UNL1        0.0332
     10 C          -3.7484    0.1080   -1.2285 C.3     1  UNL1       -0.0323
     11 C          -5.1423    0.5693   -0.7816 C.3     1  UNL1       -0.0387
     12 C          -5.6975   -0.5606    0.0696 C.3     1  UNL1       -0.0040
     13 N          -5.1817   -1.8217   -0.3814 N.3     1  UNL1       -0.3142
     14 C          -3.7664   -2.0020   -0.0537 C.3     1  UNL1        0.0143
     15 C           0.4619    0.3482    0.2342 C.ar    1  UNL1        0.0218
     16 C           1.2912   -0.7485    0.0464 C.ar    1  UNL1       -0.0269
     17 C           2.5944   -0.3156    0.1567 C.ar    1  UNL1        0.0475
     18 C           3.7878   -1.1422    0.0278 C.ar    1  UNL1       -0.0017
     19 C           3.6893   -2.4929   -0.2282 C.ar    1  UNL1       -0.0526
     20 C           4.8060   -3.3017   -0.3555 C.ar    1  UNL1       -0.0611
     21 C           6.0590   -2.7579   -0.2256 C.ar    1  UNL1       -0.0617
     22 C           6.1915   -1.4134    0.0300 C.ar    1  UNL1       -0.0611
     23 C           5.0507   -0.6156    0.1547 C.ar    1  UNL1       -0.0526
     24 N           2.5720    1.0258    0.4084 N.ar    1  UNL1       -0.3535
     25 C           1.3004    1.4427    0.4585 C.ar    1  UNL1        0.0609
     26 H           3.5691    3.9088    0.0606 H       1  UNL1        0.1453
     27 H           3.5495    3.5862    1.8069 H       1  UNL1        0.1453
     28 H          -1.0334    3.7658    0.8436 H       1  UNL1        0.0626
     29 H          -2.5501    1.8821    0.4636 H       1  UNL1        0.0636
     30 H          -1.2601   -1.5871   -0.1502 H       1  UNL1        0.1464
     31 H          -3.5103   -0.1142    0.8556 H       1  UNL1        0.0510
     32 H          -3.2099    0.9692   -1.6040 H       1  UNL1        0.0284
     33 H          -3.9744   -0.5781   -2.1029 H       1  UNL1        0.0284
     34 H          -5.7826    0.8065   -1.6457 H       1  UNL1        0.0278
     35 H          -5.0043    1.4404   -0.1162 H       1  UNL1        0.0278
     36 H          -5.5088   -0.3934    1.1521 H       1  UNL1        0.0424
     37 H          -6.7918   -0.5833   -0.0543 H       1  UNL1        0.0424
     38 H          -5.3594   -1.9021   -1.4056 H       1  UNL1        0.1220
     39 H          -3.3344   -2.5928   -0.8876 H       1  UNL1        0.0442
     40 H          -3.6559   -2.5101    0.9309 H       1  UNL1        0.0442
     41 H           1.0133   -1.7789   -0.1534 H       1  UNL1        0.0645
     42 H           2.7064   -2.9193   -0.3301 H       1  UNL1        0.0624
     43 H           4.6311   -4.3413   -0.5548 H       1  UNL1        0.0618
     44 H           6.9143   -3.4241   -0.3319 H       1  UNL1        0.0618
     45 H           7.1850   -1.0123    0.1274 H       1  UNL1        0.0618
     46 H           5.1555    0.4367    0.3548 H       1  UNL1        0.0624
     47 H           3.4658    1.5622    0.5290 H       1  UNL1        0.1659
@<TRIPOS>BOND
     1     1     2   am
     2     2     3    2
     3     2     4    1
     4     4     5   ar
     5     5     6   ar
     6     6     7   ar
     7     7     8    1
     8     8     9    1
     9     9    10    1
    10    10    11    1
    11    11    12    1
    12    12    13    1
    13    13    14    1
    14     7    15   ar
    15    15    16   ar
    16    16    17   ar
    17    17    18    1
    18    18    19   ar
    19    19    20   ar
    20    20    21   ar
    21    21    22   ar
    22    22    23   ar
    23    17    24   ar
    24    24    25   ar
    25    25     4   ar
    26    14     9    1
    27    25    15   ar
    28    23    18   ar
    29     1    26    1
    30     1    27    1
    31     5    28    1
    32     6    29    1
    33     8    30    1
    34     9    31    1
    35    10    32    1
    36    10    33    1
    37    11    34    1
    38    11    35    1
    39    12    36    1
    40    12    37    1
    41    13    38    1
    42    14    39    1
    43    14    40    1
    44    16    41    1
    45    19    42    1
    46    20    43    1
    47    21    44    1
    48    22    45    1
    49    23    46    1
    50    24    47    1
