@<TRIPOS>MOLECULE
*****
 44 45 0 0 0
SMALL
GASTEIGER

@<TRIPOS>ATOM
      1 C           5.2498   -3.0300    1.6366 C.3     1  UNL1        0.0820
      2 O           4.6486   -1.8115    1.2074 O.3     1  UNL1       -0.4645
      3 C           4.9001   -1.2472   -0.0302 C.2     1  UNL1        0.3389
      4 O           5.6934   -1.8434   -0.7990 O.2     1  UNL1       -0.2450
      5 C           4.2438    0.0065   -0.3979 C.ar    1  UNL1        0.0590
      6 C           4.4754    0.5925   -1.6250 C.ar    1  UNL1       -0.0474
      7 C           3.8583    1.7759   -1.9767 C.ar    1  UNL1       -0.0545
      8 C           2.9874    2.4258   -1.1268 C.ar    1  UNL1       -0.0078
      9 C           2.3177    3.7048   -1.5016 C.3     1  UNL1        0.1429
     10 O           1.0888    3.4988   -2.1403 O.2     1  UNL1       -0.3890
     11 N           0.0853    2.8272   -1.4881 N.2     1  UNL1       -0.0922
     12 C          -0.1800    1.6251   -1.8575 C.2     1  UNL1        0.0736
     13 C          -1.2447    0.8590   -1.1938 C.ar    1  UNL1       -0.0038
     14 C          -1.5392   -0.4257   -1.5775 C.ar    1  UNL1       -0.0525
     15 C          -2.5250   -1.1344   -0.9627 C.ar    1  UNL1       -0.0540
     16 C          -3.2537   -0.5640    0.0702 C.ar    1  UNL1       -0.0248
     17 C          -4.2956   -1.3587    0.6959 C.2     1  UNL1       -0.0496
     18 C          -5.0479   -0.9356    1.6746 C.2     1  UNL1        0.0027
     19 C          -6.0968   -1.7050    2.3206 C.2     1  UNL1        0.2593
     20 O          -6.7679   -1.1779    3.2729 O.2     1  UNL1       -0.2687
     21 N          -6.4135   -3.0285    1.9388 N.am    1  UNL1       -0.1940
     22 O          -7.4242   -3.6879    2.6046 O.3     1  UNL1       -0.2949
     23 C          -2.9654    0.7213    0.4604 C.ar    1  UNL1       -0.0540
     24 C          -1.9529    1.4494   -0.1708 C.ar    1  UNL1       -0.0525
     25 C           2.7552    1.8403    0.1008 C.ar    1  UNL1       -0.0545
     26 C           3.3733    0.6569    0.4506 C.ar    1  UNL1       -0.0474
     27 H           5.3572   -3.6615    0.7256 H       1  UNL1        0.0661
     28 H           6.2831   -2.7670    2.0061 H       1  UNL1        0.0661
     29 H           4.6347   -3.4859    2.4182 H       1  UNL1        0.0661
     30 H           5.1671    0.0803   -2.3054 H       1  UNL1        0.0626
     31 H           4.0417    2.2401   -2.9486 H       1  UNL1        0.0622
     32 H           3.0088    4.2853   -2.1527 H       1  UNL1        0.0775
     33 H           2.2333    4.2962   -0.5582 H       1  UNL1        0.0775
     34 H           0.4001    1.2065   -2.6610 H       1  UNL1        0.0869
     35 H          -0.9335   -0.8326   -2.4006 H       1  UNL1        0.0624
     36 H          -2.7255   -2.1529   -1.3000 H       1  UNL1        0.0624
     37 H          -4.4865   -2.3763    0.3494 H       1  UNL1        0.0625
     38 H          -4.8685    0.0909    2.0372 H       1  UNL1        0.0670
     39 H          -5.8941   -3.4939    1.1714 H       1  UNL1        0.1825
     40 H          -8.2490   -3.1360    2.4215 H       1  UNL1        0.2414
     41 H          -3.4858    1.2278    1.2506 H       1  UNL1        0.0624
     42 H          -1.7176    2.4729    0.1342 H       1  UNL1        0.0624
     43 H           2.0656    2.3319    0.8041 H       1  UNL1        0.0622
     44 H           3.1987    0.1795    1.4227 H       1  UNL1        0.0626
@<TRIPOS>BOND
     1     1     2    1
     2     2     3    1
     3     3     4    2
     4     3     5    1
     5     5     6   ar
     6     6     7   ar
     7     7     8   ar
     8     8     9    1
     9     9    10    1
    10    10    11    1
    11    11    12    2
    12    12    13    1
    13    13    14   ar
    14    14    15   ar
    15    15    16   ar
    16    16    17    1
    17    17    18    2
    18    18    19    1
    19    19    20    2
    20    19    21   am
    21    21    22    1
    22    16    23   ar
    23    23    24   ar
    24     8    25   ar
    25    25    26   ar
    26    26     5   ar
    27    24    13   ar
    28     1    27    1
    29     1    28    1
    30     1    29    1
    31     6    30    1
    32     7    31    1
    33     9    32    1
    34     9    33    1
    35    12    34    1
    36    14    35    1
    37    15    36    1
    38    17    37    1
    39    18    38    1
    40    21    39    1
    41    22    40    1
    42    23    41    1
    43    24    42    1
    44    25    43    1
    45    26    44    1
