
     RDKit          3D

 44 45  0  0  0  0  0  0  0  0999 V2000
    5.2498   -3.0300    1.6366 C   0  0  0  0  0  0  0  0  0  0  0  0
    4.6486   -1.8115    1.2074 O   0  0  0  0  0  0  0  0  0  0  0  0
    4.9001   -1.2472   -0.0302 C   0  0  0  0  0  0  0  0  0  0  0  0
    5.6934   -1.8434   -0.7990 O   0  0  0  0  0  0  0  0  0  0  0  0
    4.2438    0.0065   -0.3979 C   0  0  0  0  0  0  0  0  0  0  0  0
    4.4754    0.5925   -1.6250 C   0  0  0  0  0  0  0  0  0  0  0  0
    3.8583    1.7759   -1.9767 C   0  0  0  0  0  0  0  0  0  0  0  0
    2.9874    2.4258   -1.1268 C   0  0  0  0  0  0  0  0  0  0  0  0
    2.3177    3.7048   -1.5016 C   0  0  0  0  0  0  0  0  0  0  0  0
    1.0888    3.4988   -2.1403 O   0  0  0  0  0  0  0  0  0  0  0  0
    0.0853    2.8272   -1.4881 N   0  0  0  0  0  0  0  0  0  0  0  0
   -0.1800    1.6251   -1.8575 C   0  0  0  0  0  0  0  0  0  0  0  0
   -1.2447    0.8590   -1.1938 C   0  0  0  0  0  0  0  0  0  0  0  0
   -1.5392   -0.4257   -1.5775 C   0  0  0  0  0  0  0  0  0  0  0  0
   -2.5250   -1.1344   -0.9627 C   0  0  0  0  0  0  0  0  0  0  0  0
   -3.2537   -0.5640    0.0702 C   0  0  0  0  0  0  0  0  0  0  0  0
   -4.2956   -1.3587    0.6959 C   0  0  0  0  0  0  0  0  0  0  0  0
   -5.0479   -0.9356    1.6746 C   0  0  0  0  0  0  0  0  0  0  0  0
   -6.0968   -1.7050    2.3206 C   0  0  0  0  0  0  0  0  0  0  0  0
   -6.7679   -1.1779    3.2729 O   0  0  0  0  0  0  0  0  0  0  0  0
   -6.4135   -3.0285    1.9388 N   0  0  0  0  0  0  0  0  0  0  0  0
   -7.4242   -3.6879    2.6046 O   0  0  0  0  0  0  0  0  0  0  0  0
   -2.9654    0.7213    0.4604 C   0  0  0  0  0  0  0  0  0  0  0  0
   -1.9529    1.4494   -0.1708 C   0  0  0  0  0  0  0  0  0  0  0  0
    2.7552    1.8403    0.1008 C   0  0  0  0  0  0  0  0  0  0  0  0
    3.3733    0.6569    0.4506 C   0  0  0  0  0  0  0  0  0  0  0  0
    5.3572   -3.6615    0.7256 H   0  0  0  0  0  0  0  0  0  0  0  0
    6.2831   -2.7670    2.0061 H   0  0  0  0  0  0  0  0  0  0  0  0
    4.6347   -3.4859    2.4182 H   0  0  0  0  0  0  0  0  0  0  0  0
    5.1671    0.0803   -2.3054 H   0  0  0  0  0  0  0  0  0  0  0  0
    4.0417    2.2401   -2.9486 H   0  0  0  0  0  0  0  0  0  0  0  0
    3.0088    4.2853   -2.1527 H   0  0  0  0  0  0  0  0  0  0  0  0
    2.2333    4.2962   -0.5582 H   0  0  0  0  0  0  0  0  0  0  0  0
    0.4001    1.2065   -2.6610 H   0  0  0  0  0  0  0  0  0  0  0  0
   -0.9335   -0.8326   -2.4006 H   0  0  0  0  0  0  0  0  0  0  0  0
   -2.7255   -2.1529   -1.3000 H   0  0  0  0  0  0  0  0  0  0  0  0
   -4.4865   -2.3763    0.3494 H   0  0  0  0  0  0  0  0  0  0  0  0
   -4.8685    0.0909    2.0372 H   0  0  0  0  0  0  0  0  0  0  0  0
   -5.8941   -3.4939    1.1714 H   0  0  0  0  0  0  0  0  0  0  0  0
   -8.2490   -3.1360    2.4215 H   0  0  0  0  0  0  0  0  0  0  0  0
   -3.4858    1.2278    1.2506 H   0  0  0  0  0  0  0  0  0  0  0  0
   -1.7176    2.4729    0.1342 H   0  0  0  0  0  0  0  0  0  0  0  0
    2.0656    2.3319    0.8041 H   0  0  0  0  0  0  0  0  0  0  0  0
    3.1987    0.1795    1.4227 H   0  0  0  0  0  0  0  0  0  0  0  0
  1  2  1  0
  2  3  1  0
  3  4  2  0
  3  5  1  0
  5  6  2  0
  6  7  1  0
  7  8  2  0
  8  9  1  0
  9 10  1  0
 10 11  1  0
 11 12  2  0
 12 13  1  0
 13 14  2  0
 14 15  1  0
 15 16  2  0
 16 17  1  0
 17 18  2  0
 18 19  1  0
 19 20  2  0
 19 21  1  0
 21 22  1  0
 16 23  1  0
 23 24  2  0
  8 25  1  0
 25 26  2  0
 26  5  1  0
 24 13  1  0
  1 27  1  0
  1 28  1  0
  1 29  1  0
  6 30  1  0
  7 31  1  0
  9 32  1  0
  9 33  1  0
 12 34  1  0
 14 35  1  0
 15 36  1  0
 17 37  1  0
 18 38  1  0
 21 39  1  0
 22 40  1  0
 23 41  1  0
 24 42  1  0
 25 43  1  0
 26 44  1  0
M  END
$$$$
