@<TRIPOS>MOLECULE
*****
 64 68 0 0 0
SMALL
GASTEIGER

@<TRIPOS>ATOM
      1 C          -4.1785    2.0131   -2.9247 C.3     1  UNL1       -0.0375
      2 C          -3.8106    1.8339   -1.4992 C.ar    1  UNL1       -0.0194
      3 C          -2.7750    0.9706   -1.2137 C.ar    1  UNL1       -0.0351
      4 C          -2.3437    0.7219    0.0686 C.ar    1  UNL1        0.0400
      5 N          -1.2491   -0.1980    0.3497 N.am    1  UNL1       -0.2543
      6 C           0.1220    0.1500    0.3623 C.2     1  UNL1        0.2542
      7 O           0.5890    1.3116    0.1270 O.2     1  UNL1       -0.2695
      8 C           0.8767   -1.0423    0.6870 C.ar    1  UNL1        0.0722
      9 C           2.1639   -1.5631    0.8849 C.ar    1  UNL1        0.0666
     10 C           3.3842   -0.7738    0.7777 C.2     1  UNL1        0.2463
     11 O           4.1596   -0.8020    1.7645 O.2     1  UNL1       -0.2701
     12 N           3.7006   -0.0095   -0.3632 N.am    1  UNL1       -0.3101
     13 C           4.8999    0.7710   -0.4675 C.3     1  UNL1        0.0246
     14 C           4.9989    1.8320    0.6013 C.3     1  UNL1        0.0139
     15 N           6.1862    2.6148    0.4857 N.3     1  UNL1       -0.3069
     16 C           6.2326    3.4626   -0.6665 C.3     1  UNL1       -0.0130
     17 C           7.4120    1.9172    0.7113 C.3     1  UNL1       -0.0130
     18 C           1.9977   -2.8902    1.1748 C.ar    1  UNL1        0.0175
     19 N           0.6982   -3.2199    1.1687 N.ar    1  UNL1       -0.3503
     20 C           0.1324   -4.5375    1.4280 C.3     1  UNL1        0.0117
     21 C           0.0075   -2.0729    0.8665 C.ar    1  UNL1        0.0569
     22 C          -1.3578   -1.5846    0.6746 C.3     1  UNL1        0.0972
     23 C          -2.1238   -2.3982   -0.2999 C.ar    1  UNL1       -0.0208
     24 C          -3.1011   -3.2808    0.1654 C.ar    1  UNL1       -0.0550
     25 C          -3.8465   -4.0770   -0.6756 C.ar    1  UNL1       -0.0431
     26 C          -3.6389   -4.0193   -2.0417 C.ar    1  UNL1        0.0410
     27 CL         -4.5821   -5.0276   -3.1181 Cl      1  UNL1       -0.0835
     28 C          -2.6696   -3.1429   -2.4972 C.ar    1  UNL1       -0.0431
     29 C          -1.9309   -2.3526   -1.6497 C.ar    1  UNL1       -0.0550
     30 C          -2.9860    1.3736    1.1035 C.ar    1  UNL1       -0.0130
     31 C          -4.0410    2.2587    0.8693 C.ar    1  UNL1        0.0907
     32 C          -4.4331    2.4690   -0.4553 C.ar    1  UNL1        0.1157
     33 N          -5.4568    3.3494   -0.4511 N.ar    1  UNL1       -0.1292
     34 N          -5.6857    3.6665    0.8099 N.ar    1  UNL1       -0.0648
     35 N          -4.8419    3.0173    1.6071 N.ar    1  UNL1       -0.2469
     36 C          -4.7790    3.1015    3.0693 C.3     1  UNL1        0.0325
     37 H          -3.4971    2.7705   -3.4073 H       1  UNL1        0.0278
     38 H          -4.0878    1.0799   -3.5155 H       1  UNL1        0.0278
     39 H          -5.1920    2.4779   -2.9943 H       1  UNL1        0.0278
     40 H          -2.2573    0.4578   -2.0257 H       1  UNL1        0.0639
     41 H           3.0319   -0.0158   -1.1606 H       1  UNL1        0.1491
     42 H           4.9766    1.2801   -1.4460 H       1  UNL1        0.0475
     43 H           5.8227    0.1556   -0.3783 H       1  UNL1        0.0475
     44 H           5.0349    1.3565    1.6244 H       1  UNL1        0.0442
     45 H           4.1124    2.4902    0.6255 H       1  UNL1        0.0442
     46 H           7.2700    3.9003   -0.7034 H       1  UNL1        0.0391
     47 H           5.5244    4.3084   -0.5701 H       1  UNL1        0.0391
     48 H           6.0752    2.9817   -1.6304 H       1  UNL1        0.0391
     49 H           7.7103    1.2609   -0.1216 H       1  UNL1        0.0391
     50 H           8.2143    2.6415    0.9835 H       1  UNL1        0.0391
     51 H           7.2763    1.2665    1.6141 H       1  UNL1        0.0391
     52 H           2.8564   -3.5498    1.3773 H       1  UNL1        0.0817
     53 H          -0.6498   -4.7613    0.6438 H       1  UNL1        0.0456
     54 H          -0.2559   -4.6639    2.4379 H       1  UNL1        0.0456
     55 H           0.9197   -5.2992    1.2515 H       1  UNL1        0.0456
     56 H          -1.9199   -1.6458    1.6451 H       1  UNL1        0.0619
     57 H          -3.2680   -3.3304    1.2370 H       1  UNL1        0.0621
     58 H          -4.6029   -4.7538   -0.2516 H       1  UNL1        0.0632
     59 H          -2.5276   -3.1182   -3.5739 H       1  UNL1        0.0632
     60 H          -1.1922   -1.6919   -2.0617 H       1  UNL1        0.0621
     61 H          -2.6873    1.2168    2.1406 H       1  UNL1        0.0658
     62 H          -4.5220    2.0761    3.4389 H       1  UNL1        0.0473
     63 H          -5.8088    3.3944    3.4200 H       1  UNL1        0.0473
     64 H          -4.0871    3.8728    3.4141 H       1  UNL1        0.0473
@<TRIPOS>BOND
     1     1     2    1
     2     2     3   ar
     3     3     4   ar
     4     4     5    1
     5     5     6   am
     6     6     7    2
     7     6     8    1
     8     8     9   ar
     9     9    10    1
    10    10    11    2
    11    10    12   am
    12    12    13    1
    13    13    14    1
    14    14    15    1
    15    15    16    1
    16    15    17    1
    17     9    18   ar
    18    18    19   ar
    19    19    20    1
    20    19    21   ar
    21    21    22    1
    22    22    23    1
    23    23    24   ar
    24    24    25   ar
    25    25    26   ar
    26    26    27    1
    27    26    28   ar
    28    28    29   ar
    29     4    30   ar
    30    30    31   ar
    31    31    32   ar
    32    32    33   ar
    33    33    34   ar
    34    34    35   ar
    35    35    36    1
    36    32     2   ar
    37    22     5    1
    38    29    23   ar
    39    35    31   ar
    40    21     8   ar
    41     1    37    1
    42     1    38    1
    43     1    39    1
    44     3    40    1
    45    12    41    1
    46    13    42    1
    47    13    43    1
    48    14    44    1
    49    14    45    1
    50    16    46    1
    51    16    47    1
    52    16    48    1
    53    17    49    1
    54    17    50    1
    55    17    51    1
    56    18    52    1
    57    20    53    1
    58    20    54    1
    59    20    55    1
    60    22    56    1
    61    24    57    1
    62    25    58    1
    63    28    59    1
    64    29    60    1
    65    30    61    1
    66    36    62    1
    67    36    63    1
    68    36    64    1
