
     RDKit          3D

 64 68  0  0  0  0  0  0  0  0999 V2000
   -4.1785    2.0131   -2.9247 C   0  0  0  0  0  0  0  0  0  0  0  0
   -3.8106    1.8339   -1.4992 C   0  0  0  0  0  0  0  0  0  0  0  0
   -2.7750    0.9706   -1.2137 C   0  0  0  0  0  0  0  0  0  0  0  0
   -2.3437    0.7219    0.0686 C   0  0  0  0  0  0  0  0  0  0  0  0
   -1.2491   -0.1980    0.3497 N   0  0  0  0  0  0  0  0  0  0  0  0
    0.1220    0.1500    0.3623 C   0  0  0  0  0  0  0  0  0  0  0  0
    0.5890    1.3116    0.1270 O   0  0  0  0  0  0  0  0  0  0  0  0
    0.8767   -1.0423    0.6870 C   0  0  0  0  0  0  0  0  0  0  0  0
    2.1639   -1.5631    0.8849 C   0  0  0  0  0  0  0  0  0  0  0  0
    3.3842   -0.7738    0.7777 C   0  0  0  0  0  0  0  0  0  0  0  0
    4.1596   -0.8020    1.7645 O   0  0  0  0  0  0  0  0  0  0  0  0
    3.7006   -0.0095   -0.3632 N   0  0  0  0  0  0  0  0  0  0  0  0
    4.8999    0.7710   -0.4675 C   0  0  0  0  0  0  0  0  0  0  0  0
    4.9989    1.8320    0.6013 C   0  0  0  0  0  0  0  0  0  0  0  0
    6.1862    2.6148    0.4857 N   0  0  0  0  0  0  0  0  0  0  0  0
    6.2326    3.4626   -0.6665 C   0  0  0  0  0  0  0  0  0  0  0  0
    7.4120    1.9172    0.7113 C   0  0  0  0  0  0  0  0  0  0  0  0
    1.9977   -2.8902    1.1748 C   0  0  0  0  0  0  0  0  0  0  0  0
    0.6982   -3.2199    1.1687 N   0  0  0  0  0  0  0  0  0  0  0  0
    0.1324   -4.5375    1.4280 C   0  0  0  0  0  0  0  0  0  0  0  0
    0.0075   -2.0729    0.8665 C   0  0  0  0  0  0  0  0  0  0  0  0
   -1.3578   -1.5846    0.6746 C   0  0  0  0  0  0  0  0  0  0  0  0
   -2.1238   -2.3982   -0.2999 C   0  0  0  0  0  0  0  0  0  0  0  0
   -3.1011   -3.2808    0.1654 C   0  0  0  0  0  0  0  0  0  0  0  0
   -3.8465   -4.0770   -0.6756 C   0  0  0  0  0  0  0  0  0  0  0  0
   -3.6389   -4.0193   -2.0417 C   0  0  0  0  0  0  0  0  0  0  0  0
   -4.5821   -5.0276   -3.1181 Cl  0  0  0  0  0  0  0  0  0  0  0  0
   -2.6696   -3.1429   -2.4972 C   0  0  0  0  0  0  0  0  0  0  0  0
   -1.9309   -2.3526   -1.6497 C   0  0  0  0  0  0  0  0  0  0  0  0
   -2.9860    1.3736    1.1035 C   0  0  0  0  0  0  0  0  0  0  0  0
   -4.0410    2.2587    0.8693 C   0  0  0  0  0  0  0  0  0  0  0  0
   -4.4331    2.4690   -0.4553 C   0  0  0  0  0  0  0  0  0  0  0  0
   -5.4568    3.3494   -0.4511 N   0  0  0  0  0  0  0  0  0  0  0  0
   -5.6857    3.6665    0.8099 N   0  0  0  0  0  0  0  0  0  0  0  0
   -4.8419    3.0173    1.6071 N   0  0  0  0  0  0  0  0  0  0  0  0
   -4.7790    3.1015    3.0693 C   0  0  0  0  0  0  0  0  0  0  0  0
   -3.4971    2.7705   -3.4073 H   0  0  0  0  0  0  0  0  0  0  0  0
   -4.0878    1.0799   -3.5155 H   0  0  0  0  0  0  0  0  0  0  0  0
   -5.1920    2.4779   -2.9943 H   0  0  0  0  0  0  0  0  0  0  0  0
   -2.2573    0.4578   -2.0257 H   0  0  0  0  0  0  0  0  0  0  0  0
    3.0319   -0.0158   -1.1606 H   0  0  0  0  0  0  0  0  0  0  0  0
    4.9766    1.2801   -1.4460 H   0  0  0  0  0  0  0  0  0  0  0  0
    5.8227    0.1556   -0.3783 H   0  0  0  0  0  0  0  0  0  0  0  0
    5.0349    1.3565    1.6244 H   0  0  0  0  0  0  0  0  0  0  0  0
    4.1124    2.4902    0.6255 H   0  0  0  0  0  0  0  0  0  0  0  0
    7.2700    3.9003   -0.7034 H   0  0  0  0  0  0  0  0  0  0  0  0
    5.5244    4.3084   -0.5701 H   0  0  0  0  0  0  0  0  0  0  0  0
    6.0752    2.9817   -1.6304 H   0  0  0  0  0  0  0  0  0  0  0  0
    7.7103    1.2609   -0.1216 H   0  0  0  0  0  0  0  0  0  0  0  0
    8.2143    2.6415    0.9835 H   0  0  0  0  0  0  0  0  0  0  0  0
    7.2763    1.2665    1.6141 H   0  0  0  0  0  0  0  0  0  0  0  0
    2.8564   -3.5498    1.3773 H   0  0  0  0  0  0  0  0  0  0  0  0
   -0.6498   -4.7613    0.6438 H   0  0  0  0  0  0  0  0  0  0  0  0
   -0.2559   -4.6639    2.4379 H   0  0  0  0  0  0  0  0  0  0  0  0
    0.9197   -5.2992    1.2515 H   0  0  0  0  0  0  0  0  0  0  0  0
   -1.9199   -1.6458    1.6451 H   0  0  0  0  0  0  0  0  0  0  0  0
   -3.2680   -3.3304    1.2370 H   0  0  0  0  0  0  0  0  0  0  0  0
   -4.6029   -4.7538   -0.2516 H   0  0  0  0  0  0  0  0  0  0  0  0
   -2.5276   -3.1182   -3.5739 H   0  0  0  0  0  0  0  0  0  0  0  0
   -1.1922   -1.6919   -2.0617 H   0  0  0  0  0  0  0  0  0  0  0  0
   -2.6873    1.2168    2.1406 H   0  0  0  0  0  0  0  0  0  0  0  0
   -4.5220    2.0761    3.4389 H   0  0  0  0  0  0  0  0  0  0  0  0
   -5.8088    3.3944    3.4200 H   0  0  0  0  0  0  0  0  0  0  0  0
   -4.0871    3.8728    3.4141 H   0  0  0  0  0  0  0  0  0  0  0  0
  1  2  1  0
  2  3  2  0
  3  4  1  0
  4  5  1  0
  5  6  1  0
  6  7  2  0
  6  8  1  0
  8  9  1  0
  9 10  1  0
 10 11  2  0
 10 12  1  0
 12 13  1  0
 13 14  1  0
 14 15  1  0
 15 16  1  0
 15 17  1  0
  9 18  2  0
 18 19  1  0
 19 20  1  0
 19 21  1  0
 21 22  1  0
 22 23  1  0
 23 24  2  0
 24 25  1  0
 25 26  2  0
 26 27  1  0
 26 28  1  0
 28 29  2  0
  4 30  2  0
 30 31  1  0
 31 32  2  0
 32 33  1  0
 33 34  2  0
 34 35  1  0
 35 36  1  0
 32  2  1  0
 22  5  1  0
 29 23  1  0
 35 31  1  0
 21  8  2  0
  1 37  1  0
  1 38  1  0
  1 39  1  0
  3 40  1  0
 12 41  1  0
 13 42  1  0
 13 43  1  0
 14 44  1  0
 14 45  1  0
 16 46  1  0
 16 47  1  0
 16 48  1  0
 17 49  1  0
 17 50  1  0
 17 51  1  0
 18 52  1  0
 20 53  1  0
 20 54  1  0
 20 55  1  0
 22 56  1  0
 24 57  1  0
 25 58  1  0
 28 59  1  0
 29 60  1  0
 30 61  1  0
 36 62  1  0
 36 63  1  0
 36 64  1  0
M  END
$$$$
