@<TRIPOS>MOLECULE
*****
 62 66 0 0 0
SMALL
GASTEIGER

@<TRIPOS>ATOM
      1 C           1.4856    4.2067   -1.3283 C.3     1  UNL1       -0.0653
      2 C           2.7679    3.6046   -0.7514 C.3     1  UNL1       -0.0556
      3 C           2.6067    3.2565    0.6770 C.3     1  UNL1       -0.0478
      4 C           1.6740    2.1678    1.0344 C.3     1  UNL1       -0.0084
      5 C           2.0681    0.8185    0.5742 C.ar    1  UNL1        0.0677
      6 N           2.8915   -0.0039    1.3391 N.ar    1  UNL1       -0.1703
      7 N           3.1597   -1.1047    0.7033 N.ar    1  UNL1       -0.2237
      8 C           3.9778   -2.1744    1.1702 C.ar    1  UNL1        0.0860
      9 C           3.5290   -3.1627    2.0338 C.ar    1  UNL1       -0.0347
     10 C           4.3149   -4.1985    2.4857 C.ar    1  UNL1       -0.0583
     11 C           5.6284   -4.2424    2.0434 C.ar    1  UNL1       -0.0418
     12 C           6.1140   -3.2778    1.1834 C.ar    1  UNL1        0.0613
     13 CL          7.7654   -3.3572    0.6433 Cl      1  UNL1       -0.0820
     14 C           5.3011   -2.2532    0.7489 C.ar    1  UNL1        0.0846
     15 CL          5.9294   -1.0388   -0.3422 Cl      1  UNL1       -0.0798
     16 C           2.5194   -1.0493   -0.5090 C.ar    1  UNL1        0.1548
     17 C           2.6137   -2.1141   -1.4707 C.2     1  UNL1        0.3557
     18 O           2.0561   -2.1015   -2.5825 O.2     1  UNL1       -0.2434
     19 O           3.3687   -3.2805   -1.2080 O.3     1  UNL1       -0.4761
     20 C           1.8348    0.1677   -0.5734 C.ar    1  UNL1        0.0123
     21 C           0.9977    0.5313   -1.7090 C.3     1  UNL1        0.0016
     22 C          -0.4797    0.3317   -1.4508 C.ar    1  UNL1       -0.0429
     23 C          -1.0707   -0.9133   -1.4649 C.ar    1  UNL1       -0.0577
     24 C          -2.4259   -1.0692   -1.2480 C.ar    1  UNL1       -0.0537
     25 C          -3.2709    0.0077   -1.0047 C.ar    1  UNL1       -0.0172
     26 C          -4.6952   -0.1758   -0.8005 C.ar    1  UNL1       -0.0072
     27 C          -5.5256   -0.6136   -1.8444 C.ar    1  UNL1       -0.0534
     28 C          -6.8687   -0.7901   -1.7083 C.ar    1  UNL1       -0.0611
     29 C          -7.4536   -0.5308   -0.4969 C.ar    1  UNL1       -0.0611
     30 C          -6.6906   -0.1028    0.5517 C.ar    1  UNL1       -0.0504
     31 C          -5.3020    0.0729    0.3886 C.ar    1  UNL1        0.0282
     32 C          -4.5337    0.5175    1.5388 C.ar    1  UNL1        0.1799
     33 N          -3.2166    0.7188    1.6419 N.ar    1  UNL1       -0.1084
     34 N          -2.8891    1.1142    2.8389 N.ar    1  UNL1       -0.0229
     35 N          -4.0033    1.1782    3.5462 N.ar    1  UNL1       -0.0464
     36 N          -5.0102    0.8221    2.7819 N.ar    1  UNL1       -0.2388
     37 C          -2.6657    1.2464   -0.9931 C.ar    1  UNL1       -0.0537
     38 C          -1.3133    1.4056   -1.2090 C.ar    1  UNL1       -0.0577
     39 H           0.6585    4.0681   -0.6123 H       1  UNL1        0.0230
     40 H           1.6071    5.3314   -1.3885 H       1  UNL1        0.0230
     41 H           1.2924    3.8930   -2.3534 H       1  UNL1        0.0230
     42 H           3.0616    2.7400   -1.3888 H       1  UNL1        0.0263
     43 H           3.5697    4.3754   -0.8529 H       1  UNL1        0.0263
     44 H           3.6198    3.0637    1.1442 H       1  UNL1        0.0269
     45 H           2.1905    4.1956    1.1875 H       1  UNL1        0.0269
     46 H           1.5181    2.0997    2.1563 H       1  UNL1        0.0329
     47 H           0.6446    2.4128    0.6516 H       1  UNL1        0.0329
     48 H           2.5114   -3.0985    2.3556 H       1  UNL1        0.0639
     49 H           3.9402   -4.9644    3.1643 H       1  UNL1        0.0619
     50 H           6.2406   -5.0629    2.4052 H       1  UNL1        0.0633
     51 H           3.2980   -4.0947   -1.8177 H       1  UNL1        0.2955
     52 H           1.2519   -0.0419   -2.6536 H       1  UNL1        0.0363
     53 H           1.0717    1.5835   -2.0426 H       1  UNL1        0.0363
     54 H          -0.4607   -1.7915   -1.6484 H       1  UNL1        0.0621
     55 H          -2.8972   -2.0646   -1.2600 H       1  UNL1        0.0624
     56 H          -5.0156   -0.8072   -2.7882 H       1  UNL1        0.0624
     57 H          -7.4242   -1.1299   -2.5679 H       1  UNL1        0.0618
     58 H          -8.5283   -0.6771   -0.4088 H       1  UNL1        0.0618
     59 H          -7.1515    0.0994    1.4988 H       1  UNL1        0.0625
     60 H          -6.0091    0.7673    3.0340 H       1  UNL1        0.1923
     61 H          -3.3176    2.1030   -0.8018 H       1  UNL1        0.0624
     62 H          -0.8606    2.3865   -1.2012 H       1  UNL1        0.0621
@<TRIPOS>BOND
     1     1     2    1
     2     2     3    1
     3     3     4    1
     4     4     5    1
     5     5     6   ar
     6     6     7   ar
     7     7     8    1
     8     8     9   ar
     9     9    10   ar
    10    10    11   ar
    11    11    12   ar
    12    12    13    1
    13    12    14   ar
    14    14    15    1
    15     7    16   ar
    16    16    17    1
    17    17    18    2
    18    17    19    1
    19    16    20   ar
    20    20    21    1
    21    21    22    1
    22    22    23   ar
    23    23    24   ar
    24    24    25   ar
    25    25    26    1
    26    26    27   ar
    27    27    28   ar
    28    28    29   ar
    29    29    30   ar
    30    30    31   ar
    31    31    32    1
    32    32    33   ar
    33    33    34   ar
    34    34    35   ar
    35    35    36   ar
    36    25    37   ar
    37    37    38   ar
    38    20     5   ar
    39    38    22   ar
    40    14     8   ar
    41    31    26   ar
    42    36    32   ar
    43     1    39    1
    44     1    40    1
    45     1    41    1
    46     2    42    1
    47     2    43    1
    48     3    44    1
    49     3    45    1
    50     4    46    1
    51     4    47    1
    52     9    48    1
    53    10    49    1
    54    11    50    1
    55    19    51    1
    56    21    52    1
    57    21    53    1
    58    23    54    1
    59    24    55    1
    60    27    56    1
    61    28    57    1
    62    29    58    1
    63    30    59    1
    64    36    60    1
    65    37    61    1
    66    38    62    1
