@<TRIPOS>MOLECULE
*****
 47 48 0 0 0
SMALL
GASTEIGER

@<TRIPOS>ATOM
      1 C           1.7296    1.2865   -0.6446 C.3     1  UNL1        0.1022
      2 C           1.2403    1.4024   -2.0790 C.3     1  UNL1       -0.0243
      3 C           0.7411   -0.0065   -2.3460 C.3     1  UNL1       -0.0350
      4 C           1.7848   -0.9211   -1.6936 C.3     1  UNL1        0.0155
      5 N           2.3274   -0.0381   -0.6701 N.am    1  UNL1       -0.2899
      6 C           3.3648   -0.5912    0.1630 C.2     1  UNL1        0.2162
      7 O           3.5215   -1.7744   -0.2608 O.2     1  UNL1       -0.2756
      8 C           3.9264    0.2897    1.2040 C.3     1  UNL1        0.0239
      9 C           4.9834   -0.4907    1.9577 C.3     1  UNL1       -0.0476
     10 C           6.0941   -0.9558    1.0807 C.3     1  UNL1       -0.0648
     11 C           0.6393    1.2356    0.3399 C.2     1  UNL1        0.2338
     12 O           0.0878    2.3646    0.3996 O.2     1  UNL1       -0.2738
     13 N           0.2089    0.1425    1.1357 N.am    1  UNL1       -0.3097
     14 C          -0.8860    0.1992    2.0826 C.3     1  UNL1        0.0369
     15 C          -2.2224    0.1693    1.4341 C.ar    1  UNL1       -0.0303
     16 C          -2.9577    1.2623    1.0295 C.ar    1  UNL1       -0.0563
     17 C          -4.1861    1.1466    0.4344 C.ar    1  UNL1       -0.0466
     18 C          -4.7440   -0.0962    0.2135 C.ar    1  UNL1        0.0647
     19 C          -4.0665   -1.2218    0.5913 C.ar    1  UNL1       -0.0466
     20 C          -2.8279   -1.0615    1.1896 C.ar    1  UNL1       -0.0563
     21 C          -6.0636   -0.1733   -0.4284 C.2     1  UNL1        0.3081
     22 N          -7.0711   -1.1505   -0.2575 N.pl3   1  UNL1       -0.2466
     23 N          -6.3981    0.7576   -1.2748 N.2     1  UNL1       -0.0994
     24 H           2.4841    2.0680   -0.4153 H       1  UNL1        0.0597
     25 H           2.1429    1.5753   -2.6964 H       1  UNL1        0.0288
     26 H           0.4670    2.1570   -2.2034 H       1  UNL1        0.0288
     27 H           0.7661   -0.2373   -3.4276 H       1  UNL1        0.0281
     28 H          -0.2425   -0.1253   -1.8779 H       1  UNL1        0.0281
     29 H           2.5571   -1.2554   -2.4026 H       1  UNL1        0.0465
     30 H           1.2791   -1.7669   -1.1622 H       1  UNL1        0.0465
     31 H           4.3800    1.2208    0.7566 H       1  UNL1        0.0358
     32 H           3.1052    0.6184    1.8702 H       1  UNL1        0.0358
     33 H           5.4104    0.1529    2.7806 H       1  UNL1        0.0267
     34 H           4.4642   -1.3181    2.4867 H       1  UNL1        0.0267
     35 H           6.0632   -0.5658    0.0453 H       1  UNL1        0.0230
     36 H           7.0985   -0.6627    1.4687 H       1  UNL1        0.0230
     37 H           6.0620   -2.0646    1.0219 H       1  UNL1        0.0230
     38 H           0.7984   -0.7164    0.9413 H       1  UNL1        0.1491
     39 H          -0.7832    1.0733    2.7678 H       1  UNL1        0.0512
     40 H          -0.8016   -0.7323    2.6937 H       1  UNL1        0.0512
     41 H          -2.5284    2.2278    1.2008 H       1  UNL1        0.0621
     42 H          -4.6825    2.0674    0.1542 H       1  UNL1        0.0626
     43 H          -4.4809   -2.2123    0.4302 H       1  UNL1        0.0626
     44 H          -2.3029   -1.9561    1.4835 H       1  UNL1        0.0621
     45 H          -7.4766   -1.6055   -1.1289 H       1  UNL1        0.2884
     46 H          -7.2520   -1.2601    0.7674 H       1  UNL1        0.2884
     47 H          -5.7538    1.5428   -1.4992 H       1  UNL1        0.3633
@<TRIPOS>BOND
     1     1     2    1
     2     2     3    1
     3     3     4    1
     4     4     5    1
     5     5     6   am
     6     6     7    2
     7     6     8    1
     8     8     9    1
     9     9    10    1
    10     1    11    1
    11    11    12    2
    12    11    13   am
    13    13    14    1
    14    14    15    1
    15    15    16   ar
    16    16    17   ar
    17    17    18   ar
    18    18    19   ar
    19    19    20   ar
    20    18    21    1
    21    21    22    1
    22    21    23    2
    23     5     1    1
    24    20    15   ar
    25     1    24    1
    26     2    25    1
    27     2    26    1
    28     3    27    1
    29     3    28    1
    30     4    29    1
    31     4    30    1
    32     8    31    1
    33     8    32    1
    34     9    33    1
    35     9    34    1
    36    10    35    1
    37    10    36    1
    38    10    37    1
    39    13    38    1
    40    14    39    1
    41    14    40    1
    42    16    41    1
    43    17    42    1
    44    19    43    1
    45    20    44    1
    46    22    45    1
    47    22    46    1
    48    23    47    1
