
     RDKit          3D

 47 48  0  0  0  0  0  0  0  0999 V2000
    1.7296    1.2865   -0.6446 C   0  0  2  0  0  0  0  0  0  0  0  0
    1.2403    1.4024   -2.0790 C   0  0  0  0  0  0  0  0  0  0  0  0
    0.7411   -0.0065   -2.3460 C   0  0  0  0  0  0  0  0  0  0  0  0
    1.7848   -0.9211   -1.6936 C   0  0  0  0  0  0  0  0  0  0  0  0
    2.3274   -0.0381   -0.6701 N   0  0  0  0  0  0  0  0  0  0  0  0
    3.3648   -0.5912    0.1630 C   0  0  0  0  0  0  0  0  0  0  0  0
    3.5215   -1.7744   -0.2608 O   0  0  0  0  0  0  0  0  0  0  0  0
    3.9264    0.2897    1.2040 C   0  0  0  0  0  0  0  0  0  0  0  0
    4.9834   -0.4907    1.9577 C   0  0  0  0  0  0  0  0  0  0  0  0
    6.0941   -0.9558    1.0807 C   0  0  0  0  0  0  0  0  0  0  0  0
    0.6393    1.2356    0.3399 C   0  0  0  0  0  0  0  0  0  0  0  0
    0.0878    2.3646    0.3996 O   0  0  0  0  0  0  0  0  0  0  0  0
    0.2089    0.1425    1.1357 N   0  0  0  0  0  0  0  0  0  0  0  0
   -0.8860    0.1992    2.0826 C   0  0  0  0  0  0  0  0  0  0  0  0
   -2.2224    0.1693    1.4341 C   0  0  0  0  0  0  0  0  0  0  0  0
   -2.9577    1.2623    1.0295 C   0  0  0  0  0  0  0  0  0  0  0  0
   -4.1861    1.1466    0.4344 C   0  0  0  0  0  0  0  0  0  0  0  0
   -4.7440   -0.0962    0.2135 C   0  0  0  0  0  0  0  0  0  0  0  0
   -4.0665   -1.2218    0.5913 C   0  0  0  0  0  0  0  0  0  0  0  0
   -2.8279   -1.0615    1.1896 C   0  0  0  0  0  0  0  0  0  0  0  0
   -6.0636   -0.1733   -0.4284 C   0  0  0  0  0  0  0  0  0  0  0  0
   -7.0711   -1.1505   -0.2575 N   0  0  0  0  0  0  0  0  0  0  0  0
   -6.3981    0.7576   -1.2748 N   0  0  0  0  0  0  0  0  0  0  0  0
    2.4841    2.0680   -0.4153 H   0  0  0  0  0  0  0  0  0  0  0  0
    2.1429    1.5753   -2.6964 H   0  0  0  0  0  0  0  0  0  0  0  0
    0.4670    2.1570   -2.2034 H   0  0  0  0  0  0  0  0  0  0  0  0
    0.7661   -0.2373   -3.4276 H   0  0  0  0  0  0  0  0  0  0  0  0
   -0.2425   -0.1253   -1.8779 H   0  0  0  0  0  0  0  0  0  0  0  0
    2.5571   -1.2554   -2.4026 H   0  0  0  0  0  0  0  0  0  0  0  0
    1.2791   -1.7669   -1.1622 H   0  0  0  0  0  0  0  0  0  0  0  0
    4.3800    1.2208    0.7566 H   0  0  0  0  0  0  0  0  0  0  0  0
    3.1052    0.6184    1.8702 H   0  0  0  0  0  0  0  0  0  0  0  0
    5.4104    0.1529    2.7806 H   0  0  0  0  0  0  0  0  0  0  0  0
    4.4642   -1.3181    2.4867 H   0  0  0  0  0  0  0  0  0  0  0  0
    6.0632   -0.5658    0.0453 H   0  0  0  0  0  0  0  0  0  0  0  0
    7.0985   -0.6627    1.4687 H   0  0  0  0  0  0  0  0  0  0  0  0
    6.0620   -2.0646    1.0219 H   0  0  0  0  0  0  0  0  0  0  0  0
    0.7984   -0.7164    0.9413 H   0  0  0  0  0  0  0  0  0  0  0  0
   -0.7832    1.0733    2.7678 H   0  0  0  0  0  0  0  0  0  0  0  0
   -0.8016   -0.7323    2.6937 H   0  0  0  0  0  0  0  0  0  0  0  0
   -2.5284    2.2278    1.2008 H   0  0  0  0  0  0  0  0  0  0  0  0
   -4.6825    2.0674    0.1542 H   0  0  0  0  0  0  0  0  0  0  0  0
   -4.4809   -2.2123    0.4302 H   0  0  0  0  0  0  0  0  0  0  0  0
   -2.3029   -1.9561    1.4835 H   0  0  0  0  0  0  0  0  0  0  0  0
   -7.4766   -1.6055   -1.1289 H   0  0  0  0  0  0  0  0  0  0  0  0
   -7.2520   -1.2601    0.7674 H   0  0  0  0  0  0  0  0  0  0  0  0
   -5.7538    1.5428   -1.4992 H   0  0  0  0  0  0  0  0  0  0  0  0
  1  2  1  0
  2  3  1  0
  3  4  1  0
  4  5  1  0
  5  6  1  0
  6  7  2  0
  6  8  1  0
  8  9  1  0
  9 10  1  0
  1 11  1  0
 11 12  2  0
 11 13  1  0
 13 14  1  0
 14 15  1  0
 15 16  2  0
 16 17  1  0
 17 18  2  0
 18 19  1  0
 19 20  2  0
 18 21  1  0
 21 22  1  0
 21 23  2  3
  5  1  1  0
 20 15  1  0
  1 24  1  1
  2 25  1  0
  2 26  1  0
  3 27  1  0
  3 28  1  0
  4 29  1  0
  4 30  1  0
  8 31  1  0
  8 32  1  0
  9 33  1  0
  9 34  1  0
 10 35  1  0
 10 36  1  0
 10 37  1  0
 13 38  1  0
 14 39  1  0
 14 40  1  0
 16 41  1  0
 17 42  1  0
 19 43  1  0
 20 44  1  0
 22 45  1  0
 22 46  1  0
 23 47  1  0
M  END
$$$$
