@<TRIPOS>MOLECULE
*****
 37 39 0 0 0
SMALL
GASTEIGER

@<TRIPOS>ATOM
      1 CL          5.3675    2.8773   -1.3298 Cl      1  UNL1       -0.0835
      2 C           4.1136    1.6507   -1.1993 C.ar    1  UNL1        0.0410
      3 C           2.7894    1.9342   -1.4802 C.ar    1  UNL1       -0.0423
      4 C           1.8051    0.9443   -1.3705 C.ar    1  UNL1       -0.0466
      5 C           2.1285   -0.3326   -0.9815 C.ar    1  UNL1        0.0129
      6 S           0.8822   -1.5959   -0.8357 S.3     1  UNL1       -0.0876
      7 C           0.2439   -1.6161    0.8120 C.ar    1  UNL1        0.0337
      8 C           0.9311   -2.4042    1.7374 C.ar    1  UNL1       -0.0462
      9 C           0.4489   -2.4325    3.0277 C.ar    1  UNL1       -0.0606
     10 C          -0.6658   -1.7219    3.4210 C.ar    1  UNL1       -0.0599
     11 C          -1.3015   -0.9626    2.4626 C.ar    1  UNL1       -0.0396
     12 C          -0.8575   -0.8960    1.1377 C.ar    1  UNL1        0.0437
     13 N          -1.5599   -0.1130    0.1907 N.pl3   1  UNL1       -0.3266
     14 C          -2.1708   -0.8173   -0.9211 C.3     1  UNL1        0.0248
     15 C          -2.3505    0.1912   -2.0356 C.3     1  UNL1        0.0117
     16 N          -3.2876    1.1860   -1.5453 N.3     1  UNL1       -0.3130
     17 C          -2.7844    1.9394   -0.4426 C.3     1  UNL1        0.0117
     18 C          -1.6808    1.3230    0.3177 C.3     1  UNL1        0.0248
     19 C           3.4520   -0.6305   -0.6969 C.ar    1  UNL1       -0.0466
     20 C           4.3943    0.3535   -0.8116 C.ar    1  UNL1       -0.0423
     21 H           2.5248    2.9359   -1.7869 H       1  UNL1        0.0632
     22 H           0.7982    1.2425   -1.6086 H       1  UNL1        0.0629
     23 H           1.8066   -2.9662    1.4414 H       1  UNL1        0.0629
     24 H           0.9771   -3.0448    3.7610 H       1  UNL1        0.0618
     25 H          -1.0375   -1.7544    4.4522 H       1  UNL1        0.0618
     26 H          -2.1871   -0.3811    2.7182 H       1  UNL1        0.0636
     27 H          -1.6042   -1.7005   -1.2406 H       1  UNL1        0.0476
     28 H          -3.2052   -1.1259   -0.5708 H       1  UNL1        0.0476
     29 H          -1.3795    0.5962   -2.3231 H       1  UNL1        0.0439
     30 H          -2.8657   -0.3077   -2.8908 H       1  UNL1        0.0439
     31 H          -4.1786    0.6628   -1.3375 H       1  UNL1        0.1220
     32 H          -2.4410    2.9331   -0.8517 H       1  UNL1        0.0439
     33 H          -3.6717    2.2046    0.2042 H       1  UNL1        0.0439
     34 H          -1.8971    1.5125    1.4139 H       1  UNL1        0.0476
     35 H          -0.7115    1.8105    0.1421 H       1  UNL1        0.0476
     36 H           3.7326   -1.6356   -0.3868 H       1  UNL1        0.0629
     37 H           5.4416    0.1413   -0.5927 H       1  UNL1        0.0632
@<TRIPOS>BOND
     1     1     2    1
     2     2     3   ar
     3     3     4   ar
     4     4     5   ar
     5     5     6    1
     6     6     7    1
     7     7     8   ar
     8     8     9   ar
     9     9    10   ar
    10    10    11   ar
    11    11    12   ar
    12    12    13    1
    13    13    14    1
    14    14    15    1
    15    15    16    1
    16    16    17    1
    17    17    18    1
    18     5    19   ar
    19    19    20   ar
    20    20     2   ar
    21    12     7   ar
    22    18    13    1
    23     3    21    1
    24     4    22    1
    25     8    23    1
    26     9    24    1
    27    10    25    1
    28    11    26    1
    29    14    27    1
    30    14    28    1
    31    15    29    1
    32    15    30    1
    33    16    31    1
    34    17    32    1
    35    17    33    1
    36    18    34    1
    37    18    35    1
    38    19    36    1
    39    20    37    1
