
     RDKit          3D

 37 39  0  0  0  0  0  0  0  0999 V2000
    5.3675    2.8773   -1.3298 Cl  0  0  0  0  0  0  0  0  0  0  0  0
    4.1136    1.6507   -1.1993 C   0  0  0  0  0  0  0  0  0  0  0  0
    2.7894    1.9342   -1.4802 C   0  0  0  0  0  0  0  0  0  0  0  0
    1.8051    0.9443   -1.3705 C   0  0  0  0  0  0  0  0  0  0  0  0
    2.1285   -0.3326   -0.9815 C   0  0  0  0  0  0  0  0  0  0  0  0
    0.8822   -1.5959   -0.8357 S   0  0  0  0  0  0  0  0  0  0  0  0
    0.2439   -1.6161    0.8120 C   0  0  0  0  0  0  0  0  0  0  0  0
    0.9311   -2.4042    1.7374 C   0  0  0  0  0  0  0  0  0  0  0  0
    0.4489   -2.4325    3.0277 C   0  0  0  0  0  0  0  0  0  0  0  0
   -0.6658   -1.7219    3.4210 C   0  0  0  0  0  0  0  0  0  0  0  0
   -1.3015   -0.9626    2.4626 C   0  0  0  0  0  0  0  0  0  0  0  0
   -0.8575   -0.8960    1.1377 C   0  0  0  0  0  0  0  0  0  0  0  0
   -1.5599   -0.1130    0.1907 N   0  0  0  0  0  0  0  0  0  0  0  0
   -2.1708   -0.8173   -0.9211 C   0  0  0  0  0  0  0  0  0  0  0  0
   -2.3505    0.1912   -2.0356 C   0  0  0  0  0  0  0  0  0  0  0  0
   -3.2876    1.1860   -1.5453 N   0  0  0  0  0  0  0  0  0  0  0  0
   -2.7844    1.9394   -0.4426 C   0  0  0  0  0  0  0  0  0  0  0  0
   -1.6808    1.3230    0.3177 C   0  0  0  0  0  0  0  0  0  0  0  0
    3.4520   -0.6305   -0.6969 C   0  0  0  0  0  0  0  0  0  0  0  0
    4.3943    0.3535   -0.8116 C   0  0  0  0  0  0  0  0  0  0  0  0
    2.5248    2.9359   -1.7869 H   0  0  0  0  0  0  0  0  0  0  0  0
    0.7982    1.2425   -1.6086 H   0  0  0  0  0  0  0  0  0  0  0  0
    1.8066   -2.9662    1.4414 H   0  0  0  0  0  0  0  0  0  0  0  0
    0.9771   -3.0448    3.7610 H   0  0  0  0  0  0  0  0  0  0  0  0
   -1.0375   -1.7544    4.4522 H   0  0  0  0  0  0  0  0  0  0  0  0
   -2.1871   -0.3811    2.7182 H   0  0  0  0  0  0  0  0  0  0  0  0
   -1.6042   -1.7005   -1.2406 H   0  0  0  0  0  0  0  0  0  0  0  0
   -3.2052   -1.1259   -0.5708 H   0  0  0  0  0  0  0  0  0  0  0  0
   -1.3795    0.5962   -2.3231 H   0  0  0  0  0  0  0  0  0  0  0  0
   -2.8657   -0.3077   -2.8908 H   0  0  0  0  0  0  0  0  0  0  0  0
   -4.1786    0.6628   -1.3375 H   0  0  0  0  0  0  0  0  0  0  0  0
   -2.4410    2.9331   -0.8517 H   0  0  0  0  0  0  0  0  0  0  0  0
   -3.6717    2.2046    0.2042 H   0  0  0  0  0  0  0  0  0  0  0  0
   -1.8971    1.5125    1.4139 H   0  0  0  0  0  0  0  0  0  0  0  0
   -0.7115    1.8105    0.1421 H   0  0  0  0  0  0  0  0  0  0  0  0
    3.7326   -1.6356   -0.3868 H   0  0  0  0  0  0  0  0  0  0  0  0
    5.4416    0.1413   -0.5927 H   0  0  0  0  0  0  0  0  0  0  0  0
  1  2  1  0
  2  3  2  0
  3  4  1  0
  4  5  2  0
  5  6  1  0
  6  7  1  0
  7  8  2  0
  8  9  1  0
  9 10  2  0
 10 11  1  0
 11 12  2  0
 12 13  1  0
 13 14  1  0
 14 15  1  0
 15 16  1  0
 16 17  1  0
 17 18  1  0
  5 19  1  0
 19 20  2  0
 20  2  1  0
 12  7  1  0
 18 13  1  0
  3 21  1  0
  4 22  1  0
  8 23  1  0
  9 24  1  0
 10 25  1  0
 11 26  1  0
 14 27  1  0
 14 28  1  0
 15 29  1  0
 15 30  1  0
 16 31  1  0
 17 32  1  0
 17 33  1  0
 18 34  1  0
 18 35  1  0
 19 36  1  0
 20 37  1  0
M  END
$$$$
