@<TRIPOS>MOLECULE
*****
 106 111 0 0 0
SMALL
GASTEIGER

@<TRIPOS>ATOM
      1 C          -3.5044    0.2913    1.8383 C.3     1  UNL1        0.0364
      2 O          -2.8048   -0.9186    1.8039 O.3     1  UNL1       -0.3830
      3 C          -3.4859   -1.9402    2.4194 C.3     1  UNL1        0.0476
      4 C          -4.8093   -2.2996    1.8510 C.3     1  UNL1       -0.0255
      5 C          -4.8293   -2.7826    0.4497 C.3     1  UNL1       -0.0255
      6 C          -4.3267   -1.8434   -0.5747 C.ar    1  UNL1       -0.0435
      7 C          -2.9871   -1.8655   -0.9702 C.ar    1  UNL1       -0.0537
      8 C          -2.5015   -1.0032   -1.9242 C.ar    1  UNL1       -0.0264
      9 C          -1.1074   -1.0371   -2.4624 C.3     1  UNL1        0.0401
     10 N          -0.1103   -0.5072   -1.5637 N.am    1  UNL1       -0.2938
     11 C           0.7812   -1.3088   -0.8495 C.2     1  UNL1        0.2210
     12 O           1.5559   -0.6131   -0.0431 O.2     1  UNL1       -0.2752
     13 C           1.0932   -2.7044   -0.7522 C.3     1  UNL1        0.0550
     14 C           0.3855   -3.7318   -1.5498 C.3     1  UNL1        0.0076
     15 N           0.8609   -5.0634   -1.2080 N.3     1  UNL1       -0.3152
     16 C           1.8540   -5.0927   -0.1913 C.3     1  UNL1       -0.0035
     17 C           3.0167   -4.1535   -0.3575 C.3     1  UNL1       -0.0329
     18 C           2.5765   -2.9130   -1.0649 C.3     1  UNL1       -0.0024
     19 C           3.4480   -1.7607   -0.8959 C.ar    1  UNL1       -0.0432
     20 C           4.2669   -1.5373    0.1900 C.ar    1  UNL1       -0.0548
     21 C           5.1175   -0.4236    0.2668 C.ar    1  UNL1       -0.0197
     22 C           5.1851    0.5090   -0.7316 C.ar    1  UNL1        0.1207
     23 O           6.0423    1.6275   -0.6812 O.3     1  UNL1       -0.4886
     24 C           6.9605    1.7641    0.4105 C.3     1  UNL1        0.1235
     25 C           8.0399    0.7196    0.3123 C.3     1  UNL1        0.1236
     26 O           8.9899    0.6829    1.2978 O.3     1  UNL1       -0.4857
     27 C           9.8819    1.6166    1.7436 C.ar    1  UNL1        0.1571
     28 C           9.6026    2.4807    2.7722 C.ar    1  UNL1        0.0842
     29 CL          8.0435    2.4262    3.6134 Cl      1  UNL1       -0.0797
     30 C          10.5627    3.4005    3.1646 C.ar    1  UNL1       -0.0368
     31 C          11.8068    3.5101    2.5806 C.ar    1  UNL1       -0.0475
     32 C          12.7974    4.5219    3.0438 C.3     1  UNL1       -0.0396
     33 C          12.0533    2.6222    1.5470 C.ar    1  UNL1       -0.0368
     34 C          11.1301    1.7030    1.1340 C.ar    1  UNL1        0.0842
     35 CL         11.5053    0.5922   -0.1922 Cl      1  UNL1       -0.0797
     36 C           4.3659    0.3039   -1.8311 C.ar    1  UNL1       -0.0197
     37 C           3.5259   -0.7950   -1.9093 C.ar    1  UNL1       -0.0548
     38 C          -0.1145    0.9397   -1.4517 C.3     1  UNL1        0.0265
     39 C           0.9560    1.7764   -0.9528 C.3     1  UNL1       -0.0326
     40 C          -0.1381    1.4487   -0.0046 C.3     1  UNL1       -0.0326
     41 C          -3.4193   -0.1202   -2.4563 C.ar    1  UNL1       -0.0152
     42 C          -4.7679   -0.0740   -2.0807 C.ar    1  UNL1        0.1211
     43 O          -5.5843    0.8373   -2.6741 O.3     1  UNL1       -0.4916
     44 C          -6.9256    1.0765   -2.4896 C.3     1  UNL1        0.0931
     45 C          -7.3902    1.4853   -1.1398 C.3     1  UNL1        0.0050
     46 C          -6.8897    2.7276   -0.4883 C.3     1  UNL1       -0.0349
     47 C          -8.2511    2.7560   -1.0183 C.3     1  UNL1        0.0433
     48 C          -9.3870    2.6942   -0.0728 C.2     1  UNL1        0.2351
     49 O         -10.4582    3.2663   -0.3045 O.2     1  UNL1       -0.2739
     50 N          -9.2568    1.9607    1.1339 N.am    1  UNL1       -0.1899
     51 S         -10.5885    1.8865    2.2219 S.O2    1  UNL1        0.0423
     52 C         -11.5674    0.4559    1.7702 C.3     1  UNL1        0.0736
     53 O         -11.3882    3.1555    2.1071 O.2     1  UNL1       -0.1554
     54 O         -10.0998    1.7182    3.6307 O.2     1  UNL1       -0.1554
     55 C          -5.2094   -0.9495   -1.1317 C.ar    1  UNL1       -0.0167
     56 H          -3.6746    0.5538    2.9197 H       1  UNL1        0.0523
     57 H          -4.4903    0.2572    1.3865 H       1  UNL1        0.0523
     58 H          -2.8711    1.0610    1.3477 H       1  UNL1        0.0523
     59 H          -3.5804   -1.6537    3.5009 H       1  UNL1        0.0560
     60 H          -2.8247   -2.8412    2.3428 H       1  UNL1        0.0560
     61 H          -5.2138   -3.1463    2.4854 H       1  UNL1        0.0290
     62 H          -5.5698   -1.4953    1.9513 H       1  UNL1        0.0290
     63 H          -4.2650   -3.7638    0.3327 H       1  UNL1        0.0314
     64 H          -5.8778   -3.0647    0.1267 H       1  UNL1        0.0314
     65 H          -2.3224   -2.5651   -0.5033 H       1  UNL1        0.0624
     66 H          -0.8617   -2.0352   -2.7746 H       1  UNL1        0.0514
     67 H          -1.1078   -0.3240   -3.3473 H       1  UNL1        0.0514
     68 H           0.9770   -3.0082    0.3327 H       1  UNL1        0.0413
     69 H          -0.7072   -3.8077   -1.4130 H       1  UNL1        0.0432
     70 H           0.6642   -3.6622   -2.6594 H       1  UNL1        0.0432
     71 H           0.0738   -5.6870   -0.8590 H       1  UNL1        0.1220
     72 H           2.2377   -6.1521   -0.0396 H       1  UNL1        0.0424
     73 H           1.3315   -4.8811    0.7963 H       1  UNL1        0.0424
     74 H           3.3691   -3.8671    0.6862 H       1  UNL1        0.0283
     75 H           3.8755   -4.6509   -0.8810 H       1  UNL1        0.0283
     76 H           2.5417   -3.1949   -2.1828 H       1  UNL1        0.0357
     77 H           4.2694   -2.2208    1.0178 H       1  UNL1        0.0622
     78 H           5.7099   -0.3000    1.1823 H       1  UNL1        0.0654
     79 H           6.3526    1.6967    1.3113 H       1  UNL1        0.0731
     80 H           7.3932    2.7757    0.3309 H       1  UNL1        0.0731
     81 H           8.5734    1.0011   -0.6981 H       1  UNL1        0.0731
     82 H           7.6121   -0.2682    0.1287 H       1  UNL1        0.0731
     83 H          10.3155    4.0713    3.9813 H       1  UNL1        0.0636
     84 H          12.2136    5.4900    3.0806 H       1  UNL1        0.0278
     85 H          13.2367    4.2740    4.0284 H       1  UNL1        0.0278
     86 H          13.5540    4.6510    2.2492 H       1  UNL1        0.0278
     87 H          13.0340    2.6797    1.0563 H       1  UNL1        0.0636
     88 H           4.4148    1.0443   -2.6220 H       1  UNL1        0.0654
     89 H           2.8887   -0.9285   -2.7911 H       1  UNL1        0.0622
     90 H          -0.8903    1.4354   -2.1140 H       1  UNL1        0.0500
     91 H           0.9314    2.8567   -1.3056 H       1  UNL1        0.0284
     92 H           1.9974    1.4976   -0.7528 H       1  UNL1        0.0284
     93 H          -0.0476    0.7610    0.8306 H       1  UNL1        0.0284
     94 H          -0.9181    2.2420    0.2137 H       1  UNL1        0.0284
     95 H          -3.0660    0.5908   -3.2246 H       1  UNL1        0.0657
     96 H          -7.5088    0.1455   -2.7700 H       1  UNL1        0.0699
     97 H          -7.3299    1.8349   -3.2362 H       1  UNL1        0.0699
     98 H          -7.8288    0.6715   -0.5036 H       1  UNL1        0.0341
     99 H          -6.1252    3.3236   -1.0342 H       1  UNL1        0.0277
    100 H          -6.6710    2.6640    0.5976 H       1  UNL1        0.0277
    101 H          -8.4543    3.3413   -1.9409 H       1  UNL1        0.0398
    102 H          -8.3811    1.4748    1.3644 H       1  UNL1        0.1761
    103 H         -12.4920    0.4309    2.3600 H       1  UNL1        0.0482
    104 H         -10.9230   -0.4267    1.9509 H       1  UNL1        0.0482
    105 H         -11.8052    0.5717    0.6918 H       1  UNL1        0.0482
    106 H          -6.2616   -0.9712   -0.7980 H       1  UNL1        0.0657
@<TRIPOS>BOND
     1     1     2    1
     2     2     3    1
     3     3     4    1
     4     4     5    1
     5     5     6    1
     6     6     7   ar
     7     7     8   ar
     8     8     9    1
     9     9    10    1
    10    10    11   am
    11    11    12    2
    12    11    13    1
    13    13    14    1
    14    14    15    1
    15    15    16    1
    16    16    17    1
    17    17    18    1
    18    18    19    1
    19    19    20   ar
    20    20    21   ar
    21    21    22   ar
    22    22    23    1
    23    23    24    1
    24    24    25    1
    25    25    26    1
    26    26    27    1
    27    27    28   ar
    28    28    29    1
    29    28    30   ar
    30    30    31   ar
    31    31    32    1
    32    31    33   ar
    33    33    34   ar
    34    34    35    1
    35    22    36   ar
    36    36    37   ar
    37    10    38    1
    38    38    39    1
    39    39    40    1
    40     8    41   ar
    41    41    42   ar
    42    42    43    1
    43    43    44    1
    44    44    45    1
    45    45    46    1
    46    46    47    1
    47    47    48    1
    48    48    49    2
    49    48    50   am
    50    50    51    1
    51    51    52    1
    52    51    53    2
    53    51    54    2
    54    42    55   ar
    55    55     6   ar
    56    18    13    1
    57    37    19   ar
    58    40    38    1
    59    47    45    1
    60    34    27   ar
    61     1    56    1
    62     1    57    1
    63     1    58    1
    64     3    59    1
    65     3    60    1
    66     4    61    1
    67     4    62    1
    68     5    63    1
    69     5    64    1
    70     7    65    1
    71     9    66    1
    72     9    67    1
    73    13    68    1
    74    14    69    1
    75    14    70    1
    76    15    71    1
    77    16    72    1
    78    16    73    1
    79    17    74    1
    80    17    75    1
    81    18    76    1
    82    20    77    1
    83    21    78    1
    84    24    79    1
    85    24    80    1
    86    25    81    1
    87    25    82    1
    88    30    83    1
    89    32    84    1
    90    32    85    1
    91    32    86    1
    92    33    87    1
    93    36    88    1
    94    37    89    1
    95    38    90    1
    96    39    91    1
    97    39    92    1
    98    40    93    1
    99    40    94    1
   100    41    95    1
   101    44    96    1
   102    44    97    1
   103    45    98    1
   104    46    99    1
   105    46   100    1
   106    47   101    1
   107    50   102    1
   108    52   103    1
   109    52   104    1
   110    52   105    1
   111    55   106    1
