@<TRIPOS>MOLECULE
*****
 49 53 0 0 0
SMALL
GASTEIGER

@<TRIPOS>ATOM
      1 C          -6.9171   -1.3005    0.8726 C.3     1  UNL1       -0.0222
      2 C          -6.0360   -0.2045    0.3949 C.ar    1  UNL1        0.0435
      3 C          -6.6288    0.9433   -0.1082 C.ar    1  UNL1       -0.0224
      4 C          -5.8320    1.9709   -0.5567 C.ar    1  UNL1        0.0317
      5 N          -4.4901    1.8874   -0.5183 N.ar    1  UNL1       -0.2358
      6 C          -3.9315    0.7755   -0.0307 C.ar    1  UNL1        0.1604
      7 C          -2.6034    0.4276    0.1226 C.ar    1  UNL1        0.0349
      8 C          -2.6174   -0.8341    0.6742 C.ar    1  UNL1        0.0839
      9 N          -3.9028   -1.2026    0.8342 N.ar    1  UNL1       -0.1681
     10 N          -4.7002   -0.2445    0.4144 N.ar    1  UNL1       -0.2183
     11 C          -1.1857   -1.2609    0.8598 C.3     1  UNL1        0.0440
     12 N          -0.5073   -0.4446   -0.1320 N.3     1  UNL1       -0.2871
     13 C           0.9081   -0.3190    0.1873 C.3     1  UNL1        0.0360
     14 C           1.5873   -1.6317    0.2403 C.3     1  UNL1        0.0641
     15 O           2.8480   -1.7632   -0.2002 O.3     1  UNL1       -0.3688
     16 C           3.3874   -0.8682   -1.0698 C.3     1  UNL1        0.1015
     17 C           4.3752   -0.0117   -0.3962 C.ar    1  UNL1        0.0205
     18 C           4.2567    0.2392    0.9474 C.ar    1  UNL1       -0.0180
     19 C           5.1592    1.0316    1.6368 C.ar    1  UNL1        0.1239
     20 F           5.0344    1.2777    2.9754 F       1  UNL1       -0.2055
     21 C           6.2053    1.5889    0.9769 C.ar    1  UNL1       -0.0237
     22 C           6.3659    1.3593   -0.3967 C.ar    1  UNL1       -0.0234
     23 C           5.4509    0.5664   -1.0536 C.ar    1  UNL1        0.1292
     24 F           5.6232    0.3574   -2.3764 F       1  UNL1       -0.2051
     25 C           2.3052   -0.1225   -1.7669 C.3     1  UNL1        0.0371
     26 N           1.3718   -1.0841   -2.3132 N.3     1  UNL1       -0.3248
     27 C           1.5636    0.6721   -0.7168 C.3     1  UNL1       -0.0172
     28 C          -1.1751    0.8143   -0.0452 C.3     1  UNL1        0.0301
     29 H          -7.3427   -0.9931    1.8573 H       1  UNL1        0.0293
     30 H          -6.3572   -2.2330    1.0573 H       1  UNL1        0.0293
     31 H          -7.7173   -1.4183    0.1036 H       1  UNL1        0.0293
     32 H          -7.7218    1.0244   -0.1456 H       1  UNL1        0.0650
     33 H          -6.3186    2.8658   -0.9489 H       1  UNL1        0.0831
     34 H          -0.8533   -1.0455    1.8946 H       1  UNL1        0.0492
     35 H          -1.0470   -2.3192    0.5945 H       1  UNL1        0.0492
     36 H           0.9103    0.1228    1.2289 H       1  UNL1        0.0486
     37 H           1.4605   -2.0438    1.2863 H       1  UNL1        0.0576
     38 H           0.9490   -2.3501   -0.3675 H       1  UNL1        0.0576
     39 H           3.9145   -1.4740   -1.8668 H       1  UNL1        0.0663
     40 H           3.4469   -0.1779    1.5311 H       1  UNL1        0.0651
     41 H           6.9400    2.2216    1.4861 H       1  UNL1        0.0647
     42 H           7.1784    1.7818   -0.9538 H       1  UNL1        0.0647
     43 H           2.6546    0.5072   -2.6042 H       1  UNL1        0.0488
     44 H           1.8669   -1.9313   -2.6741 H       1  UNL1        0.1186
     45 H           0.9118   -0.6377   -3.1342 H       1  UNL1        0.1186
     46 H           2.2872    1.2719   -0.0996 H       1  UNL1        0.0297
     47 H           0.8759    1.3937   -1.1528 H       1  UNL1        0.0297
     48 H          -0.8106    1.3848    0.8579 H       1  UNL1        0.0478
     49 H          -1.1421    1.4303   -0.9620 H       1  UNL1        0.0478
@<TRIPOS>BOND
     1     1     2    1
     2     2     3   ar
     3     3     4   ar
     4     4     5   ar
     5     5     6   ar
     6     6     7   ar
     7     7     8   ar
     8     8     9   ar
     9     9    10   ar
    10     8    11    1
    11    11    12    1
    12    12    13    1
    13    13    14    1
    14    14    15    1
    15    15    16    1
    16    16    17    1
    17    17    18   ar
    18    18    19   ar
    19    19    20    1
    20    19    21   ar
    21    21    22   ar
    22    22    23   ar
    23    23    24    1
    24    16    25    1
    25    25    26    1
    26    25    27    1
    27    12    28    1
    28    10     2   ar
    29    27    13    1
    30    10     6   ar
    31    23    17   ar
    32    28     7    1
    33     1    29    1
    34     1    30    1
    35     1    31    1
    36     3    32    1
    37     4    33    1
    38    11    34    1
    39    11    35    1
    40    13    36    1
    41    14    37    1
    42    14    38    1
    43    16    39    1
    44    18    40    1
    45    21    41    1
    46    22    42    1
    47    25    43    1
    48    26    44    1
    49    26    45    1
    50    27    46    1
    51    27    47    1
    52    28    48    1
    53    28    49    1
