@<TRIPOS>MOLECULE
*****
 55 59 0 0 0
SMALL
GASTEIGER

@<TRIPOS>ATOM
      1 C          -3.1488   -2.9994   -0.1809 C.3     1  UNL1       -0.0443
      2 C          -2.7649   -2.1261    0.9791 C.3     1  UNL1        0.0455
      3 C          -3.9871   -2.0238    1.9057 C.3     1  UNL1        0.0660
      4 O          -5.1054   -1.6319    1.1930 O.3     1  UNL1       -0.3764
      5 C          -4.8845   -0.6070    0.3076 C.3     1  UNL1        0.0634
      6 C          -3.5847    0.1512    0.5807 C.3     1  UNL1        0.0374
      7 N          -2.4544   -0.7650    0.5930 N.pl3   1  UNL1       -0.3063
      8 C          -1.1516   -0.3172    0.2537 C.ar    1  UNL1        0.1500
      9 N          -0.9077    0.9736    0.0590 N.ar    1  UNL1       -0.2296
     10 C           0.2976    1.4887   -0.2586 C.ar    1  UNL1        0.0773
     11 C           0.5418    2.9192   -0.4532 C.ar    1  UNL1        0.0277
     12 C           1.7399    3.3945   -0.8793 C.ar    1  UNL1        0.0374
     13 N           1.9167    4.7270   -1.0329 N.ar    1  UNL1       -0.2605
     14 C           0.9335    5.5861   -0.7732 C.ar    1  UNL1        0.0514
     15 C          -0.3029    5.1578   -0.3379 C.ar    1  UNL1        0.0654
     16 N          -1.4390    5.7861   -0.0072 N.ar    1  UNL1       -0.3595
     17 C          -2.3566    4.9123    0.3592 C.ar    1  UNL1        0.0028
     18 C          -1.7925    3.6379    0.2641 C.ar    1  UNL1       -0.0359
     19 C          -0.5039    3.8035   -0.1746 C.ar    1  UNL1        0.0117
     20 C           1.3141    0.5872   -0.3796 C.ar    1  UNL1       -0.0098
     21 C           1.1280   -0.7946   -0.1873 C.ar    1  UNL1        0.0756
     22 C          -0.1189   -1.2233    0.1298 C.ar    1  UNL1        0.1288
     23 N          -0.0488   -2.5530    0.2589 N.ar    1  UNL1       -0.2322
     24 C           1.2130   -2.9137    0.0243 C.ar    1  UNL1        0.0987
     25 N           1.9667   -1.8457   -0.2552 N.ar    1  UNL1       -0.3073
     26 C           3.3517   -1.7202   -0.5696 C.3     1  UNL1        0.1499
     27 C           4.1140   -0.8906    0.4441 C.3     1  UNL1       -0.0239
     28 S           4.1857   -3.2507   -0.7774 S.O2    1  UNL1       -0.0129
     29 C           5.8854   -2.8993   -1.1793 C.3     1  UNL1        0.0567
     30 O           4.1765   -3.9900    0.5525 O.2     1  UNL1       -0.1726
     31 O           3.6271   -4.1133   -1.8380 O.2     1  UNL1       -0.1726
     32 H          -4.2321   -3.2703   -0.1717 H       1  UNL1        0.0248
     33 H          -2.6020   -3.9591   -0.0804 H       1  UNL1        0.0248
     34 H          -2.9605   -2.5082   -1.1582 H       1  UNL1        0.0248
     35 H          -1.9606   -2.5707    1.6195 H       1  UNL1        0.0520
     36 H          -4.1975   -3.0180    2.3441 H       1  UNL1        0.0578
     37 H          -3.7793   -1.3244    2.7208 H       1  UNL1        0.0578
     38 H          -4.8063   -1.0065   -0.7310 H       1  UNL1        0.0575
     39 H          -5.6987    0.1267    0.3068 H       1  UNL1        0.0575
     40 H          -3.4729    0.8318   -0.3024 H       1  UNL1        0.0487
     41 H          -3.6391    0.7504    1.4898 H       1  UNL1        0.0487
     42 H           2.5464    2.7151   -1.0985 H       1  UNL1        0.0836
     43 H           1.0747    6.6674   -0.8973 H       1  UNL1        0.0851
     44 H          -1.5629    6.8274   -0.0411 H       1  UNL1        0.1654
     45 H          -3.3720    5.1153    0.6807 H       1  UNL1        0.0807
     46 H          -2.2947    2.7248    0.5000 H       1  UNL1        0.0639
     47 H           2.3210    0.9057   -0.6287 H       1  UNL1        0.0660
     48 H           1.5782   -3.9214    0.0544 H       1  UNL1        0.1029
     49 H           3.4379   -1.1628   -1.5488 H       1  UNL1        0.0770
     50 H           4.8957   -1.4987    0.9754 H       1  UNL1        0.0266
     51 H           4.6595   -0.0491   -0.0148 H       1  UNL1        0.0266
     52 H           3.4531   -0.4854    1.2401 H       1  UNL1        0.0266
     53 H           5.9554   -2.0368   -1.9047 H       1  UNL1        0.0464
     54 H           6.4430   -2.5618   -0.2829 H       1  UNL1        0.0464
     55 H           6.3737   -3.7520   -1.6915 H       1  UNL1        0.0464
@<TRIPOS>BOND
     1     1     2    1
     2     2     3    1
     3     3     4    1
     4     4     5    1
     5     5     6    1
     6     6     7    1
     7     7     8    1
     8     8     9   ar
     9     9    10   ar
    10    10    11    1
    11    11    12   ar
    12    12    13   ar
    13    13    14   ar
    14    14    15   ar
    15    15    16   ar
    16    16    17   ar
    17    17    18   ar
    18    18    19   ar
    19    10    20   ar
    20    20    21   ar
    21    21    22   ar
    22    22    23   ar
    23    23    24   ar
    24    24    25   ar
    25    25    26    1
    26    26    27    1
    27    26    28    1
    28    28    29    1
    29    28    30    2
    30    28    31    2
    31     7     2    1
    32    22     8   ar
    33    19    11   ar
    34    25    21   ar
    35    19    15   ar
    36     1    32    1
    37     1    33    1
    38     1    34    1
    39     2    35    1
    40     3    36    1
    41     3    37    1
    42     5    38    1
    43     5    39    1
    44     6    40    1
    45     6    41    1
    46    12    42    1
    47    14    43    1
    48    16    44    1
    49    17    45    1
    50    18    46    1
    51    20    47    1
    52    24    48    1
    53    26    49    1
    54    27    50    1
    55    27    51    1
    56    27    52    1
    57    29    53    1
    58    29    54    1
    59    29    55    1
