
     RDKit          3D

 55 59  0  0  0  0  0  0  0  0999 V2000
   -3.1488   -2.9994   -0.1809 C   0  0  0  0  0  0  0  0  0  0  0  0
   -2.7649   -2.1261    0.9791 C   0  0  2  0  0  0  0  0  0  0  0  0
   -3.9871   -2.0238    1.9057 C   0  0  0  0  0  0  0  0  0  0  0  0
   -5.1054   -1.6319    1.1930 O   0  0  0  0  0  0  0  0  0  0  0  0
   -4.8845   -0.6070    0.3076 C   0  0  0  0  0  0  0  0  0  0  0  0
   -3.5847    0.1512    0.5807 C   0  0  0  0  0  0  0  0  0  0  0  0
   -2.4544   -0.7650    0.5930 N   0  0  0  0  0  0  0  0  0  0  0  0
   -1.1516   -0.3172    0.2537 C   0  0  0  0  0  0  0  0  0  0  0  0
   -0.9077    0.9736    0.0590 N   0  0  0  0  0  0  0  0  0  0  0  0
    0.2976    1.4887   -0.2586 C   0  0  0  0  0  0  0  0  0  0  0  0
    0.5418    2.9192   -0.4532 C   0  0  0  0  0  0  0  0  0  0  0  0
    1.7399    3.3945   -0.8793 C   0  0  0  0  0  0  0  0  0  0  0  0
    1.9167    4.7270   -1.0329 N   0  0  0  0  0  0  0  0  0  0  0  0
    0.9335    5.5861   -0.7732 C   0  0  0  0  0  0  0  0  0  0  0  0
   -0.3029    5.1578   -0.3379 C   0  0  0  0  0  0  0  0  0  0  0  0
   -1.4390    5.7861   -0.0072 N   0  0  0  0  0  0  0  0  0  0  0  0
   -2.3566    4.9123    0.3592 C   0  0  0  0  0  0  0  0  0  0  0  0
   -1.7925    3.6379    0.2641 C   0  0  0  0  0  0  0  0  0  0  0  0
   -0.5039    3.8035   -0.1746 C   0  0  0  0  0  0  0  0  0  0  0  0
    1.3141    0.5872   -0.3796 C   0  0  0  0  0  0  0  0  0  0  0  0
    1.1280   -0.7946   -0.1873 C   0  0  0  0  0  0  0  0  0  0  0  0
   -0.1189   -1.2233    0.1298 C   0  0  0  0  0  0  0  0  0  0  0  0
   -0.0488   -2.5530    0.2589 N   0  0  0  0  0  0  0  0  0  0  0  0
    1.2130   -2.9137    0.0243 C   0  0  0  0  0  0  0  0  0  0  0  0
    1.9667   -1.8457   -0.2552 N   0  0  0  0  0  0  0  0  0  0  0  0
    3.3517   -1.7202   -0.5696 C   0  0  1  0  0  0  0  0  0  0  0  0
    4.1140   -0.8906    0.4441 C   0  0  0  0  0  0  0  0  0  0  0  0
    4.1857   -3.2507   -0.7774 S   0  0  0  0  0  6  0  0  0  0  0  0
    5.8854   -2.8993   -1.1793 C   0  0  0  0  0  0  0  0  0  0  0  0
    4.1765   -3.9900    0.5525 O   0  0  0  0  0  0  0  0  0  0  0  0
    3.6271   -4.1133   -1.8380 O   0  0  0  0  0  0  0  0  0  0  0  0
   -4.2321   -3.2703   -0.1717 H   0  0  0  0  0  0  0  0  0  0  0  0
   -2.6020   -3.9591   -0.0804 H   0  0  0  0  0  0  0  0  0  0  0  0
   -2.9605   -2.5082   -1.1582 H   0  0  0  0  0  0  0  0  0  0  0  0
   -1.9606   -2.5707    1.6195 H   0  0  0  0  0  0  0  0  0  0  0  0
   -4.1975   -3.0180    2.3441 H   0  0  0  0  0  0  0  0  0  0  0  0
   -3.7793   -1.3244    2.7208 H   0  0  0  0  0  0  0  0  0  0  0  0
   -4.8063   -1.0065   -0.7310 H   0  0  0  0  0  0  0  0  0  0  0  0
   -5.6987    0.1267    0.3068 H   0  0  0  0  0  0  0  0  0  0  0  0
   -3.4729    0.8318   -0.3024 H   0  0  0  0  0  0  0  0  0  0  0  0
   -3.6391    0.7504    1.4898 H   0  0  0  0  0  0  0  0  0  0  0  0
    2.5464    2.7151   -1.0985 H   0  0  0  0  0  0  0  0  0  0  0  0
    1.0747    6.6674   -0.8973 H   0  0  0  0  0  0  0  0  0  0  0  0
   -1.5629    6.8274   -0.0411 H   0  0  0  0  0  0  0  0  0  0  0  0
   -3.3720    5.1153    0.6807 H   0  0  0  0  0  0  0  0  0  0  0  0
   -2.2947    2.7248    0.5000 H   0  0  0  0  0  0  0  0  0  0  0  0
    2.3210    0.9057   -0.6287 H   0  0  0  0  0  0  0  0  0  0  0  0
    1.5782   -3.9214    0.0544 H   0  0  0  0  0  0  0  0  0  0  0  0
    3.4379   -1.1628   -1.5488 H   0  0  0  0  0  0  0  0  0  0  0  0
    4.8957   -1.4987    0.9754 H   0  0  0  0  0  0  0  0  0  0  0  0
    4.6595   -0.0491   -0.0148 H   0  0  0  0  0  0  0  0  0  0  0  0
    3.4531   -0.4854    1.2401 H   0  0  0  0  0  0  0  0  0  0  0  0
    5.9554   -2.0368   -1.9047 H   0  0  0  0  0  0  0  0  0  0  0  0
    6.4430   -2.5618   -0.2829 H   0  0  0  0  0  0  0  0  0  0  0  0
    6.3737   -3.7520   -1.6915 H   0  0  0  0  0  0  0  0  0  0  0  0
  1  2  1  0
  2  3  1  0
  3  4  1  0
  4  5  1  0
  5  6  1  0
  6  7  1  0
  7  8  1  0
  8  9  2  0
  9 10  1  0
 10 11  1  0
 11 12  2  0
 12 13  1  0
 13 14  2  0
 14 15  1  0
 15 16  1  0
 16 17  1  0
 17 18  2  0
 18 19  1  0
 10 20  2  0
 20 21  1  0
 21 22  2  0
 22 23  1  0
 23 24  2  0
 24 25  1  0
 25 26  1  0
 26 27  1  0
 26 28  1  0
 28 29  1  0
 28 30  2  0
 28 31  2  0
  7  2  1  0
 22  8  1  0
 19 11  1  0
 25 21  1  0
 19 15  2  0
  1 32  1  0
  1 33  1  0
  1 34  1  0
  2 35  1  1
  3 36  1  0
  3 37  1  0
  5 38  1  0
  5 39  1  0
  6 40  1  0
  6 41  1  0
 12 42  1  0
 14 43  1  0
 16 44  1  0
 17 45  1  0
 18 46  1  0
 20 47  1  0
 24 48  1  0
 26 49  1  6
 27 50  1  0
 27 51  1  0
 27 52  1  0
 29 53  1  0
 29 54  1  0
 29 55  1  0
M  END
$$$$
