@<TRIPOS>MOLECULE
*****
 53 56 0 0 0
SMALL
GASTEIGER

@<TRIPOS>ATOM
      1 C          -5.2807    3.9295    0.8884 C.3     1  UNL1        0.0790
      2 O          -5.7663    2.7026    0.4402 O.3     1  UNL1       -0.4914
      3 C          -4.9965    1.6064    0.0770 C.ar    1  UNL1        0.1635
      4 C          -5.6594    0.4716   -0.3441 C.ar    1  UNL1        0.1623
      5 O          -7.0568    0.4714   -0.3873 O.3     1  UNL1       -0.4914
      6 C          -7.7549   -0.6776   -0.8145 C.3     1  UNL1        0.0790
      7 C          -5.0000   -0.6780   -0.7296 C.ar    1  UNL1       -0.0038
      8 C          -3.6237   -0.6142   -0.6646 C.ar    1  UNL1        0.0437
      9 C          -2.9108   -1.7322   -1.0373 C.ar    1  UNL1        0.1291
     10 N          -3.6076   -2.8955   -1.4695 N.pl3   1  UNL1       -0.3425
     11 N          -1.5666   -1.7262   -0.9937 N.ar    1  UNL1       -0.1992
     12 C          -0.8588   -0.6700   -0.5990 C.ar    1  UNL1        0.2201
     13 N          -1.5449    0.4400   -0.2283 N.ar    1  UNL1       -0.2141
     14 C          -2.8884    0.4796   -0.2558 C.ar    1  UNL1        0.0816
     15 C          -3.6158    1.5964    0.1161 C.ar    1  UNL1        0.0099
     16 N           0.5742   -0.6683   -0.5542 N.pl3   1  UNL1       -0.2966
     17 C           1.3872    0.4369   -0.1389 C.3     1  UNL1        0.0307
     18 C           2.7669    0.3162   -0.7407 C.3     1  UNL1        0.0306
     19 N           3.3712   -0.9256   -0.2928 N.am    1  UNL1       -0.2964
     20 C           2.4473   -2.0281   -0.0412 C.3     1  UNL1        0.0306
     21 C           1.2492   -1.8962   -0.9668 C.3     1  UNL1        0.0307
     22 C           4.7425   -1.2730   -0.0471 C.2     1  UNL1        0.2445
     23 O           5.1741   -2.4028    0.3487 O.2     1  UNL1       -0.2728
     24 C           5.9636   -0.4649   -0.1773 C.3     1  UNL1        0.1346
     25 C           6.7449   -0.3341    1.0906 C.3     1  UNL1       -0.0159
     26 C           6.9294    1.1636    1.2030 C.3     1  UNL1       -0.0266
     27 C           6.6787    1.6123   -0.2252 C.3     1  UNL1        0.0487
     28 O           5.6265    0.8220   -0.6122 O.3     1  UNL1       -0.3674
     29 H          -6.0086    4.3415    1.6142 H       1  UNL1        0.0660
     30 H          -4.2888    3.8514    1.3496 H       1  UNL1        0.0660
     31 H          -5.2124    4.6127   -0.0032 H       1  UNL1        0.0660
     32 H          -8.8404   -0.4118   -0.8237 H       1  UNL1        0.0660
     33 H          -7.5260   -1.4868   -0.0824 H       1  UNL1        0.0660
     34 H          -7.4935   -0.9970   -1.8409 H       1  UNL1        0.0660
     35 H          -5.5085   -1.5739   -1.0616 H       1  UNL1        0.0663
     36 H          -4.0510   -3.1235   -2.3907 H       1  UNL1        0.1437
     37 H          -4.1004   -3.3140   -2.2850 H       1  UNL1        0.1437
     38 H          -3.0885    2.4740    0.4422 H       1  UNL1        0.0677
     39 H           0.9606    1.3892   -0.5688 H       1  UNL1        0.0480
     40 H           1.5230    0.5479    0.9390 H       1  UNL1        0.0480
     41 H           2.6975    0.2438   -1.8513 H       1  UNL1        0.0480
     42 H           3.3309    1.2117   -0.4142 H       1  UNL1        0.0480
     43 H           2.0630   -1.9461    1.0076 H       1  UNL1        0.0480
     44 H           2.9098   -3.0229   -0.1936 H       1  UNL1        0.0480
     45 H           1.6308   -1.7651   -2.0029 H       1  UNL1        0.0480
     46 H           0.5861   -2.7558   -0.8460 H       1  UNL1        0.0480
     47 H           6.6764   -0.8992   -0.9373 H       1  UNL1        0.0693
     48 H           6.2654   -0.7706    1.9836 H       1  UNL1        0.0296
     49 H           7.7674   -0.7914    1.0328 H       1  UNL1        0.0296
     50 H           7.9617    1.4284    1.5244 H       1  UNL1        0.0288
     51 H           6.1557    1.6184    1.8618 H       1  UNL1        0.0288
     52 H           6.4411    2.6828   -0.1955 H       1  UNL1        0.0560
     53 H           7.6244    1.3946   -0.7733 H       1  UNL1        0.0560
@<TRIPOS>BOND
     1     1     2    1
     2     2     3    1
     3     3     4   ar
     4     4     5    1
     5     5     6    1
     6     4     7   ar
     7     7     8   ar
     8     8     9   ar
     9     9    10    1
    10     9    11   ar
    11    11    12   ar
    12    12    13   ar
    13    13    14   ar
    14    14    15   ar
    15    12    16    1
    16    16    17    1
    17    17    18    1
    18    18    19    1
    19    19    20    1
    20    20    21    1
    21    19    22   am
    22    22    23    2
    23    22    24    1
    24    24    25    1
    25    25    26    1
    26    26    27    1
    27    27    28    1
    28    15     3   ar
    29    21    16    1
    30    28    24    1
    31    14     8   ar
    32     1    29    1
    33     1    30    1
    34     1    31    1
    35     6    32    1
    36     6    33    1
    37     6    34    1
    38     7    35    1
    39    10    36    1
    40    10    37    1
    41    15    38    1
    42    17    39    1
    43    17    40    1
    44    18    41    1
    45    18    42    1
    46    20    43    1
    47    20    44    1
    48    21    45    1
    49    21    46    1
    50    24    47    1
    51    25    48    1
    52    25    49    1
    53    26    50    1
    54    26    51    1
    55    27    52    1
    56    27    53    1
