@<TRIPOS>MOLECULE
*****
 50 53 0 0 0
SMALL
GASTEIGER

@<TRIPOS>ATOM
      1 C           1.4270   -3.7616   -1.1247 C.2     1  UNL1       -0.0951
      2 C           1.0325   -3.0998   -0.0594 C.2     1  UNL1       -0.0472
      3 C           0.2383   -3.8825    0.9031 C.3     1  UNL1       -0.0396
      4 C           1.4498   -1.7684    0.1985 C.ar    1  UNL1        0.0166
      5 C           2.5902   -1.3370   -0.5092 C.ar    1  UNL1        0.0374
      6 N           3.1242   -0.1313   -0.4308 N.ar    1  UNL1       -0.2542
      7 C           2.5398    0.7611    0.3878 C.ar    1  UNL1        0.0755
      8 C           3.1321    2.0769    0.4684 C.ar    1  UNL1        0.0369
      9 C           2.5924    3.0368    1.2796 C.ar    1  UNL1       -0.0314
     10 C           3.1671    4.3031    1.3536 C.ar    1  UNL1        0.0418
     11 CL          2.4575    5.5069    2.3961 Cl      1  UNL1       -0.0835
     12 C           4.2819    4.5821    0.6053 C.ar    1  UNL1       -0.0406
     13 C           4.8158    3.6073   -0.2074 C.ar    1  UNL1       -0.0244
     14 C           4.2475    2.3662   -0.2762 C.ar    1  UNL1        0.1326
     15 F           4.7784    1.4167   -1.0761 F       1  UNL1       -0.2048
     16 C           1.4368    0.4399    1.1105 C.ar    1  UNL1       -0.0138
     17 C           0.8689   -0.8832    1.0072 C.ar    1  UNL1        0.0423
     18 N          -0.2957   -1.0403    1.7510 N.pl3   1  UNL1       -0.3133
     19 C          -1.6007   -1.4206    1.5995 C.ar    1  UNL1        0.0465
     20 C          -2.0941   -2.3677    2.5271 C.ar    1  UNL1       -0.0217
     21 C          -3.3583   -2.8558    2.5312 C.ar    1  UNL1        0.0293
     22 N          -4.1978   -2.4065    1.5878 N.ar    1  UNL1       -0.2624
     23 C          -3.7729   -1.4933    0.6691 C.ar    1  UNL1        0.0415
     24 C          -2.4769   -0.9827    0.6516 C.ar    1  UNL1        0.0758
     25 C          -2.1480   -0.0379   -0.4117 C.2     1  UNL1        0.2476
     26 O          -0.9646    0.3746   -0.5833 O.2     1  UNL1       -0.2701
     27 N          -3.0893    0.5009   -1.3336 N.am    1  UNL1       -0.3084
     28 C          -2.6869    1.4429   -2.3752 C.3     1  UNL1        0.0235
     29 C          -3.5782    2.5812   -2.7321 C.3     1  UNL1       -0.0328
     30 C          -3.3569    1.4470   -3.6813 C.3     1  UNL1       -0.0328
     31 H           2.0128   -3.3813   -1.9481 H       1  UNL1        0.0538
     32 H           1.1312   -4.8307   -1.1975 H       1  UNL1        0.0538
     33 H           0.6834   -4.9424    0.9585 H       1  UNL1        0.0278
     34 H          -0.8082   -3.9884    0.6414 H       1  UNL1        0.0278
     35 H           0.3514   -3.5294    1.9416 H       1  UNL1        0.0278
     36 H           3.0803   -2.0654   -1.1625 H       1  UNL1        0.0836
     37 H           1.7046    2.8815    1.9029 H       1  UNL1        0.0639
     38 H           4.7630    5.5403    0.6256 H       1  UNL1        0.0633
     39 H           5.7063    3.8421   -0.8004 H       1  UNL1        0.0647
     40 H           0.9373    1.1199    1.7776 H       1  UNL1        0.0658
     41 H          -0.0941   -0.7610    2.8305 H       1  UNL1        0.1522
     42 H          -1.4296   -2.7529    3.3163 H       1  UNL1        0.0651
     43 H          -3.7164   -3.5778    3.2466 H       1  UNL1        0.0830
     44 H          -4.4830   -1.1631   -0.0745 H       1  UNL1        0.0838
     45 H          -4.0792    0.2157   -1.2524 H       1  UNL1        0.1493
     46 H          -1.6077    1.6844   -2.3714 H       1  UNL1        0.0498
     47 H          -3.1453    3.5857   -2.9526 H       1  UNL1        0.0284
     48 H          -4.6062    2.6468   -2.3144 H       1  UNL1        0.0284
     49 H          -2.7669    1.7374   -4.5893 H       1  UNL1        0.0284
     50 H          -4.1935    0.7637   -3.9264 H       1  UNL1        0.0284
@<TRIPOS>BOND
     1     1     2    2
     2     2     3    1
     3     2     4    1
     4     4     5   ar
     5     5     6   ar
     6     6     7   ar
     7     7     8    1
     8     8     9   ar
     9     9    10   ar
    10    10    11    1
    11    10    12   ar
    12    12    13   ar
    13    13    14   ar
    14    14    15    1
    15     7    16   ar
    16    16    17   ar
    17    17    18    1
    18    18    19    1
    19    19    20   ar
    20    20    21   ar
    21    21    22   ar
    22    22    23   ar
    23    23    24   ar
    24    24    25    1
    25    25    26    2
    26    25    27   am
    27    27    28    1
    28    28    29    1
    29    29    30    1
    30    17     4   ar
    31    24    19   ar
    32    30    28    1
    33    14     8   ar
    34     1    31    1
    35     1    32    1
    36     3    33    1
    37     3    34    1
    38     3    35    1
    39     5    36    1
    40     9    37    1
    41    12    38    1
    42    13    39    1
    43    16    40    1
    44    18    41    1
    45    20    42    1
    46    21    43    1
    47    23    44    1
    48    27    45    1
    49    28    46    1
    50    29    47    1
    51    29    48    1
    52    30    49    1
    53    30    50    1
