@<TRIPOS>MOLECULE
*****
 75 79 0 0 0
SMALL
GASTEIGER

@<TRIPOS>ATOM
      1 O           4.6367   -0.2358    1.4867 O.3     1  UNL1       -0.3875
      2 C           5.3752   -0.4236    0.3492 C.3     1  UNL1        0.1013
      3 C           5.5468    0.8369   -0.4649 C.3     1  UNL1        0.0652
      4 N           4.4748    1.7283   -0.5137 N.3     1  UNL1       -0.3031
      5 C           3.2279    1.3893   -1.0415 C.3     1  UNL1        0.0421
      6 C           2.4452    0.3472   -0.3336 C.ar    1  UNL1        0.0966
      7 C           1.5851    0.5835    0.7414 C.ar    1  UNL1        0.0503
      8 N           1.0387   -0.5838    1.1054 N.ar    1  UNL1       -0.2471
      9 C           0.0759   -0.7642    2.2010 C.3     1  UNL1        0.0684
     10 C          -1.2676   -0.5951    1.5984 C.ar    1  UNL1       -0.0192
     11 C          -1.8745    0.6389    1.5350 C.ar    1  UNL1       -0.0148
     12 C          -3.1192    0.8303    0.9834 C.ar    1  UNL1        0.1248
     13 O          -3.7039    2.0776    0.9329 O.3     1  UNL1       -0.4872
     14 C          -3.0879    3.2472    1.4340 C.3     1  UNL1        0.1146
     15 C          -4.0224    4.3778    1.1974 C.ar    1  UNL1       -0.0104
     16 C          -4.9485    4.7034    2.1475 C.ar    1  UNL1       -0.0554
     17 C          -5.8187    5.7654    1.9144 C.ar    1  UNL1       -0.0614
     18 C          -5.7475    6.4812    0.7381 C.ar    1  UNL1       -0.0617
     19 C          -4.8182    6.1601   -0.2238 C.ar    1  UNL1       -0.0614
     20 C          -3.9666    5.1046    0.0284 C.ar    1  UNL1       -0.0554
     21 C          -3.7914   -0.2552    0.4712 C.ar    1  UNL1        0.0218
     22 C          -3.2086   -1.5218    0.5175 C.ar    1  UNL1        0.1248
     23 O          -3.8296   -2.6540    0.0210 O.3     1  UNL1       -0.4872
     24 C          -5.1128   -2.5280   -0.5607 C.3     1  UNL1        0.1146
     25 C          -5.5606   -3.8743   -1.0136 C.ar    1  UNL1       -0.0104
     26 C          -5.2502   -4.2766   -2.2905 C.ar    1  UNL1       -0.0554
     27 C          -5.6698   -5.5251   -2.6996 C.ar    1  UNL1       -0.0614
     28 C          -6.3863   -6.3538   -1.8453 C.ar    1  UNL1       -0.0617
     29 C          -6.6858   -5.9258   -0.5660 C.ar    1  UNL1       -0.0614
     30 C          -6.2730   -4.6835   -0.1468 C.ar    1  UNL1       -0.0554
     31 C          -1.9404   -1.6781    1.0865 C.ar    1  UNL1       -0.0148
     32 N           1.5230   -1.5085    0.3085 N.ar    1  UNL1       -0.0651
     33 N           2.3638   -0.9791   -0.5582 N.ar    1  UNL1       -0.1332
     34 C           6.1694    0.4831   -1.8018 C.3     1  UNL1        0.1013
     35 O           6.3809    1.6613   -2.4960 O.3     1  UNL1       -0.3875
     36 C           7.5560   -0.0800   -1.4560 C.3     1  UNL1        0.1108
     37 O           8.0987   -0.5193   -2.6666 O.3     1  UNL1       -0.3865
     38 C           7.4492   -1.2818   -0.5512 C.3     1  UNL1        0.1117
     39 O           8.6926   -1.8348   -0.3850 O.3     1  UNL1       -0.3865
     40 C           6.8114   -0.8318    0.7547 C.3     1  UNL1        0.1108
     41 O           6.8062   -1.8072    1.7178 O.3     1  UNL1       -0.3865
     42 H           4.2709   -1.0793    1.8021 H       1  UNL1        0.2100
     43 H           5.0500   -1.2710   -0.2952 H       1  UNL1        0.0636
     44 H           6.3934    1.3931    0.0717 H       1  UNL1        0.0513
     45 H           4.3565    2.2093    0.4055 H       1  UNL1        0.1227
     46 H           2.5744    2.3183   -1.0010 H       1  UNL1        0.0490
     47 H           3.2295    1.1295   -2.1291 H       1  UNL1        0.0490
     48 H           1.4388    1.5637    1.1518 H       1  UNL1        0.0846
     49 H           0.2185   -1.7707    2.6284 H       1  UNL1        0.0559
     50 H           0.2811   -0.0244    2.9849 H       1  UNL1        0.0559
     51 H          -1.3573    1.4822    1.9301 H       1  UNL1        0.0657
     52 H          -2.1708    3.4740    0.8158 H       1  UNL1        0.0748
     53 H          -2.7743    3.1514    2.4802 H       1  UNL1        0.0748
     54 H          -4.9736    4.1183    3.0574 H       1  UNL1        0.0621
     55 H          -6.5534    6.0080    2.6918 H       1  UNL1        0.0618
     56 H          -6.4472    7.3160    0.5796 H       1  UNL1        0.0618
     57 H          -4.7757    6.7346   -1.1452 H       1  UNL1        0.0618
     58 H          -3.2221    4.8455   -0.7399 H       1  UNL1        0.0621
     59 H          -4.7570   -0.1509    0.0351 H       1  UNL1        0.0691
     60 H          -5.8373   -2.0922    0.1537 H       1  UNL1        0.0748
     61 H          -5.0325   -1.8452   -1.4136 H       1  UNL1        0.0748
     62 H          -4.6911   -3.6275   -2.9541 H       1  UNL1        0.0621
     63 H          -5.4289   -5.8592   -3.7169 H       1  UNL1        0.0618
     64 H          -6.7111   -7.3379   -2.1830 H       1  UNL1        0.0618
     65 H          -7.2433   -6.5506    0.1222 H       1  UNL1        0.0618
     66 H          -6.5247   -4.3787    0.8638 H       1  UNL1        0.0621
     67 H          -1.5046   -2.6736    1.1123 H       1  UNL1        0.0657
     68 H           5.6438   -0.2949   -2.3497 H       1  UNL1        0.0636
     69 H           6.1829    2.4770   -1.9479 H       1  UNL1        0.2100
     70 H           8.2159    0.7054   -1.0393 H       1  UNL1        0.0646
     71 H           8.6998    0.1739   -3.0217 H       1  UNL1        0.2100
     72 H           6.7088   -1.9720   -1.0241 H       1  UNL1        0.0647
     73 H           8.5955   -2.6343    0.2104 H       1  UNL1        0.2100
     74 H           7.3019    0.1148    1.0539 H       1  UNL1        0.0646
     75 H           6.6691   -1.3473    2.6000 H       1  UNL1        0.2100
@<TRIPOS>BOND
     1     1     2    1
     2     2     3    1
     3     3     4    1
     4     4     5    1
     5     5     6    1
     6     6     7   ar
     7     7     8   ar
     8     8     9    1
     9     9    10    1
    10    10    11   ar
    11    11    12   ar
    12    12    13    1
    13    13    14    1
    14    14    15    1
    15    15    16   ar
    16    16    17   ar
    17    17    18   ar
    18    18    19   ar
    19    19    20   ar
    20    12    21   ar
    21    21    22   ar
    22    22    23    1
    23    23    24    1
    24    24    25    1
    25    25    26   ar
    26    26    27   ar
    27    27    28   ar
    28    28    29   ar
    29    29    30   ar
    30    22    31   ar
    31     8    32   ar
    32    32    33   ar
    33     3    34    1
    34    34    35    1
    35    34    36    1
    36    36    37    1
    37    36    38    1
    38    38    39    1
    39    38    40    1
    40    40    41    1
    41    40     2    1
    42    33     6   ar
    43    31    10   ar
    44    20    15   ar
    45    30    25   ar
    46     1    42    1
    47     2    43    1
    48     3    44    1
    49     4    45    1
    50     5    46    1
    51     5    47    1
    52     7    48    1
    53     9    49    1
    54     9    50    1
    55    11    51    1
    56    14    52    1
    57    14    53    1
    58    16    54    1
    59    17    55    1
    60    18    56    1
    61    19    57    1
    62    20    58    1
    63    21    59    1
    64    24    60    1
    65    24    61    1
    66    26    62    1
    67    27    63    1
    68    28    64    1
    69    29    65    1
    70    30    66    1
    71    31    67    1
    72    34    68    1
    73    35    69    1
    74    36    70    1
    75    37    71    1
    76    38    72    1
    77    39    73    1
    78    40    74    1
    79    41    75    1
