@<TRIPOS>MOLECULE
*****
 81 82 0 0 0
SMALL
GASTEIGER

@<TRIPOS>ATOM
      1 C           5.0411    0.9595    0.4426 C.2     1  UNL1       -0.0879
      2 C           5.8657    1.7494    1.4372 C.3     1  UNL1       -0.0348
      3 C           6.6018    2.8557    0.8163 C.3     1  UNL1       -0.0496
      4 C           7.5525    2.6535   -0.2817 C.3     1  UNL1       -0.0528
      5 C           8.7720    1.8441   -0.1080 C.3     1  UNL1       -0.0530
      6 C           8.5346    0.4186    0.2225 C.3     1  UNL1       -0.0531
      7 C           9.8646   -0.3597    0.2966 C.3     1  UNL1       -0.0533
      8 C           9.4838   -1.7923    0.6384 C.3     1  UNL1       -0.0559
      9 C           8.5812   -2.3747   -0.4205 C.3     1  UNL1       -0.0653
     10 C           3.7207    0.8442    0.5187 C.2     1  UNL1       -0.0879
     11 C           2.7622    0.1091   -0.3694 C.3     1  UNL1       -0.0348
     12 C           1.7762    1.0653   -0.9733 C.3     1  UNL1       -0.0496
     13 C           0.9442    1.8357   -0.0245 C.3     1  UNL1       -0.0528
     14 C           0.0732    1.0653    0.8941 C.3     1  UNL1       -0.0530
     15 C          -0.9300    0.1998    0.1567 C.3     1  UNL1       -0.0526
     16 C          -1.8455    1.0500   -0.7211 C.3     1  UNL1       -0.0430
     17 C          -2.7974    0.0354   -1.3890 C.3     1  UNL1        0.0449
     18 C          -3.5122   -0.6385   -0.2731 C.2     1  UNL1        0.3072
     19 O          -4.0353    0.0998    0.5974 O.2     1  UNL1       -0.2509
     20 O          -3.5515   -2.0122   -0.2633 O.3     1  UNL1       -0.4619
     21 C          -4.1898   -2.7524    0.7241 C.3     1  UNL1        0.1211
     22 C          -5.6656   -2.6260    0.8245 C.3     1  UNL1        0.1235
     23 O          -6.1352   -1.3566    1.0549 O.3     1  UNL1       -0.3445
     24 C          -7.5250   -1.4477    0.8720 C.3     1  UNL1        0.1679
     25 N          -8.1207   -0.1737    0.5491 N.ar    1  UNL1       -0.2734
     26 C          -7.6428    1.0825    0.5541 C.ar    1  UNL1        0.0154
     27 C          -8.4183    2.1467    0.1956 C.ar    1  UNL1       -0.0015
     28 C          -9.7144    1.9361   -0.1794 C.ar    1  UNL1        0.1520
     29 N         -10.4184    2.9706   -0.5161 N.2     1  UNL1       -0.2819
     30 N         -10.2044    0.6867   -0.1891 N.ar    1  UNL1       -0.1779
     31 C          -9.4084   -0.3597    0.1743 C.ar    1  UNL1        0.2996
     32 O         -10.1829   -1.5338    0.0706 O.3     1  UNL1       -0.4795
     33 C          -7.7200   -2.3653   -0.2944 C.3     1  UNL1        0.1286
     34 O          -8.0858   -1.6817   -1.4555 O.3     1  UNL1       -0.3847
     35 C          -6.3759   -3.0322   -0.4431 C.3     1  UNL1        0.1146
     36 O          -6.4965   -4.4209   -0.5380 O.3     1  UNL1       -0.3864
     37 H           5.4484    0.4283   -0.4067 H       1  UNL1        0.0569
     38 H           5.0637    2.2759    2.1073 H       1  UNL1        0.0307
     39 H           6.3291    1.0707    2.1238 H       1  UNL1        0.0307
     40 H           7.1553    3.3753    1.6866 H       1  UNL1        0.0268
     41 H           5.8270    3.6479    0.5351 H       1  UNL1        0.0268
     42 H           7.8978    3.7125   -0.5914 H       1  UNL1        0.0265
     43 H           7.0125    2.3391   -1.2428 H       1  UNL1        0.0265
     44 H           9.3599    2.3435    0.7348 H       1  UNL1        0.0265
     45 H           9.4245    1.9618   -1.0211 H       1  UNL1        0.0265
     46 H           8.1686    0.3689    1.2715 H       1  UNL1        0.0265
     47 H           7.9172   -0.0692   -0.5230 H       1  UNL1        0.0265
     48 H          10.5360    0.0511    1.0666 H       1  UNL1        0.0265
     49 H          10.2646   -0.3457   -0.7212 H       1  UNL1        0.0265
     50 H           8.9020   -1.8280    1.6068 H       1  UNL1        0.0263
     51 H          10.3791   -2.4232    0.8319 H       1  UNL1        0.0263
     52 H           8.7062   -3.4948   -0.3848 H       1  UNL1        0.0230
     53 H           8.8675   -1.9977   -1.4313 H       1  UNL1        0.0230
     54 H           7.5410   -2.1978   -0.1439 H       1  UNL1        0.0230
     55 H           3.2020    1.3446    1.3449 H       1  UNL1        0.0569
     56 H           2.3118   -0.7608    0.1417 H       1  UNL1        0.0307
     57 H           3.3628   -0.3113   -1.2012 H       1  UNL1        0.0307
     58 H           2.3720    1.7907   -1.5682 H       1  UNL1        0.0268
     59 H           1.1889    0.4972   -1.7243 H       1  UNL1        0.0268
     60 H           0.3104    2.5318   -0.6150 H       1  UNL1        0.0265
     61 H           1.5859    2.5258    0.5995 H       1  UNL1        0.0265
     62 H          -0.5276    1.7408    1.5377 H       1  UNL1        0.0265
     63 H           0.6106    0.3919    1.5857 H       1  UNL1        0.0265
     64 H          -1.5703   -0.3127    0.9231 H       1  UNL1        0.0265
     65 H          -0.3565   -0.5100   -0.4584 H       1  UNL1        0.0265
     66 H          -1.2958    1.6155   -1.4738 H       1  UNL1        0.0270
     67 H          -2.4856    1.6856   -0.0812 H       1  UNL1        0.0270
     68 H          -2.2237   -0.6984   -1.9818 H       1  UNL1        0.0377
     69 H          -3.5081    0.5883   -2.0660 H       1  UNL1        0.0377
     70 H          -3.6802   -2.6136    1.7140 H       1  UNL1        0.0724
     71 H          -3.9766   -3.8381    0.4879 H       1  UNL1        0.0724
     72 H          -6.0840   -3.3092    1.6226 H       1  UNL1        0.0658
     73 H          -7.9211   -1.8488    1.8423 H       1  UNL1        0.0867
     74 H          -6.5879    1.0764    0.8781 H       1  UNL1        0.0812
     75 H          -7.9227    3.1163    0.2391 H       1  UNL1        0.0669
     76 H         -10.0104    3.9173   -0.4997 H       1  UNL1        0.1883
     77 H         -10.6922   -1.8961    0.8533 H       1  UNL1        0.2953
     78 H          -8.4463   -3.1473   -0.0086 H       1  UNL1        0.0665
     79 H          -7.5802   -2.1072   -2.2066 H       1  UNL1        0.2101
     80 H          -5.8896   -2.5974   -1.3355 H       1  UNL1        0.0648
     81 H          -5.5838   -4.7706   -0.7242 H       1  UNL1        0.2100
@<TRIPOS>BOND
     1     1     2    1
     2     2     3    1
     3     3     4    1
     4     4     5    1
     5     5     6    1
     6     6     7    1
     7     7     8    1
     8     8     9    1
     9     1    10    2
    10    10    11    1
    11    11    12    1
    12    12    13    1
    13    13    14    1
    14    14    15    1
    15    15    16    1
    16    16    17    1
    17    17    18    1
    18    18    19    2
    19    18    20    1
    20    20    21    1
    21    21    22    1
    22    22    23    1
    23    23    24    1
    24    24    25    1
    25    25    26   ar
    26    26    27   ar
    27    27    28   ar
    28    28    29    2
    29    28    30   ar
    30    30    31   ar
    31    31    32    1
    32    24    33    1
    33    33    34    1
    34    33    35    1
    35    35    36    1
    36    35    22    1
    37    31    25   ar
    38     1    37    1
    39     2    38    1
    40     2    39    1
    41     3    40    1
    42     3    41    1
    43     4    42    1
    44     4    43    1
    45     5    44    1
    46     5    45    1
    47     6    46    1
    48     6    47    1
    49     7    48    1
    50     7    49    1
    51     8    50    1
    52     8    51    1
    53     9    52    1
    54     9    53    1
    55     9    54    1
    56    10    55    1
    57    11    56    1
    58    11    57    1
    59    12    58    1
    60    12    59    1
    61    13    60    1
    62    13    61    1
    63    14    62    1
    64    14    63    1
    65    15    64    1
    66    15    65    1
    67    16    66    1
    68    16    67    1
    69    17    68    1
    70    17    69    1
    71    21    70    1
    72    21    71    1
    73    22    72    1
    74    24    73    1
    75    26    74    1
    76    27    75    1
    77    29    76    1
    78    32    77    1
    79    33    78    1
    80    34    79    1
    81    35    80    1
    82    36    81    1
