@<TRIPOS>MOLECULE
*****
 61 63 0 0 0
SMALL
GASTEIGER

@<TRIPOS>ATOM
      1 C          -2.1818   -0.3890    1.3811 C.3     1  UNL1        0.0937
      2 C          -2.9186   -0.5268    2.6739 C.3     1  UNL1       -0.0270
      3 C          -4.0103   -1.5594    2.4968 C.3     1  UNL1       -0.0512
      4 C          -3.4805   -2.9098    2.1095 C.3     1  UNL1       -0.0558
      5 C          -2.5397   -3.5033    3.1058 C.3     1  UNL1       -0.0653
      6 N          -1.1090    0.5690    1.4193 N.am    1  UNL1       -0.2710
      7 C           0.2111    0.1144    1.1349 C.2     1  UNL1        0.4008
      8 O           0.7381   -0.9958    0.8331 O.2     1  UNL1       -0.2265
      9 O           1.4238    0.7908    1.0953 O.3     1  UNL1       -0.4498
     10 C           2.5906    0.0346    0.7723 C.3     1  UNL1        0.0999
     11 C           3.7264    1.0482    0.8104 C.3     1  UNL1        0.0090
     12 C           5.0738    0.4961    0.5023 C.3     1  UNL1       -0.0189
     13 C           5.1760   -0.1082   -0.8375 C.ar    1  UNL1       -0.0466
     14 C           5.5394    0.5480   -2.0016 C.ar    1  UNL1       -0.0558
     15 C           5.6032   -0.1222   -3.2123 C.ar    1  UNL1       -0.0262
     16 C           5.3013   -1.4850   -3.2937 C.ar    1  UNL1        0.1234
     17 F           5.3673   -2.1346   -4.4913 F       1  UNL1       -0.2055
     18 C           4.9368   -2.1400   -2.1223 C.ar    1  UNL1       -0.0262
     19 C           4.8753   -1.4628   -0.9150 C.ar    1  UNL1       -0.0558
     20 C           3.7469    1.8926    2.0655 C.3     1  UNL1       -0.0440
     21 C           3.9915    3.0931    1.1421 C.3     1  UNL1       -0.0518
     22 C           3.3102    2.2710    0.0443 C.3     1  UNL1       -0.0440
     23 C          -3.1374    0.0304    0.3427 C.2     1  UNL1        0.2376
     24 O          -2.1914    0.8905    0.3671 O.2     1  UNL1       -0.2852
     25 C          -4.1468    0.3400   -0.6494 C.2     1  UNL1        0.2867
     26 O          -5.1586   -0.3895   -0.8291 O.2     1  UNL1       -0.2666
     27 N          -4.1184    1.4539   -1.5013 N.am    1  UNL1       -0.2643
     28 C          -5.2958    1.3833   -2.3199 C.ar    1  UNL1        0.1205
     29 C          -5.5522    0.7963   -3.5447 C.ar    1  UNL1       -0.0023
     30 C          -6.8793    1.0669   -3.8254 C.ar    1  UNL1        0.0510
     31 N          -7.4212    1.7850   -2.8274 N.ar    1  UNL1       -0.1807
     32 N          -6.4662    1.9577   -1.9526 N.ar    1  UNL1       -0.2639
     33 H          -1.7333   -1.3824    1.1632 H       1  UNL1        0.0583
     34 H          -2.2070   -0.8450    3.4484 H       1  UNL1        0.0287
     35 H          -3.4508    0.4180    2.9677 H       1  UNL1        0.0287
     36 H          -4.5957   -1.7084    3.4293 H       1  UNL1        0.0266
     37 H          -4.7540   -1.2568    1.7354 H       1  UNL1        0.0266
     38 H          -4.3796   -3.5816    2.0780 H       1  UNL1        0.0263
     39 H          -3.0915   -2.9147    1.0657 H       1  UNL1        0.0263
     40 H          -3.1069   -3.6260    4.0558 H       1  UNL1        0.0230
     41 H          -2.3319   -4.5502    2.7637 H       1  UNL1        0.0230
     42 H          -1.5850   -2.9854    3.2153 H       1  UNL1        0.0230
     43 H          -0.9760    1.5849    1.6114 H       1  UNL1        0.1527
     44 H           2.7573   -0.7424    1.5308 H       1  UNL1        0.0704
     45 H           2.5174   -0.3882   -0.2493 H       1  UNL1        0.0704
     46 H           5.8271    1.2958    0.6107 H       1  UNL1        0.0320
     47 H           5.3198   -0.2541    1.2868 H       1  UNL1        0.0320
     48 H           5.7671    1.5990   -1.9100 H       1  UNL1        0.0621
     49 H           5.8924    0.4168   -4.1169 H       1  UNL1        0.0646
     50 H           4.7120   -3.1960   -2.2367 H       1  UNL1        0.0646
     51 H           4.5787   -2.0779   -0.0672 H       1  UNL1        0.0621
     52 H           4.6253    1.7278    2.7398 H       1  UNL1        0.0272
     53 H           2.8014    1.9596    2.6209 H       1  UNL1        0.0272
     54 H           5.0807    3.1966    0.9157 H       1  UNL1        0.0266
     55 H           3.4668    4.0143    1.4168 H       1  UNL1        0.0266
     56 H           3.7045    2.4046   -0.9636 H       1  UNL1        0.0272
     57 H           2.2083    2.4471    0.1377 H       1  UNL1        0.0272
     58 H          -3.3051    2.1357   -1.4319 H       1  UNL1        0.1566
     59 H          -4.7792    0.2584   -4.0777 H       1  UNL1        0.0667
     60 H          -7.3384    0.7156   -4.7373 H       1  UNL1        0.0848
     61 H          -6.6291    2.4997   -1.0553 H       1  UNL1        0.1903
@<TRIPOS>BOND
     1     1     2    1
     2     2     3    1
     3     3     4    1
     4     4     5    1
     5     1     6    1
     6     6     7   am
     7     7     8    2
     8     7     9    1
     9     9    10    1
    10    10    11    1
    11    11    12    1
    12    12    13    1
    13    13    14   ar
    14    14    15   ar
    15    15    16   ar
    16    16    17    1
    17    16    18   ar
    18    18    19   ar
    19    11    20    1
    20    20    21    1
    21    21    22    1
    22     1    23    1
    23    23    24    2
    24    23    25    1
    25    25    26    2
    26    25    27   am
    27    27    28    1
    28    28    29   ar
    29    29    30   ar
    30    30    31   ar
    31    31    32   ar
    32    22    11    1
    33    32    28   ar
    34    19    13   ar
    35     1    33    1
    36     2    34    1
    37     2    35    1
    38     3    36    1
    39     3    37    1
    40     4    38    1
    41     4    39    1
    42     5    40    1
    43     5    41    1
    44     5    42    1
    45     6    43    1
    46    10    44    1
    47    10    45    1
    48    12    46    1
    49    12    47    1
    50    14    48    1
    51    15    49    1
    52    18    50    1
    53    19    51    1
    54    20    52    1
    55    20    53    1
    56    21    54    1
    57    21    55    1
    58    22    56    1
    59    22    57    1
    60    27    58    1
    61    29    59    1
    62    30    60    1
    63    32    61    1
