
     RDKit          3D

 52 56  0  0  0  0  0  0  0  0999 V2000
    1.6689    0.5275   -0.0137 C   0  0  2  0  0  0  0  0  0  0  0  0
    2.7934    1.3030   -0.5617 C   0  0  0  0  0  0  0  0  0  0  0  0
    4.0293    0.4778   -0.1872 C   0  0  0  0  0  0  0  0  0  0  0  0
    3.5055   -0.5692    0.8060 C   0  0  1  0  0  0  0  0  0  0  0  0
    4.3761   -1.6376    0.8840 O   0  0  0  0  0  0  0  0  0  0  0  0
    3.3358    0.1044    2.1047 C   0  0  0  0  0  0  0  0  0  0  0  0
    3.2100    0.6734    3.1677 C   0  0  0  0  0  0  0  0  0  0  0  0
    2.1970   -0.8945    0.1612 C   0  0  2  0  0  0  0  0  0  0  0  0
    2.4882   -1.5782   -1.1453 C   0  0  0  0  0  0  0  0  0  0  0  0
    1.2325   -1.6177    1.0307 C   0  0  0  0  0  0  0  0  0  0  0  0
   -0.1195   -1.6387    0.3060 C   0  0  0  0  0  0  0  0  0  0  0  0
   -0.5954   -0.2415    0.0763 C   0  0  1  0  0  0  0  0  0  0  0  0
    0.4070    0.4720   -0.8071 C   0  0  1  0  0  0  0  0  0  0  0  0
   -0.0786    1.8587   -1.1379 C   0  0  0  0  0  0  0  0  0  0  0  0
   -1.3730    1.6651   -1.9406 C   0  0  0  0  0  0  0  0  0  0  0  0
   -2.3521    1.1557   -0.9437 C   0  0  0  0  0  0  0  0  0  0  0  0
   -3.3625    1.9444   -0.6231 C   0  0  0  0  0  0  0  0  0  0  0  0
   -4.3176    1.4418    0.3539 C   0  0  0  0  0  0  0  0  0  0  0  0
   -4.0586    0.1800    0.8455 C   0  0  0  0  0  0  0  0  0  0  0  0
   -2.9446   -0.7553    0.5356 C   0  0  0  0  0  0  0  0  0  0  0  0
   -1.9835   -0.2095   -0.4862 C   0  0  2  0  0  0  0  0  0  0  0  0
   -2.0496   -1.1409   -1.7033 C   0  0  0  0  0  0  0  0  0  0  0  0
   -5.0781   -0.0764    1.7362 C   0  0  0  0  0  0  0  0  0  0  0  0
   -5.8849    1.0068    1.7454 N   0  0  0  0  0  0  0  0  0  0  0  0
   -5.4032    1.9022    0.9058 O   0  0  0  0  0  0  0  0  0  0  0  0
    1.4149    0.8789    1.0041 H   0  0  0  0  0  0  0  0  0  0  0  0
    2.9065    2.2600    0.0270 H   0  0  0  0  0  0  0  0  0  0  0  0
    2.7695    1.5615   -1.6234 H   0  0  0  0  0  0  0  0  0  0  0  0
    4.8391    1.0899    0.2363 H   0  0  0  0  0  0  0  0  0  0  0  0
    4.3766   -0.0178   -1.1182 H   0  0  0  0  0  0  0  0  0  0  0  0
    5.0446   -1.5457    0.1566 H   0  0  0  0  0  0  0  0  0  0  0  0
    3.0957    1.1892    4.0985 H   0  0  0  0  0  0  0  0  0  0  0  0
    2.3226   -0.9514   -2.0326 H   0  0  0  0  0  0  0  0  0  0  0  0
    1.9180   -2.5301   -1.1684 H   0  0  0  0  0  0  0  0  0  0  0  0
    3.5689   -1.8886   -1.2215 H   0  0  0  0  0  0  0  0  0  0  0  0
    1.1209   -1.0476    1.9651 H   0  0  0  0  0  0  0  0  0  0  0  0
    1.5345   -2.6362    1.2880 H   0  0  0  0  0  0  0  0  0  0  0  0
   -0.0239   -2.1890   -0.6448 H   0  0  0  0  0  0  0  0  0  0  0  0
   -0.8247   -2.2161    0.9386 H   0  0  0  0  0  0  0  0  0  0  0  0
   -0.6080    0.2552    1.0896 H   0  0  0  0  0  0  0  0  0  0  0  0
    0.4984   -0.0652   -1.7643 H   0  0  0  0  0  0  0  0  0  0  0  0
    0.6724    2.4396   -1.6698 H   0  0  0  0  0  0  0  0  0  0  0  0
   -0.3893    2.3146   -0.1701 H   0  0  0  0  0  0  0  0  0  0  0  0
   -1.6963    2.6302   -2.3854 H   0  0  0  0  0  0  0  0  0  0  0  0
   -1.1820    0.9013   -2.7031 H   0  0  0  0  0  0  0  0  0  0  0  0
   -3.4685    2.9195   -1.0715 H   0  0  0  0  0  0  0  0  0  0  0  0
   -3.4416   -1.6881    0.1728 H   0  0  0  0  0  0  0  0  0  0  0  0
   -2.4273   -1.0680    1.4717 H   0  0  0  0  0  0  0  0  0  0  0  0
   -2.9110   -0.7785   -2.3108 H   0  0  0  0  0  0  0  0  0  0  0  0
   -2.2342   -2.1792   -1.3035 H   0  0  0  0  0  0  0  0  0  0  0  0
   -1.1552   -1.1013   -2.3224 H   0  0  0  0  0  0  0  0  0  0  0  0
   -5.3631   -0.8901    2.3864 H   0  0  0  0  0  0  0  0  0  0  0  0
  1  2  1  0
  2  3  1  0
  3  4  1  0
  4  5  1  0
  4  6  1  1
  6  7  3  0
  4  8  1  0
  8  9  1  6
  8 10  1  0
 10 11  1  0
 11 12  1  0
 12 13  1  0
 13 14  1  0
 14 15  1  0
 15 16  1  0
 16 17  2  0
 17 18  1  0
 18 19  2  0
 19 20  1  0
 20 21  1  0
 21 22  1  6
 19 23  1  0
 23 24  2  0
 24 25  1  0
  8  1  1  0
 21 12  1  0
 13  1  1  0
 21 16  1  0
 25 18  1  0
  1 26  1  1
  2 27  1  0
  2 28  1  0
  3 29  1  0
  3 30  1  0
  5 31  1  0
  7 32  1  0
  9 33  1  0
  9 34  1  0
  9 35  1  0
 10 36  1  0
 10 37  1  0
 11 38  1  0
 11 39  1  0
 12 40  1  1
 13 41  1  6
 14 42  1  0
 14 43  1  0
 15 44  1  0
 15 45  1  0
 17 46  1  0
 20 47  1  0
 20 48  1  0
 22 49  1  0
 22 50  1  0
 22 51  1  0
 23 52  1  0
M  END
$$$$
