@<TRIPOS>MOLECULE
*****
 52 56 0 0 0
SMALL
GASTEIGER

@<TRIPOS>ATOM
      1 C           1.6689    0.5275   -0.0137 C.3     1  UNL1       -0.0289
      2 C           2.7934    1.3030   -0.5617 C.3     1  UNL1       -0.0458
      3 C           4.0293    0.4778   -0.1872 C.3     1  UNL1       -0.0118
      4 C           3.5055   -0.5692    0.8060 C.3     1  UNL1        0.1317
      5 O           4.3761   -1.6376    0.8840 O.3     1  UNL1       -0.3760
      6 C           3.3358    0.1044    2.1047 C.1     1  UNL1       -0.0704
      7 C           3.2100    0.6734    3.1677 C.1     1  UNL1       -0.1163
      8 C           2.1970   -0.8945    0.1612 C.3     1  UNL1        0.0111
      9 C           2.4882   -1.5782   -1.1453 C.3     1  UNL1       -0.0558
     10 C           1.2325   -1.6177    1.0307 C.3     1  UNL1       -0.0435
     11 C          -0.1195   -1.6387    0.3060 C.3     1  UNL1       -0.0485
     12 C          -0.5954   -0.2415    0.0763 C.3     1  UNL1       -0.0285
     13 C           0.4070    0.4720   -0.8071 C.3     1  UNL1       -0.0337
     14 C          -0.0786    1.8587   -1.1379 C.3     1  UNL1       -0.0459
     15 C          -1.3730    1.6651   -1.9406 C.3     1  UNL1       -0.0305
     16 C          -2.3521    1.1557   -0.9437 C.2     1  UNL1       -0.0595
     17 C          -3.3625    1.9444   -0.6231 C.2     1  UNL1       -0.0166
     18 C          -4.3176    1.4418    0.3539 C.ar    1  UNL1        0.1633
     19 C          -4.0586    0.1800    0.8455 C.ar    1  UNL1        0.0195
     20 C          -2.9446   -0.7553    0.5356 C.3     1  UNL1       -0.0132
     21 C          -1.9835   -0.2095   -0.4862 C.3     1  UNL1       -0.0035
     22 C          -2.0496   -1.1409   -1.7033 C.3     1  UNL1       -0.0553
     23 C          -5.0781   -0.0764    1.7362 C.ar    1  UNL1        0.0738
     24 N          -5.8849    1.0068    1.7454 N.ar    1  UNL1       -0.0858
     25 O          -5.4032    1.9022    0.9058 O.2     1  UNL1       -0.3550
     26 H           1.4149    0.8789    1.0041 H       1  UNL1        0.0310
     27 H           2.9065    2.2600    0.0270 H       1  UNL1        0.0269
     28 H           2.7695    1.5615   -1.6234 H       1  UNL1        0.0269
     29 H           4.8391    1.0899    0.2363 H       1  UNL1        0.0303
     30 H           4.3766   -0.0178   -1.1182 H       1  UNL1        0.0303
     31 H           5.0446   -1.5457    0.1566 H       1  UNL1        0.2114
     32 H           3.0957    1.1892    4.0985 H       1  UNL1        0.1229
     33 H           2.3226   -0.9514   -2.0326 H       1  UNL1        0.0236
     34 H           1.9180   -2.5301   -1.1684 H       1  UNL1        0.0236
     35 H           3.5689   -1.8886   -1.2215 H       1  UNL1        0.0236
     36 H           1.1209   -1.0476    1.9651 H       1  UNL1        0.0272
     37 H           1.5345   -2.6362    1.2880 H       1  UNL1        0.0272
     38 H          -0.0239   -2.1890   -0.6448 H       1  UNL1        0.0268
     39 H          -0.8247   -2.2161    0.9386 H       1  UNL1        0.0268
     40 H          -0.6080    0.2552    1.0896 H       1  UNL1        0.0312
     41 H           0.4984   -0.0652   -1.7643 H       1  UNL1        0.0307
     42 H           0.6724    2.4396   -1.6698 H       1  UNL1        0.0271
     43 H          -0.3893    2.3146   -0.1701 H       1  UNL1        0.0271
     44 H          -1.6963    2.6302   -2.3854 H       1  UNL1        0.0310
     45 H          -1.1820    0.9013   -2.7031 H       1  UNL1        0.0310
     46 H          -3.4685    2.9195   -1.0715 H       1  UNL1        0.0655
     47 H          -3.4416   -1.6881    0.1728 H       1  UNL1        0.0323
     48 H          -2.4273   -1.0680    1.4717 H       1  UNL1        0.0323
     49 H          -2.9110   -0.7785   -2.3108 H       1  UNL1        0.0238
     50 H          -2.2342   -2.1792   -1.3035 H       1  UNL1        0.0238
     51 H          -1.1552   -1.1013   -2.3224 H       1  UNL1        0.0238
     52 H          -5.3631   -0.8901    2.3864 H       1  UNL1        0.0867
@<TRIPOS>BOND
     1     1     2    1
     2     2     3    1
     3     3     4    1
     4     4     5    1
     5     4     6    1
     6     6     7    3
     7     4     8    1
     8     8     9    1
     9     8    10    1
    10    10    11    1
    11    11    12    1
    12    12    13    1
    13    13    14    1
    14    14    15    1
    15    15    16    1
    16    16    17    2
    17    17    18    1
    18    18    19   ar
    19    19    20    1
    20    20    21    1
    21    21    22    1
    22    19    23   ar
    23    23    24   ar
    24    24    25   ar
    25     8     1    1
    26    21    12    1
    27    13     1    1
    28    21    16    1
    29    25    18   ar
    30     1    26    1
    31     2    27    1
    32     2    28    1
    33     3    29    1
    34     3    30    1
    35     5    31    1
    36     7    32    1
    37     9    33    1
    38     9    34    1
    39     9    35    1
    40    10    36    1
    41    10    37    1
    42    11    38    1
    43    11    39    1
    44    12    40    1
    45    13    41    1
    46    14    42    1
    47    14    43    1
    48    15    44    1
    49    15    45    1
    50    17    46    1
    51    20    47    1
    52    20    48    1
    53    22    49    1
    54    22    50    1
    55    22    51    1
    56    23    52    1
