@<TRIPOS>MOLECULE
*****
 99 102 0 0 0
SMALL
GASTEIGER

@<TRIPOS>ATOM
      1 C          -3.9954    4.4215   -0.2884 C.3     1  UNL1       -0.0626
      2 C          -4.1558    3.3420   -1.3458 C.3     1  UNL1       -0.0443
      3 C          -4.7558    4.0141   -2.5491 C.3     1  UNL1       -0.0626
      4 C          -2.8824    2.6079   -1.6052 C.3     1  UNL1       -0.0220
      5 C          -2.9054    1.5368   -2.6006 C.3     1  UNL1        0.0830
      6 O          -3.2925    2.0252   -3.8834 O.3     1  UNL1       -0.3892
      7 C          -3.5681    0.2564   -2.3396 C.3     1  UNL1        0.0993
      8 O          -4.9565    0.4234   -2.3525 O.3     1  UNL1       -0.3874
      9 C          -3.2690   -0.5415   -1.1254 C.3     1  UNL1        0.0517
     10 C          -4.0650   -0.1444    0.0757 C.3     1  UNL1       -0.0292
     11 C          -3.8552   -0.8987    1.3354 C.3     1  UNL1       -0.0393
     12 C          -2.5072   -0.8833    1.9397 C.3     1  UNL1       -0.0502
     13 C          -2.6501   -0.6541    3.4515 C.3     1  UNL1       -0.0528
     14 C          -3.6465   -1.5979    4.0778 C.3     1  UNL1       -0.0530
     15 C          -4.9934   -1.5239    3.4002 C.3     1  UNL1       -0.0528
     16 C          -4.9587   -0.4737    2.3141 C.3     1  UNL1       -0.0502
     17 N          -1.9060   -0.8234   -0.8775 N.am    1  UNL1       -0.3084
     18 C          -1.2568   -2.0787   -0.8783 C.2     1  UNL1        0.2340
     19 O          -2.0200   -3.0635   -1.1373 O.2     1  UNL1       -0.2738
     20 C           0.1550   -2.3289   -0.6183 C.3     1  UNL1        0.1047
     21 C           0.4101   -3.2575    0.5615 C.3     1  UNL1        0.0160
     22 C          -0.1906   -4.5881    0.3927 C.ar    1  UNL1        0.0375
     23 C          -1.4492   -4.9598    0.7839 C.ar    1  UNL1        0.0485
     24 N          -1.6440   -6.2703    0.4594 N.ar    1  UNL1       -0.2440
     25 C          -0.5073   -6.7038   -0.1302 C.ar    1  UNL1        0.0935
     26 N           0.3740   -5.6642   -0.1648 N.ar    1  UNL1       -0.3481
     27 N           0.9195   -1.1320   -0.3390 N.am    1  UNL1       -0.3023
     28 C           2.1521   -0.8317   -0.9817 C.2     1  UNL1        0.2326
     29 O           2.5489   -1.6869   -1.8214 O.2     1  UNL1       -0.2740
     30 C           2.9279    0.4039   -0.6891 C.3     1  UNL1        0.1097
     31 C           2.1124    1.5412   -1.3242 C.3     1  UNL1       -0.0021
     32 C           2.7467    2.8587   -1.1268 C.ar    1  UNL1       -0.0454
     33 C           2.4683    3.6365   -0.0317 C.ar    1  UNL1       -0.0585
     34 C           3.0751    4.8659    0.1327 C.ar    1  UNL1       -0.0615
     35 C           3.9728    5.3299   -0.8062 C.ar    1  UNL1       -0.0617
     36 C           4.2583    4.5554   -1.9090 C.ar    1  UNL1       -0.0615
     37 C           3.6494    3.3406   -2.0574 C.ar    1  UNL1       -0.0585
     38 N           4.1429    0.3258   -1.4776 N.3     1  UNL1       -0.1675
     39 S           5.5547    0.5264   -0.5221 S.O2    1  UNL1        0.0978
     40 O           6.7388    0.5341   -1.4631 O.2     1  UNL1       -0.1411
     41 O           5.5117    1.8688    0.1492 O.2     1  UNL1       -0.1411
     42 N           5.7369   -0.6658    0.6690 N.3     1  UNL1       -0.1622
     43 C           5.8665   -2.0052    0.1932 C.3     1  UNL1        0.0450
     44 C           6.3888   -2.9769    1.1898 C.3     1  UNL1        0.0621
     45 O           6.0763   -2.5009    2.4761 O.3     1  UNL1       -0.3771
     46 C           6.9200   -1.4105    2.6885 C.3     1  UNL1        0.0621
     47 C           6.6471   -0.2996    1.7116 C.3     1  UNL1        0.0450
     48 H          -3.4659    5.3070   -0.6731 H       1  UNL1        0.0232
     49 H          -3.5382    3.9965    0.6208 H       1  UNL1        0.0232
     50 H          -5.0210    4.7511   -0.0036 H       1  UNL1        0.0232
     51 H          -4.9271    2.6493   -0.9598 H       1  UNL1        0.0296
     52 H          -5.6191    4.6155   -2.1799 H       1  UNL1        0.0232
     53 H          -5.1570    3.3242   -3.2957 H       1  UNL1        0.0232
     54 H          -4.0622    4.7859   -2.9910 H       1  UNL1        0.0232
     55 H          -2.1898    3.4383   -1.9860 H       1  UNL1        0.0293
     56 H          -2.3681    2.3309   -0.6688 H       1  UNL1        0.0293
     57 H          -1.8134    1.2780   -2.8153 H       1  UNL1        0.0620
     58 H          -2.8749    2.8791   -4.0728 H       1  UNL1        0.2099
     59 H          -3.4414   -0.4684   -3.2217 H       1  UNL1        0.0638
     60 H          -5.2656    0.9306   -3.1324 H       1  UNL1        0.2100
     61 H          -3.6985   -1.5796   -1.3749 H       1  UNL1        0.0525
     62 H          -3.9536    0.9346    0.3371 H       1  UNL1        0.0287
     63 H          -5.1496   -0.3474   -0.2110 H       1  UNL1        0.0287
     64 H          -4.1260   -1.9757    1.1002 H       1  UNL1        0.0301
     65 H          -2.0221   -1.8872    1.8725 H       1  UNL1        0.0268
     66 H          -1.8499   -0.0721    1.5619 H       1  UNL1        0.0268
     67 H          -2.9853    0.3769    3.6417 H       1  UNL1        0.0265
     68 H          -1.6660   -0.8470    3.9384 H       1  UNL1        0.0265
     69 H          -3.2671   -2.6200    4.1954 H       1  UNL1        0.0265
     70 H          -3.7690   -1.2192    5.1379 H       1  UNL1        0.0265
     71 H          -5.7773   -1.2747    4.1410 H       1  UNL1        0.0265
     72 H          -5.2216   -2.5073    2.9410 H       1  UNL1        0.0265
     73 H          -5.9136   -0.4165    1.7584 H       1  UNL1        0.0268
     74 H          -4.7703    0.5379    2.7117 H       1  UNL1        0.0268
     75 H          -1.2657    0.0048   -0.6793 H       1  UNL1        0.1491
     76 H           0.5701   -2.8933   -1.4846 H       1  UNL1        0.0598
     77 H           1.5256   -3.4383    0.6334 H       1  UNL1        0.0351
     78 H           0.1207   -2.8470    1.5271 H       1  UNL1        0.0351
     79 H          -2.2184   -4.3715    1.2729 H       1  UNL1        0.0848
     80 H          -0.3267   -7.6965   -0.5079 H       1  UNL1        0.1027
     81 H           1.3294   -5.7631   -0.5786 H       1  UNL1        0.1665
     82 H           0.5699   -0.4445    0.3607 H       1  UNL1        0.1495
     83 H           3.0814    0.5804    0.3734 H       1  UNL1        0.0576
     84 H           1.0901    1.5847   -0.9263 H       1  UNL1        0.0334
     85 H           2.0236    1.3752   -2.4157 H       1  UNL1        0.0334
     86 H           1.7567    3.2774    0.7200 H       1  UNL1        0.0620
     87 H           2.8373    5.4661    1.0123 H       1  UNL1        0.0618
     88 H           4.4668    6.3056   -0.6933 H       1  UNL1        0.0618
     89 H           4.9763    4.9482   -2.6410 H       1  UNL1        0.0618
     90 H           3.9012    2.7559   -2.9450 H       1  UNL1        0.0620
     91 H           4.1700   -0.4865   -2.1018 H       1  UNL1        0.1500
     92 H           6.5692   -2.0370   -0.6929 H       1  UNL1        0.0467
     93 H           4.8991   -2.3678   -0.2074 H       1  UNL1        0.0467
     94 H           7.4723   -3.1936    1.0934 H       1  UNL1        0.0573
     95 H           5.8620   -3.9439    1.0654 H       1  UNL1        0.0573
     96 H           7.9815   -1.7292    2.6889 H       1  UNL1        0.0573
     97 H           6.6968   -1.0391    3.7089 H       1  UNL1        0.0573
     98 H           6.2827    0.6022    2.2375 H       1  UNL1        0.0467
     99 H           7.6183   -0.0193    1.2516 H       1  UNL1        0.0467
@<TRIPOS>BOND
     1     1     2    1
     2     2     3    1
     3     2     4    1
     4     4     5    1
     5     5     6    1
     6     5     7    1
     7     7     8    1
     8     7     9    1
     9     9    10    1
    10    10    11    1
    11    11    12    1
    12    12    13    1
    13    13    14    1
    14    14    15    1
    15    15    16    1
    16     9    17    1
    17    17    18   am
    18    18    19    2
    19    18    20    1
    20    20    21    1
    21    21    22    1
    22    22    23   ar
    23    23    24   ar
    24    24    25   ar
    25    25    26   ar
    26    20    27    1
    27    27    28   am
    28    28    29    2
    29    28    30    1
    30    30    31    1
    31    31    32    1
    32    32    33   ar
    33    33    34   ar
    34    34    35   ar
    35    35    36   ar
    36    36    37   ar
    37    30    38    1
    38    38    39    1
    39    39    40    2
    40    39    41    2
    41    39    42    1
    42    42    43    1
    43    43    44    1
    44    44    45    1
    45    45    46    1
    46    46    47    1
    47    16    11    1
    48    26    22   ar
    49    37    32   ar
    50    47    42    1
    51     1    48    1
    52     1    49    1
    53     1    50    1
    54     2    51    1
    55     3    52    1
    56     3    53    1
    57     3    54    1
    58     4    55    1
    59     4    56    1
    60     5    57    1
    61     6    58    1
    62     7    59    1
    63     8    60    1
    64     9    61    1
    65    10    62    1
    66    10    63    1
    67    11    64    1
    68    12    65    1
    69    12    66    1
    70    13    67    1
    71    13    68    1
    72    14    69    1
    73    14    70    1
    74    15    71    1
    75    15    72    1
    76    16    73    1
    77    16    74    1
    78    17    75    1
    79    20    76    1
    80    21    77    1
    81    21    78    1
    82    23    79    1
    83    25    80    1
    84    26    81    1
    85    27    82    1
    86    30    83    1
    87    31    84    1
    88    31    85    1
    89    33    86    1
    90    34    87    1
    91    35    88    1
    92    36    89    1
    93    37    90    1
    94    38    91    1
    95    43    92    1
    96    43    93    1
    97    44    94    1
    98    44    95    1
    99    46    96    1
   100    46    97    1
   101    47    98    1
   102    47    99    1
