
     RDKit          3D

 99102  0  0  0  0  0  0  0  0999 V2000
   -3.9954    4.4215   -0.2884 C   0  0  0  0  0  0  0  0  0  0  0  0
   -4.1558    3.3420   -1.3458 C   0  0  0  0  0  0  0  0  0  0  0  0
   -4.7558    4.0141   -2.5491 C   0  0  0  0  0  0  0  0  0  0  0  0
   -2.8824    2.6079   -1.6052 C   0  0  0  0  0  0  0  0  0  0  0  0
   -2.9054    1.5368   -2.6006 C   0  0  2  0  0  0  0  0  0  0  0  0
   -3.2925    2.0252   -3.8834 O   0  0  0  0  0  0  0  0  0  0  0  0
   -3.5681    0.2564   -2.3396 C   0  0  2  0  0  0  0  0  0  0  0  0
   -4.9565    0.4234   -2.3525 O   0  0  0  0  0  0  0  0  0  0  0  0
   -3.2690   -0.5415   -1.1254 C   0  0  2  0  0  0  0  0  0  0  0  0
   -4.0650   -0.1444    0.0757 C   0  0  0  0  0  0  0  0  0  0  0  0
   -3.8552   -0.8987    1.3354 C   0  0  0  0  0  0  0  0  0  0  0  0
   -2.5072   -0.8833    1.9397 C   0  0  0  0  0  0  0  0  0  0  0  0
   -2.6501   -0.6541    3.4515 C   0  0  0  0  0  0  0  0  0  0  0  0
   -3.6465   -1.5979    4.0778 C   0  0  0  0  0  0  0  0  0  0  0  0
   -4.9934   -1.5239    3.4002 C   0  0  0  0  0  0  0  0  0  0  0  0
   -4.9587   -0.4737    2.3141 C   0  0  0  0  0  0  0  0  0  0  0  0
   -1.9060   -0.8234   -0.8775 N   0  0  0  0  0  0  0  0  0  0  0  0
   -1.2568   -2.0787   -0.8783 C   0  0  0  0  0  0  0  0  0  0  0  0
   -2.0200   -3.0635   -1.1373 O   0  0  0  0  0  0  0  0  0  0  0  0
    0.1550   -2.3289   -0.6183 C   0  0  2  0  0  0  0  0  0  0  0  0
    0.4101   -3.2575    0.5615 C   0  0  0  0  0  0  0  0  0  0  0  0
   -0.1906   -4.5881    0.3927 C   0  0  0  0  0  0  0  0  0  0  0  0
   -1.4492   -4.9598    0.7839 C   0  0  0  0  0  0  0  0  0  0  0  0
   -1.6440   -6.2703    0.4594 N   0  0  0  0  0  0  0  0  0  0  0  0
   -0.5073   -6.7038   -0.1302 C   0  0  0  0  0  0  0  0  0  0  0  0
    0.3740   -5.6642   -0.1648 N   0  0  0  0  0  0  0  0  0  0  0  0
    0.9195   -1.1320   -0.3390 N   0  0  0  0  0  0  0  0  0  0  0  0
    2.1521   -0.8317   -0.9817 C   0  0  0  0  0  0  0  0  0  0  0  0
    2.5489   -1.6869   -1.8214 O   0  0  0  0  0  0  0  0  0  0  0  0
    2.9279    0.4039   -0.6891 C   0  0  2  0  0  0  0  0  0  0  0  0
    2.1124    1.5412   -1.3242 C   0  0  0  0  0  0  0  0  0  0  0  0
    2.7467    2.8587   -1.1268 C   0  0  0  0  0  0  0  0  0  0  0  0
    2.4683    3.6365   -0.0317 C   0  0  0  0  0  0  0  0  0  0  0  0
    3.0751    4.8659    0.1327 C   0  0  0  0  0  0  0  0  0  0  0  0
    3.9728    5.3299   -0.8062 C   0  0  0  0  0  0  0  0  0  0  0  0
    4.2583    4.5554   -1.9090 C   0  0  0  0  0  0  0  0  0  0  0  0
    3.6494    3.3406   -2.0574 C   0  0  0  0  0  0  0  0  0  0  0  0
    4.1429    0.3258   -1.4776 N   0  0  0  0  0  0  0  0  0  0  0  0
    5.5547    0.5264   -0.5221 S   0  0  0  0  0  6  0  0  0  0  0  0
    6.7388    0.5341   -1.4631 O   0  0  0  0  0  0  0  0  0  0  0  0
    5.5117    1.8688    0.1492 O   0  0  0  0  0  0  0  0  0  0  0  0
    5.7369   -0.6658    0.6690 N   0  0  0  0  0  0  0  0  0  0  0  0
    5.8665   -2.0052    0.1932 C   0  0  0  0  0  0  0  0  0  0  0  0
    6.3888   -2.9769    1.1898 C   0  0  0  0  0  0  0  0  0  0  0  0
    6.0763   -2.5009    2.4761 O   0  0  0  0  0  0  0  0  0  0  0  0
    6.9200   -1.4105    2.6885 C   0  0  0  0  0  0  0  0  0  0  0  0
    6.6471   -0.2996    1.7116 C   0  0  0  0  0  0  0  0  0  0  0  0
   -3.4659    5.3070   -0.6731 H   0  0  0  0  0  0  0  0  0  0  0  0
   -3.5382    3.9965    0.6208 H   0  0  0  0  0  0  0  0  0  0  0  0
   -5.0210    4.7511   -0.0036 H   0  0  0  0  0  0  0  0  0  0  0  0
   -4.9271    2.6493   -0.9598 H   0  0  0  0  0  0  0  0  0  0  0  0
   -5.6191    4.6155   -2.1799 H   0  0  0  0  0  0  0  0  0  0  0  0
   -5.1570    3.3242   -3.2957 H   0  0  0  0  0  0  0  0  0  0  0  0
   -4.0622    4.7859   -2.9910 H   0  0  0  0  0  0  0  0  0  0  0  0
   -2.1898    3.4383   -1.9860 H   0  0  0  0  0  0  0  0  0  0  0  0
   -2.3681    2.3309   -0.6688 H   0  0  0  0  0  0  0  0  0  0  0  0
   -1.8134    1.2780   -2.8153 H   0  0  0  0  0  0  0  0  0  0  0  0
   -2.8749    2.8791   -4.0728 H   0  0  0  0  0  0  0  0  0  0  0  0
   -3.4414   -0.4684   -3.2217 H   0  0  0  0  0  0  0  0  0  0  0  0
   -5.2656    0.9306   -3.1324 H   0  0  0  0  0  0  0  0  0  0  0  0
   -3.6985   -1.5796   -1.3749 H   0  0  0  0  0  0  0  0  0  0  0  0
   -3.9536    0.9346    0.3371 H   0  0  0  0  0  0  0  0  0  0  0  0
   -5.1496   -0.3474   -0.2110 H   0  0  0  0  0  0  0  0  0  0  0  0
   -4.1260   -1.9757    1.1002 H   0  0  0  0  0  0  0  0  0  0  0  0
   -2.0221   -1.8872    1.8725 H   0  0  0  0  0  0  0  0  0  0  0  0
   -1.8499   -0.0721    1.5619 H   0  0  0  0  0  0  0  0  0  0  0  0
   -2.9853    0.3769    3.6417 H   0  0  0  0  0  0  0  0  0  0  0  0
   -1.6660   -0.8470    3.9384 H   0  0  0  0  0  0  0  0  0  0  0  0
   -3.2671   -2.6200    4.1954 H   0  0  0  0  0  0  0  0  0  0  0  0
   -3.7690   -1.2192    5.1379 H   0  0  0  0  0  0  0  0  0  0  0  0
   -5.7773   -1.2747    4.1410 H   0  0  0  0  0  0  0  0  0  0  0  0
   -5.2216   -2.5073    2.9410 H   0  0  0  0  0  0  0  0  0  0  0  0
   -5.9136   -0.4165    1.7584 H   0  0  0  0  0  0  0  0  0  0  0  0
   -4.7703    0.5379    2.7117 H   0  0  0  0  0  0  0  0  0  0  0  0
   -1.2657    0.0048   -0.6793 H   0  0  0  0  0  0  0  0  0  0  0  0
    0.5701   -2.8933   -1.4846 H   0  0  0  0  0  0  0  0  0  0  0  0
    1.5256   -3.4383    0.6334 H   0  0  0  0  0  0  0  0  0  0  0  0
    0.1207   -2.8470    1.5271 H   0  0  0  0  0  0  0  0  0  0  0  0
   -2.2184   -4.3715    1.2729 H   0  0  0  0  0  0  0  0  0  0  0  0
   -0.3267   -7.6965   -0.5079 H   0  0  0  0  0  0  0  0  0  0  0  0
    1.3294   -5.7631   -0.5786 H   0  0  0  0  0  0  0  0  0  0  0  0
    0.5699   -0.4445    0.3607 H   0  0  0  0  0  0  0  0  0  0  0  0
    3.0814    0.5804    0.3734 H   0  0  0  0  0  0  0  0  0  0  0  0
    1.0901    1.5847   -0.9263 H   0  0  0  0  0  0  0  0  0  0  0  0
    2.0236    1.3752   -2.4157 H   0  0  0  0  0  0  0  0  0  0  0  0
    1.7567    3.2774    0.7200 H   0  0  0  0  0  0  0  0  0  0  0  0
    2.8373    5.4661    1.0123 H   0  0  0  0  0  0  0  0  0  0  0  0
    4.4668    6.3056   -0.6933 H   0  0  0  0  0  0  0  0  0  0  0  0
    4.9763    4.9482   -2.6410 H   0  0  0  0  0  0  0  0  0  0  0  0
    3.9012    2.7559   -2.9450 H   0  0  0  0  0  0  0  0  0  0  0  0
    4.1700   -0.4865   -2.1018 H   0  0  0  0  0  0  0  0  0  0  0  0
    6.5692   -2.0370   -0.6929 H   0  0  0  0  0  0  0  0  0  0  0  0
    4.8991   -2.3678   -0.2074 H   0  0  0  0  0  0  0  0  0  0  0  0
    7.4723   -3.1936    1.0934 H   0  0  0  0  0  0  0  0  0  0  0  0
    5.8620   -3.9439    1.0654 H   0  0  0  0  0  0  0  0  0  0  0  0
    7.9815   -1.7292    2.6889 H   0  0  0  0  0  0  0  0  0  0  0  0
    6.6968   -1.0391    3.7089 H   0  0  0  0  0  0  0  0  0  0  0  0
    6.2827    0.6022    2.2375 H   0  0  0  0  0  0  0  0  0  0  0  0
    7.6183   -0.0193    1.2516 H   0  0  0  0  0  0  0  0  0  0  0  0
  1  2  1  0
  2  3  1  0
  2  4  1  0
  4  5  1  0
  5  6  1  0
  5  7  1  0
  7  8  1  0
  7  9  1  0
  9 10  1  0
 10 11  1  0
 11 12  1  0
 12 13  1  0
 13 14  1  0
 14 15  1  0
 15 16  1  0
  9 17  1  0
 17 18  1  0
 18 19  2  0
 18 20  1  0
 20 21  1  0
 21 22  1  0
 22 23  2  0
 23 24  1  0
 24 25  2  0
 25 26  1  0
 20 27  1  0
 27 28  1  0
 28 29  2  0
 28 30  1  0
 30 31  1  0
 31 32  1  0
 32 33  2  0
 33 34  1  0
 34 35  2  0
 35 36  1  0
 36 37  2  0
 30 38  1  0
 38 39  1  0
 39 40  2  0
 39 41  2  0
 39 42  1  0
 42 43  1  0
 43 44  1  0
 44 45  1  0
 45 46  1  0
 46 47  1  0
 16 11  1  0
 26 22  1  0
 37 32  1  0
 47 42  1  0
  1 48  1  0
  1 49  1  0
  1 50  1  0
  2 51  1  0
  3 52  1  0
  3 53  1  0
  3 54  1  0
  4 55  1  0
  4 56  1  0
  5 57  1  6
  6 58  1  0
  7 59  1  6
  8 60  1  0
  9 61  1  6
 10 62  1  0
 10 63  1  0
 11 64  1  0
 12 65  1  0
 12 66  1  0
 13 67  1  0
 13 68  1  0
 14 69  1  0
 14 70  1  0
 15 71  1  0
 15 72  1  0
 16 73  1  0
 16 74  1  0
 17 75  1  0
 20 76  1  6
 21 77  1  0
 21 78  1  0
 23 79  1  0
 25 80  1  0
 26 81  1  0
 27 82  1  0
 30 83  1  1
 31 84  1  0
 31 85  1  0
 33 86  1  0
 34 87  1  0
 35 88  1  0
 36 89  1  0
 37 90  1  0
 38 91  1  0
 43 92  1  0
 43 93  1  0
 44 94  1  0
 44 95  1  0
 46 96  1  0
 46 97  1  0
 47 98  1  0
 47 99  1  0
M  END
$$$$
