@<TRIPOS>MOLECULE
*****
 59 64 0 0 0
SMALL
GASTEIGER

@<TRIPOS>ATOM
      1 C           3.5557   -0.4191    3.2759 C.3     1  UNL1        0.0789
      2 O           3.3990   -0.1641    1.8889 O.3     1  UNL1       -0.4930
      3 C           4.2153   -0.7768    0.9686 C.ar    1  UNL1        0.1454
      4 C           5.2189   -1.6643    1.3628 C.ar    1  UNL1       -0.0178
      5 C           6.0356   -2.2767    0.4340 C.ar    1  UNL1       -0.0582
      6 C           5.8698   -2.0176   -0.9108 C.ar    1  UNL1       -0.0595
      7 C           4.8772   -1.1418   -1.2781 C.ar    1  UNL1       -0.0327
      8 C           4.0411   -0.5109   -0.3722 C.ar    1  UNL1        0.1077
      9 N           3.0467    0.3767   -0.8600 N.ar    1  UNL1       -0.2235
     10 N           3.1978    1.4931   -1.5286 N.ar    1  UNL1       -0.1705
     11 C           2.0436    2.0663   -1.8236 C.ar    1  UNL1        0.0664
     12 C           1.7471    3.3214   -2.5569 C.3     1  UNL1       -0.0202
     13 C           1.0464    1.2483   -1.2991 C.ar    1  UNL1        0.0310
     14 C           1.6986    0.2043   -0.7049 C.ar    1  UNL1        0.1352
     15 C           0.7149   -0.6955   -0.1315 C.2     1  UNL1        0.2705
     16 O           1.0118   -1.7559    0.4864 O.2     1  UNL1       -0.2679
     17 N          -0.5640   -0.1529   -0.4031 N.am    1  UNL1       -0.2530
     18 C          -1.7739   -0.7976    0.0293 C.ar    1  UNL1        0.0545
     19 C          -2.3596   -0.5435    1.2388 C.ar    1  UNL1       -0.0324
     20 C          -3.5394   -1.2087    1.5960 C.ar    1  UNL1       -0.0041
     21 C          -4.1831   -0.9465    2.8956 C.3     1  UNL1       -0.0361
     22 C          -4.0700   -2.1053    0.7013 C.ar    1  UNL1        0.1641
     23 N          -5.1836   -2.8816    0.7762 N.ar    1  UNL1       -0.1292
     24 N          -5.2849   -3.5837   -0.3326 N.ar    1  UNL1       -0.1340
     25 C          -4.2490   -3.2727   -1.1285 C.ar    1  UNL1        0.1347
     26 C          -3.9591   -3.8217   -2.4751 C.3     1  UNL1       -0.0041
     27 N          -3.4972   -2.3608   -0.4941 N.ar    1  UNL1       -0.2846
     28 C          -2.3578   -1.7060   -0.8170 C.ar    1  UNL1        0.0344
     29 C          -0.4079    1.0556   -1.1284 C.3     1  UNL1        0.0881
     30 C          -1.0534    2.2246   -0.5088 C.ar    1  UNL1        0.0131
     31 C          -0.6398    2.7253    0.6909 C.ar    1  UNL1       -0.0523
     32 C          -1.2561    3.8244    1.2606 C.ar    1  UNL1       -0.0429
     33 C          -2.3077    4.4337    0.6151 C.ar    1  UNL1        0.0437
     34 CL         -3.1080    5.8322    1.3179 Cl      1  UNL1       -0.0835
     35 C          -2.7434    3.9483   -0.5950 C.ar    1  UNL1       -0.0078
     36 C          -2.1038    2.8373   -1.1483 C.ar    1  UNL1        0.1300
     37 F          -2.5781    2.4067   -2.3410 F       1  UNL1       -0.2051
     38 H           4.5698   -0.0822    3.5993 H       1  UNL1        0.0660
     39 H           3.4485   -1.5056    3.4368 H       1  UNL1        0.0660
     40 H           2.8251    0.1842    3.8259 H       1  UNL1        0.0660
     41 H           5.3794   -1.8930    2.4117 H       1  UNL1        0.0655
     42 H           6.8087   -2.9618    0.7540 H       1  UNL1        0.0619
     43 H           6.4942   -2.4814   -1.6720 H       1  UNL1        0.0618
     44 H           4.7415   -0.9336   -2.3366 H       1  UNL1        0.0640
     45 H           1.1503    3.1159   -3.4781 H       1  UNL1        0.0293
     46 H           1.2302    4.0732   -1.9374 H       1  UNL1        0.0293
     47 H           2.7235    3.7672   -2.9045 H       1  UNL1        0.0293
     48 H          -1.9083    0.1700    1.9131 H       1  UNL1        0.0640
     49 H          -3.7351   -0.0474    3.3523 H       1  UNL1        0.0279
     50 H          -4.0986   -1.8336    3.5881 H       1  UNL1        0.0279
     51 H          -5.2726   -0.7104    2.7694 H       1  UNL1        0.0279
     52 H          -3.6888   -3.0367   -3.2082 H       1  UNL1        0.0308
     53 H          -3.1540   -4.5738   -2.4299 H       1  UNL1        0.0308
     54 H          -4.8941   -4.3126   -2.8512 H       1  UNL1        0.0308
     55 H          -1.9345   -1.9479   -1.7941 H       1  UNL1        0.0833
     56 H          -0.8899    0.8618   -2.1441 H       1  UNL1        0.0607
     57 H           0.1901    2.2820    1.2485 H       1  UNL1        0.0622
     58 H          -0.9137    4.2206    2.2305 H       1  UNL1        0.0632
     59 H          -3.5715    4.4504   -1.0745 H       1  UNL1        0.0661
@<TRIPOS>BOND
     1     1     2    1
     2     2     3    1
     3     3     4   ar
     4     4     5   ar
     5     5     6   ar
     6     6     7   ar
     7     7     8   ar
     8     8     9    1
     9     9    10   ar
    10    10    11   ar
    11    11    12    1
    12    11    13   ar
    13    13    14   ar
    14    14    15    1
    15    15    16    2
    16    15    17   am
    17    17    18    1
    18    18    19   ar
    19    19    20   ar
    20    20    21    1
    21    20    22   ar
    22    22    23   ar
    23    23    24   ar
    24    24    25   ar
    25    25    26    1
    26    25    27   ar
    27    27    28   ar
    28    17    29    1
    29    29    30    1
    30    30    31   ar
    31    31    32   ar
    32    32    33   ar
    33    33    34    1
    34    33    35   ar
    35    35    36   ar
    36    36    37    1
    37     8     3   ar
    38    14     9   ar
    39    28    18   ar
    40    36    30   ar
    41    29    13    1
    42    27    22   ar
    43     1    38    1
    44     1    39    1
    45     1    40    1
    46     4    41    1
    47     5    42    1
    48     6    43    1
    49     7    44    1
    50    12    45    1
    51    12    46    1
    52    12    47    1
    53    19    48    1
    54    21    49    1
    55    21    50    1
    56    21    51    1
    57    26    52    1
    58    26    53    1
    59    26    54    1
    60    28    55    1
    61    29    56    1
    62    31    57    1
    63    32    58    1
    64    35    59    1
