@<TRIPOS>MOLECULE
*****
 69 71 0 0 0
SMALL
GASTEIGER

@<TRIPOS>ATOM
      1 C           7.9455    0.7499    0.3543 C.3     1  UNL1       -0.0130
      2 N           6.9539    0.6131   -0.6635 N.3     1  UNL1       -0.3069
      3 C           7.4987    1.0435   -1.9157 C.3     1  UNL1       -0.0130
      4 C           6.2765   -0.6188   -0.7499 C.3     1  UNL1        0.0141
      5 C           5.3056   -0.9950    0.3042 C.3     1  UNL1        0.0275
      6 N           4.1579   -0.1514    0.4537 N.am    1  UNL1       -0.2987
      7 C           3.0174   -0.4392   -0.3775 C.3     1  UNL1        0.0305
      8 C           1.8087   -0.9191    0.4005 C.3     1  UNL1        0.0308
      9 N           1.2430   -0.0058    1.3384 N.am    1  UNL1       -0.2955
     10 C          -0.1408    0.1954    1.3958 C.2     1  UNL1        0.2490
     11 O          -0.5123    1.1366    2.1984 O.2     1  UNL1       -0.2699
     12 C          -1.2158   -0.5297    0.6560 C.ar    1  UNL1        0.0657
     13 C          -1.1449   -1.8280    0.2880 C.ar    1  UNL1       -0.0370
     14 C          -2.2084   -2.4056   -0.2933 C.ar    1  UNL1       -0.0023
     15 C          -2.4264   -3.7889   -0.8000 C.3     1  UNL1       -0.0064
     16 C          -1.1621   -4.5531   -0.5606 C.3     1  UNL1       -0.0556
     17 C          -3.5222   -4.4574    0.0144 C.3     1  UNL1       -0.0556
     18 C          -2.8386   -3.7712   -2.2462 C.3     1  UNL1       -0.0556
     19 S          -3.4357   -1.1283   -0.3693 S.2     1  UNL1       -0.0771
     20 C          -2.3727    0.1390    0.4216 C.ar    1  UNL1        0.0853
     21 N          -2.8026    1.4547    0.6584 N.am    1  UNL1       -0.2629
     22 C          -4.1224    1.8235    0.2820 C.2     1  UNL1        0.3085
     23 O          -4.9111    1.0022   -0.2545 O.2     1  UNL1       -0.2521
     24 N          -4.6223    3.1481    0.4937 N.am    1  UNL1       -0.2678
     25 C          -5.9499    3.4710    0.1013 C.ar    1  UNL1        0.0546
     26 C          -6.9695    3.3015    1.0037 C.ar    1  UNL1       -0.0389
     27 C          -8.2871    3.6025    0.6699 C.ar    1  UNL1       -0.0585
     28 C          -8.4971    4.0787   -0.6185 C.ar    1  UNL1       -0.0419
     29 C          -7.4781    4.2481   -1.5210 C.ar    1  UNL1        0.0610
     30 CL         -7.7808    4.8463   -3.1216 Cl      1  UNL1       -0.0820
     31 C          -6.1872    3.9408   -1.1582 C.ar    1  UNL1        0.0804
     32 CL         -4.8950    4.1532   -2.2947 Cl      1  UNL1       -0.0801
     33 C           1.9411    0.7419    2.3741 C.3     1  UNL1        0.0233
     34 C           2.9567    1.7016    1.8551 C.3     1  UNL1        0.0399
     35 C           4.1739    0.9283    1.3835 C.2     1  UNL1        0.2171
     36 O           5.2493    1.2579    1.8397 O.2     1  UNL1       -0.2755
     37 H           7.7722    1.7401    0.8637 H       1  UNL1        0.0391
     38 H           7.8726   -0.0053    1.1675 H       1  UNL1        0.0391
     39 H           8.9813    0.8321   -0.0541 H       1  UNL1        0.0391
     40 H           8.5131    0.6484   -2.1166 H       1  UNL1        0.0391
     41 H           7.5649    2.1561   -1.9011 H       1  UNL1        0.0391
     42 H           6.8055    0.7339   -2.7218 H       1  UNL1        0.0391
     43 H           5.7615   -0.6505   -1.7574 H       1  UNL1        0.0442
     44 H           7.0761   -1.4204   -0.8549 H       1  UNL1        0.0442
     45 H           4.9193   -2.0253    0.0218 H       1  UNL1        0.0477
     46 H           5.7858   -1.1832    1.2982 H       1  UNL1        0.0477
     47 H           3.3354   -1.1919   -1.1317 H       1  UNL1        0.0480
     48 H           2.6916    0.5112   -0.8817 H       1  UNL1        0.0480
     49 H           1.9735   -1.9148    0.8340 H       1  UNL1        0.0480
     50 H           0.9977   -1.0276   -0.4079 H       1  UNL1        0.0480
     51 H          -0.2529   -2.4854    0.4828 H       1  UNL1        0.0634
     52 H          -1.1818   -5.5776   -1.0095 H       1  UNL1        0.0238
     53 H          -0.9394   -4.5672    0.5179 H       1  UNL1        0.0238
     54 H          -0.3178   -4.0259   -1.0899 H       1  UNL1        0.0238
     55 H          -4.5135   -4.2566   -0.4542 H       1  UNL1        0.0238
     56 H          -3.3685   -5.5690   -0.0332 H       1  UNL1        0.0238
     57 H          -3.5551   -4.0808    1.0517 H       1  UNL1        0.0238
     58 H          -3.4758   -4.6654   -2.4188 H       1  UNL1        0.0238
     59 H          -3.4563   -2.8583   -2.4093 H       1  UNL1        0.0238
     60 H          -1.9578   -3.8167   -2.9156 H       1  UNL1        0.0238
     61 H          -2.2321    2.2002    1.0911 H       1  UNL1        0.1569
     62 H          -3.9836    3.8433    0.9361 H       1  UNL1        0.1564
     63 H          -6.7953    2.9262    2.0160 H       1  UNL1        0.0637
     64 H          -9.0906    3.4711    1.3765 H       1  UNL1        0.0619
     65 H          -9.5311    4.3137   -0.8778 H       1  UNL1        0.0633
     66 H           1.2423    1.2966    3.0327 H       1  UNL1        0.0469
     67 H           2.4740    0.0216    3.0579 H       1  UNL1        0.0469
     68 H           3.3054    2.3220    2.7008 H       1  UNL1        0.0374
     69 H           2.5342    2.3190    1.0449 H       1  UNL1        0.0374
@<TRIPOS>BOND
     1     1     2    1
     2     2     3    1
     3     2     4    1
     4     4     5    1
     5     5     6    1
     6     6     7    1
     7     7     8    1
     8     8     9    1
     9     9    10   am
    10    10    11    2
    11    10    12    1
    12    12    13   ar
    13    13    14   ar
    14    14    15    1
    15    15    16    1
    16    15    17    1
    17    15    18    1
    18    14    19   ar
    19    19    20   ar
    20    20    21    1
    21    21    22   am
    22    22    23    2
    23    22    24   am
    24    24    25    1
    25    25    26   ar
    26    26    27   ar
    27    27    28   ar
    28    28    29   ar
    29    29    30    1
    30    29    31   ar
    31    31    32    1
    32     9    33    1
    33    33    34    1
    34    34    35    1
    35    35    36    2
    36    35     6   am
    37    20    12   ar
    38    31    25   ar
    39     1    37    1
    40     1    38    1
    41     1    39    1
    42     3    40    1
    43     3    41    1
    44     3    42    1
    45     4    43    1
    46     4    44    1
    47     5    45    1
    48     5    46    1
    49     7    47    1
    50     7    48    1
    51     8    49    1
    52     8    50    1
    53    13    51    1
    54    16    52    1
    55    16    53    1
    56    16    54    1
    57    17    55    1
    58    17    56    1
    59    17    57    1
    60    18    58    1
    61    18    59    1
    62    18    60    1
    63    21    61    1
    64    24    62    1
    65    26    63    1
    66    27    64    1
    67    28    65    1
    68    33    66    1
    69    33    67    1
    70    34    68    1
    71    34    69    1
