
     RDKit          3D

 36 38  0  0  0  0  0  0  0  0999 V2000
   -1.5904    1.7982   -0.6290 C   0  0  0  0  0  0  0  0  0  0  0  0
   -2.7167    0.9426   -0.4896 N   0  0  0  0  0  0  0  0  0  0  0  0
   -2.4283   -0.4732   -0.4843 C   0  0  0  0  0  0  0  0  0  0  0  0
   -1.7827   -0.9370   -1.7374 C   0  0  0  0  0  0  0  0  0  0  0  0
   -0.3091   -1.0408   -1.7072 C   0  0  0  0  0  0  0  0  0  0  0  0
    0.3212   -0.5636   -0.4802 N   0  0  0  0  0  0  0  0  0  0  0  0
    1.5543    0.1265   -0.4569 C   0  0  0  0  0  0  0  0  0  0  0  0
    2.4376   -0.0085   -1.5121 C   0  0  0  0  0  0  0  0  0  0  0  0
    3.6483    0.6601   -1.5444 C   0  0  0  0  0  0  0  0  0  0  0  0
    4.0148    1.4921   -0.5115 C   0  0  0  0  0  0  0  0  0  0  0  0
    5.5548    2.3553   -0.5277 Cl  0  0  0  0  0  0  0  0  0  0  0  0
    3.1513    1.6386    0.5438 C   0  0  0  0  0  0  0  0  0  0  0  0
    3.5751    2.6936    1.8945 Cl  0  0  0  0  0  0  0  0  0  0  0  0
    1.9389    0.9605    0.5614 C   0  0  0  0  0  0  0  0  0  0  0  0
   -0.3697   -0.8480    0.7389 C   0  0  0  0  0  0  0  0  0  0  0  0
    0.3652   -1.1544    1.8762 C   0  0  0  0  0  0  0  0  0  0  0  0
   -0.3364   -1.4246    3.0474 C   0  0  0  0  0  0  0  0  0  0  0  0
   -1.7229   -1.3931    3.0959 C   0  0  0  0  0  0  0  0  0  0  0  0
   -2.4173   -1.0864    1.9515 C   0  0  0  0  0  0  0  0  0  0  0  0
   -1.7549   -0.8122    0.7691 C   0  0  0  0  0  0  0  0  0  0  0  0
   -1.0565    1.5802   -1.5940 H   0  0  0  0  0  0  0  0  0  0  0  0
   -0.9183    1.8396    0.2339 H   0  0  0  0  0  0  0  0  0  0  0  0
   -1.9869    2.8493   -0.7522 H   0  0  0  0  0  0  0  0  0  0  0  0
   -3.3935    1.1462   -1.2648 H   0  0  0  0  0  0  0  0  0  0  0  0
   -3.4465   -0.9768   -0.4208 H   0  0  0  0  0  0  0  0  0  0  0  0
   -2.0619   -0.3179   -2.6251 H   0  0  0  0  0  0  0  0  0  0  0  0
   -2.1934   -1.9719   -1.9589 H   0  0  0  0  0  0  0  0  0  0  0  0
    0.1453   -0.4489   -2.5468 H   0  0  0  0  0  0  0  0  0  0  0  0
    0.0092   -2.1095   -1.8956 H   0  0  0  0  0  0  0  0  0  0  0  0
    2.1698   -0.6566   -2.3360 H   0  0  0  0  0  0  0  0  0  0  0  0
    4.3196    0.5362   -2.3800 H   0  0  0  0  0  0  0  0  0  0  0  0
    1.2629    1.1082    1.4156 H   0  0  0  0  0  0  0  0  0  0  0  0
    1.4612   -1.1801    1.8231 H   0  0  0  0  0  0  0  0  0  0  0  0
    0.2543   -1.6596    3.9180 H   0  0  0  0  0  0  0  0  0  0  0  0
   -2.2083   -1.6136    4.0419 H   0  0  0  0  0  0  0  0  0  0  0  0
   -3.4904   -1.0508    1.9434 H   0  0  0  0  0  0  0  0  0  0  0  0
  1  2  1  0
  2  3  1  0
  3  4  1  0
  4  5  1  0
  5  6  1  0
  6  7  1  0
  7  8  2  0
  8  9  1  0
  9 10  2  0
 10 11  1  0
 10 12  1  0
 12 13  1  0
 12 14  2  0
  6 15  1  0
 15 16  2  0
 16 17  1  0
 17 18  2  0
 18 19  1  0
 19 20  2  0
 20  3  1  0
 14  7  1  0
 20 15  1  0
  1 21  1  0
  1 22  1  0
  1 23  1  0
  2 24  1  0
  3 25  1  0
  4 26  1  0
  4 27  1  0
  5 28  1  0
  5 29  1  0
  8 30  1  0
  9 31  1  0
 14 32  1  0
 16 33  1  0
 17 34  1  0
 18 35  1  0
 19 36  1  0
M  END
$$$$
