@<TRIPOS>MOLECULE
*****
 36 38 0 0 0
SMALL
GASTEIGER

@<TRIPOS>ATOM
      1 C          -1.5904    1.7982   -0.6290 C.3     1  UNL1       -0.0152
      2 N          -2.7167    0.9426   -0.4896 N.3     1  UNL1       -0.3122
      3 C          -2.4283   -0.4732   -0.4843 C.3     1  UNL1        0.0358
      4 C          -1.7827   -0.9370   -1.7374 C.3     1  UNL1       -0.0172
      5 C          -0.3091   -1.0408   -1.7072 C.3     1  UNL1        0.0190
      6 N           0.3212   -0.5636   -0.4802 N.pl3   1  UNL1       -0.2997
      7 C           1.5543    0.1265   -0.4569 C.ar    1  UNL1        0.0354
      8 C           2.4376   -0.0085   -1.5121 C.ar    1  UNL1       -0.0389
      9 C           3.6483    0.6601   -1.5444 C.ar    1  UNL1       -0.0402
     10 C           4.0148    1.4921   -0.5115 C.ar    1  UNL1        0.0594
     11 CL          5.5548    2.3553   -0.5277 Cl      1  UNL1       -0.0820
     12 C           3.1513    1.6386    0.5438 C.ar    1  UNL1        0.0610
     13 CL          3.5751    2.6936    1.8945 Cl      1  UNL1       -0.0820
     14 C           1.9389    0.9605    0.5614 C.ar    1  UNL1       -0.0206
     15 C          -0.3697   -0.8480    0.7389 C.ar    1  UNL1        0.0386
     16 C           0.3652   -1.1544    1.8762 C.ar    1  UNL1       -0.0400
     17 C          -0.3364   -1.4246    3.0474 C.ar    1  UNL1       -0.0600
     18 C          -1.7229   -1.3931    3.0959 C.ar    1  UNL1       -0.0613
     19 C          -2.4173   -1.0864    1.9515 C.ar    1  UNL1       -0.0553
     20 C          -1.7549   -0.8122    0.7691 C.ar    1  UNL1       -0.0091
     21 H          -1.0565    1.5802   -1.5940 H       1  UNL1        0.0388
     22 H          -0.9183    1.8396    0.2339 H       1  UNL1        0.0388
     23 H          -1.9869    2.8493   -0.7522 H       1  UNL1        0.0388
     24 H          -3.3935    1.1462   -1.2648 H       1  UNL1        0.1222
     25 H          -3.4465   -0.9768   -0.4208 H       1  UNL1        0.0511
     26 H          -2.0619   -0.3179   -2.6251 H       1  UNL1        0.0299
     27 H          -2.1934   -1.9719   -1.9589 H       1  UNL1        0.0299
     28 H           0.1453   -0.4489   -2.5468 H       1  UNL1        0.0468
     29 H           0.0092   -2.1095   -1.8956 H       1  UNL1        0.0468
     30 H           2.1698   -0.6566   -2.3360 H       1  UNL1        0.0637
     31 H           4.3196    0.5362   -2.3800 H       1  UNL1        0.0633
     32 H           1.2629    1.1082    1.4156 H       1  UNL1        0.0651
     33 H           1.4612   -1.1801    1.8231 H       1  UNL1        0.0636
     34 H           0.2543   -1.6596    3.9180 H       1  UNL1        0.0618
     35 H          -2.2083   -1.6136    4.0419 H       1  UNL1        0.0618
     36 H          -3.4904   -1.0508    1.9434 H       1  UNL1        0.0621
@<TRIPOS>BOND
     1     1     2    1
     2     2     3    1
     3     3     4    1
     4     4     5    1
     5     5     6    1
     6     6     7    1
     7     7     8   ar
     8     8     9   ar
     9     9    10   ar
    10    10    11    1
    11    10    12   ar
    12    12    13    1
    13    12    14   ar
    14     6    15    1
    15    15    16   ar
    16    16    17   ar
    17    17    18   ar
    18    18    19   ar
    19    19    20   ar
    20    20     3    1
    21    14     7   ar
    22    20    15   ar
    23     1    21    1
    24     1    22    1
    25     1    23    1
    26     2    24    1
    27     3    25    1
    28     4    26    1
    29     4    27    1
    30     5    28    1
    31     5    29    1
    32     8    30    1
    33     9    31    1
    34    14    32    1
    35    16    33    1
    36    17    34    1
    37    18    35    1
    38    19    36    1
