
     RDKit          3D

 26 26  0  0  0  0  0  0  0  0999 V2000
   -1.1950   -0.7141   -0.1484 C   0  0  2  0  0  0  0  0  0  0  0  0
   -0.0255   -0.9406    0.8025 C   0  0  0  0  0  0  0  0  0  0  0  0
    1.1036   -0.0454    0.4965 C   0  0  0  0  0  0  0  0  0  0  0  0
    1.3544    1.2164    0.9972 C   0  0  0  0  0  0  0  0  0  0  0  0
    2.4658    1.9354    0.6086 C   0  0  0  0  0  0  0  0  0  0  0  0
    3.3821    1.4237   -0.3030 C   0  0  0  0  0  0  0  0  0  0  0  0
    3.1541    0.1698   -0.8154 C   0  0  0  0  0  0  0  0  0  0  0  0
    2.0509   -0.5228   -0.4182 C   0  0  0  0  0  0  0  0  0  0  0  0
   -1.6537    0.7211   -0.0088 C   0  0  0  0  0  0  0  0  0  0  0  0
   -2.7652    1.0140   -0.8896 N   0  0  0  0  0  4  0  0  0  0  0  0
   -4.0268    0.5119   -1.0206 O   0  0  0  0  0  1  0  0  0  0  0  0
   -3.1596    1.7256   -1.8347 O   0  0  0  0  0  0  0  0  0  0  0  0
   -2.3336   -1.6032    0.2105 C   0  0  0  0  0  0  0  0  0  0  0  0
   -1.9328   -2.9458    0.1140 O   0  0  0  0  0  0  0  0  0  0  0  0
   -3.5545   -1.5107    0.5764 O   0  0  0  0  0  0  0  0  0  0  0  0
   -0.8456   -0.9102   -1.1686 H   0  0  0  0  0  0  0  0  0  0  0  0
   -0.3299   -0.8036    1.8616 H   0  0  0  0  0  0  0  0  0  0  0  0
    0.2814   -1.9812    0.6982 H   0  0  0  0  0  0  0  0  0  0  0  0
    0.6169    1.5741    1.7025 H   0  0  0  0  0  0  0  0  0  0  0  0
    2.6332    2.9234    1.0207 H   0  0  0  0  0  0  0  0  0  0  0  0
    4.2609    1.9611   -0.6270 H   0  0  0  0  0  0  0  0  0  0  0  0
    3.8554   -0.2330   -1.5190 H   0  0  0  0  0  0  0  0  0  0  0  0
    1.9289   -1.5038   -0.8583 H   0  0  0  0  0  0  0  0  0  0  0  0
   -1.9481    0.9236    1.0532 H   0  0  0  0  0  0  0  0  0  0  0  0
   -0.7850    1.3448   -0.2292 H   0  0  0  0  0  0  0  0  0  0  0  0
   -2.5325   -3.7307    0.3042 H   0  0  0  0  0  0  0  0  0  0  0  0
  1  2  1  0
  2  3  1  0
  3  4  2  0
  4  5  1  0
  5  6  2  0
  6  7  1  0
  7  8  2  0
  1  9  1  0
  9 10  1  0
 10 11  1  0
 10 12  2  0
  1 13  1  0
 13 14  1  0
 13 15  2  0
  8  3  1  0
  1 16  1  6
  2 17  1  0
  2 18  1  0
  4 19  1  0
  5 20  1  0
  6 21  1  0
  7 22  1  0
  8 23  1  0
  9 24  1  0
  9 25  1  0
 14 26  1  0
M  CHG  2  10   1  11  -1
M  END
$$$$
