@<TRIPOS>MOLECULE
*****
 61 65 0 0 0
SMALL
GASTEIGER

@<TRIPOS>ATOM
      1 C          -4.1939   -1.3591   -3.4628 C.3     1  UNL1       -0.0361
      2 C          -3.6574   -1.4781   -2.0831 C.ar    1  UNL1       -0.0041
      3 C          -2.5910   -0.6933   -1.7054 C.ar    1  UNL1       -0.0324
      4 C          -2.1067   -0.8112   -0.4357 C.ar    1  UNL1        0.0545
      5 N          -1.0168   -0.0512    0.0546 N.am    1  UNL1       -0.2529
      6 C           0.3446   -0.4420   -0.0440 C.2     1  UNL1        0.2553
      7 O           0.8309   -1.4665   -0.5821 O.2     1  UNL1       -0.2695
      8 C           1.1701    0.5747    0.6089 C.ar    1  UNL1        0.0813
      9 C           2.4565    0.9199    0.9352 C.ar    1  UNL1        0.0637
     10 N           3.6678    0.2150    0.6454 N.am    1  UNL1       -0.2826
     11 C           4.2393   -0.7615    1.4918 C.2     1  UNL1        0.2313
     12 O           3.5745   -0.9688    2.5690 O.2     1  UNL1       -0.2741
     13 C           5.4703   -1.5182    1.2521 C.3     1  UNL1        0.0756
     14 N           6.0804   -1.1903   -0.0220 N.3     1  UNL1       -0.3001
     15 C           7.3642   -1.8922   -0.1390 C.3     1  UNL1       -0.0126
     16 C           5.2139   -1.6061   -1.1276 C.3     1  UNL1       -0.0126
     17 C           2.3444    2.1234    1.6164 C.ar    1  UNL1        0.0266
     18 N           1.0481    2.4707    1.6869 N.ar    1  UNL1       -0.3492
     19 C           0.5184    3.6815    2.3320 C.3     1  UNL1        0.0117
     20 C           0.3247    1.5348    1.0761 C.ar    1  UNL1        0.0580
     21 C          -1.1079    1.2033    0.7273 C.3     1  UNL1        0.0973
     22 C          -1.6814    2.3005   -0.0671 C.ar    1  UNL1       -0.0208
     23 C          -2.6365    3.1188    0.4844 C.ar    1  UNL1       -0.0550
     24 C          -3.1966    4.1705   -0.2386 C.ar    1  UNL1       -0.0431
     25 C          -2.7887    4.4004   -1.5342 C.ar    1  UNL1        0.0410
     26 CL         -3.4747    5.7139   -2.4665 Cl      1  UNL1       -0.0835
     27 C          -1.8225    3.5792   -2.1045 C.ar    1  UNL1       -0.0431
     28 C          -1.2865    2.5422   -1.3569 C.ar    1  UNL1       -0.0550
     29 C          -2.7165   -1.7274    0.4299 C.ar    1  UNL1        0.0345
     30 N          -3.7573   -2.4843    0.0400 N.ar    1  UNL1       -0.2798
     31 C          -4.5049   -3.4208    0.6697 C.ar    1  UNL1        0.2041
     32 C          -4.3034   -3.8515    2.0827 C.3     1  UNL1        0.2980
     33 F          -3.9801   -5.1959    2.0884 F       1  UNL1       -0.2005
     34 F          -5.4361   -3.6020    2.8408 F       1  UNL1       -0.2005
     35 N          -5.4172   -3.8526   -0.2077 N.ar    1  UNL1       -0.1278
     36 N          -5.2677   -3.2220   -1.3599 N.ar    1  UNL1       -0.1290
     37 C          -4.2287   -2.3656   -1.2047 C.ar    1  UNL1        0.1642
     38 H          -4.8855   -0.4921   -3.4912 H       1  UNL1        0.0279
     39 H          -4.8052   -2.2457   -3.7333 H       1  UNL1        0.0279
     40 H          -3.3753   -1.2689   -4.1991 H       1  UNL1        0.0279
     41 H          -2.1518    0.0016   -2.4150 H       1  UNL1        0.0640
     42 H           4.1376    0.4625   -0.2423 H       1  UNL1        0.1549
     43 H           6.2546   -1.3240    2.0257 H       1  UNL1        0.0522
     44 H           5.2415   -2.6006    1.3324 H       1  UNL1        0.0522
     45 H           7.2486   -2.9710   -0.2354 H       1  UNL1        0.0391
     46 H           7.9566   -1.6024    0.7381 H       1  UNL1        0.0391
     47 H           7.8537   -1.4848   -1.0468 H       1  UNL1        0.0391
     48 H           5.2553   -0.8111   -1.8876 H       1  UNL1        0.0391
     49 H           5.6107   -2.5361   -1.6022 H       1  UNL1        0.0391
     50 H           4.1999   -1.8333   -0.7855 H       1  UNL1        0.0391
     51 H           3.1811    2.6663    2.0121 H       1  UNL1        0.0828
     52 H           1.1590    3.9202    3.2288 H       1  UNL1        0.0456
     53 H           0.5792    4.5346    1.6560 H       1  UNL1        0.0456
     54 H          -0.4904    3.5230    2.7232 H       1  UNL1        0.0456
     55 H          -1.6237    1.1385    1.7105 H       1  UNL1        0.0619
     56 H          -2.9710    2.9559    1.4996 H       1  UNL1        0.0621
     57 H          -3.9496    4.8220    0.1832 H       1  UNL1        0.0632
     58 H          -1.5302    3.7852   -3.1115 H       1  UNL1        0.0632
     59 H          -0.5404    1.9298   -1.8388 H       1  UNL1        0.0621
     60 H          -2.3621   -1.8457    1.4328 H       1  UNL1        0.0833
     61 H          -3.4682   -3.3119    2.5564 H       1  UNL1        0.1105
@<TRIPOS>BOND
     1     1     2    1
     2     2     3   ar
     3     3     4   ar
     4     4     5    1
     5     5     6   am
     6     6     7    2
     7     6     8    1
     8     8     9   ar
     9     9    10    1
    10    10    11   am
    11    11    12    2
    12    11    13    1
    13    13    14    1
    14    14    15    1
    15    14    16    1
    16     9    17   ar
    17    17    18   ar
    18    18    19    1
    19    18    20   ar
    20    20    21    1
    21    21    22    1
    22    22    23   ar
    23    23    24   ar
    24    24    25   ar
    25    25    26    1
    26    25    27   ar
    27    27    28   ar
    28     4    29   ar
    29    29    30   ar
    30    30    31   ar
    31    31    32    1
    32    32    33    1
    33    32    34    1
    34    31    35   ar
    35    35    36   ar
    36    36    37   ar
    37    37     2   ar
    38    21     5    1
    39    28    22   ar
    40    37    30   ar
    41    20     8   ar
    42     1    38    1
    43     1    39    1
    44     1    40    1
    45     3    41    1
    46    10    42    1
    47    13    43    1
    48    13    44    1
    49    15    45    1
    50    15    46    1
    51    15    47    1
    52    16    48    1
    53    16    49    1
    54    16    50    1
    55    17    51    1
    56    19    52    1
    57    19    53    1
    58    19    54    1
    59    21    55    1
    60    23    56    1
    61    24    57    1
    62    27    58    1
    63    28    59    1
    64    29    60    1
    65    32    61    1
