
     RDKit          3D

 61 65  0  0  0  0  0  0  0  0999 V2000
   -4.1939   -1.3591   -3.4628 C   0  0  0  0  0  0  0  0  0  0  0  0
   -3.6574   -1.4781   -2.0831 C   0  0  0  0  0  0  0  0  0  0  0  0
   -2.5910   -0.6933   -1.7054 C   0  0  0  0  0  0  0  0  0  0  0  0
   -2.1067   -0.8112   -0.4357 C   0  0  0  0  0  0  0  0  0  0  0  0
   -1.0168   -0.0512    0.0546 N   0  0  0  0  0  0  0  0  0  0  0  0
    0.3446   -0.4420   -0.0440 C   0  0  0  0  0  0  0  0  0  0  0  0
    0.8309   -1.4665   -0.5821 O   0  0  0  0  0  0  0  0  0  0  0  0
    1.1701    0.5747    0.6089 C   0  0  0  0  0  0  0  0  0  0  0  0
    2.4565    0.9199    0.9352 C   0  0  0  0  0  0  0  0  0  0  0  0
    3.6678    0.2150    0.6454 N   0  0  0  0  0  0  0  0  0  0  0  0
    4.2393   -0.7615    1.4918 C   0  0  0  0  0  0  0  0  0  0  0  0
    3.5745   -0.9688    2.5690 O   0  0  0  0  0  0  0  0  0  0  0  0
    5.4703   -1.5182    1.2521 C   0  0  0  0  0  0  0  0  0  0  0  0
    6.0804   -1.1903   -0.0220 N   0  0  0  0  0  0  0  0  0  0  0  0
    7.3642   -1.8922   -0.1390 C   0  0  0  0  0  0  0  0  0  0  0  0
    5.2139   -1.6061   -1.1276 C   0  0  0  0  0  0  0  0  0  0  0  0
    2.3444    2.1234    1.6164 C   0  0  0  0  0  0  0  0  0  0  0  0
    1.0481    2.4707    1.6869 N   0  0  0  0  0  0  0  0  0  0  0  0
    0.5184    3.6815    2.3320 C   0  0  0  0  0  0  0  0  0  0  0  0
    0.3247    1.5348    1.0761 C   0  0  0  0  0  0  0  0  0  0  0  0
   -1.1079    1.2033    0.7273 C   0  0  0  0  0  0  0  0  0  0  0  0
   -1.6814    2.3005   -0.0671 C   0  0  0  0  0  0  0  0  0  0  0  0
   -2.6365    3.1188    0.4844 C   0  0  0  0  0  0  0  0  0  0  0  0
   -3.1966    4.1705   -0.2386 C   0  0  0  0  0  0  0  0  0  0  0  0
   -2.7887    4.4004   -1.5342 C   0  0  0  0  0  0  0  0  0  0  0  0
   -3.4747    5.7139   -2.4665 Cl  0  0  0  0  0  0  0  0  0  0  0  0
   -1.8225    3.5792   -2.1045 C   0  0  0  0  0  0  0  0  0  0  0  0
   -1.2865    2.5422   -1.3569 C   0  0  0  0  0  0  0  0  0  0  0  0
   -2.7165   -1.7274    0.4299 C   0  0  0  0  0  0  0  0  0  0  0  0
   -3.7573   -2.4843    0.0400 N   0  0  0  0  0  0  0  0  0  0  0  0
   -4.5049   -3.4208    0.6697 C   0  0  0  0  0  0  0  0  0  0  0  0
   -4.3034   -3.8515    2.0827 C   0  0  0  0  0  0  0  0  0  0  0  0
   -3.9801   -5.1959    2.0884 F   0  0  0  0  0  0  0  0  0  0  0  0
   -5.4361   -3.6020    2.8408 F   0  0  0  0  0  0  0  0  0  0  0  0
   -5.4172   -3.8526   -0.2077 N   0  0  0  0  0  0  0  0  0  0  0  0
   -5.2677   -3.2220   -1.3599 N   0  0  0  0  0  0  0  0  0  0  0  0
   -4.2287   -2.3656   -1.2047 C   0  0  0  0  0  0  0  0  0  0  0  0
   -4.8855   -0.4921   -3.4912 H   0  0  0  0  0  0  0  0  0  0  0  0
   -4.8052   -2.2457   -3.7333 H   0  0  0  0  0  0  0  0  0  0  0  0
   -3.3753   -1.2689   -4.1991 H   0  0  0  0  0  0  0  0  0  0  0  0
   -2.1518    0.0016   -2.4150 H   0  0  0  0  0  0  0  0  0  0  0  0
    4.1376    0.4625   -0.2423 H   0  0  0  0  0  0  0  0  0  0  0  0
    6.2546   -1.3240    2.0257 H   0  0  0  0  0  0  0  0  0  0  0  0
    5.2415   -2.6006    1.3324 H   0  0  0  0  0  0  0  0  0  0  0  0
    7.2486   -2.9710   -0.2354 H   0  0  0  0  0  0  0  0  0  0  0  0
    7.9566   -1.6024    0.7381 H   0  0  0  0  0  0  0  0  0  0  0  0
    7.8537   -1.4848   -1.0468 H   0  0  0  0  0  0  0  0  0  0  0  0
    5.2553   -0.8111   -1.8876 H   0  0  0  0  0  0  0  0  0  0  0  0
    5.6107   -2.5361   -1.6022 H   0  0  0  0  0  0  0  0  0  0  0  0
    4.1999   -1.8333   -0.7855 H   0  0  0  0  0  0  0  0  0  0  0  0
    3.1811    2.6663    2.0121 H   0  0  0  0  0  0  0  0  0  0  0  0
    1.1590    3.9202    3.2288 H   0  0  0  0  0  0  0  0  0  0  0  0
    0.5792    4.5346    1.6560 H   0  0  0  0  0  0  0  0  0  0  0  0
   -0.4904    3.5230    2.7232 H   0  0  0  0  0  0  0  0  0  0  0  0
   -1.6237    1.1385    1.7105 H   0  0  0  0  0  0  0  0  0  0  0  0
   -2.9710    2.9559    1.4996 H   0  0  0  0  0  0  0  0  0  0  0  0
   -3.9496    4.8220    0.1832 H   0  0  0  0  0  0  0  0  0  0  0  0
   -1.5302    3.7852   -3.1115 H   0  0  0  0  0  0  0  0  0  0  0  0
   -0.5404    1.9298   -1.8388 H   0  0  0  0  0  0  0  0  0  0  0  0
   -2.3621   -1.8457    1.4328 H   0  0  0  0  0  0  0  0  0  0  0  0
   -3.4682   -3.3119    2.5564 H   0  0  0  0  0  0  0  0  0  0  0  0
  1  2  1  0
  2  3  2  0
  3  4  1  0
  4  5  1  0
  5  6  1  0
  6  7  2  0
  6  8  1  0
  8  9  1  0
  9 10  1  0
 10 11  1  0
 11 12  2  0
 11 13  1  0
 13 14  1  0
 14 15  1  0
 14 16  1  0
  9 17  2  0
 17 18  1  0
 18 19  1  0
 18 20  1  0
 20 21  1  0
 21 22  1  0
 22 23  2  0
 23 24  1  0
 24 25  2  0
 25 26  1  0
 25 27  1  0
 27 28  2  0
  4 29  2  0
 29 30  1  0
 30 31  1  0
 31 32  1  0
 32 33  1  0
 32 34  1  0
 31 35  2  0
 35 36  1  0
 36 37  2  0
 37  2  1  0
 21  5  1  0
 28 22  1  0
 37 30  1  0
 20  8  2  0
  1 38  1  0
  1 39  1  0
  1 40  1  0
  3 41  1  0
 10 42  1  0
 13 43  1  0
 13 44  1  0
 15 45  1  0
 15 46  1  0
 15 47  1  0
 16 48  1  0
 16 49  1  0
 16 50  1  0
 17 51  1  0
 19 52  1  0
 19 53  1  0
 19 54  1  0
 21 55  1  0
 23 56  1  0
 24 57  1  0
 27 58  1  0
 28 59  1  0
 29 60  1  0
 32 61  1  0
M  END
$$$$
