
     RDKit          3D

 39 41  0  0  0  0  0  0  0  0999 V2000
   -3.8236    3.2393    0.2883 C   0  0  0  0  0  0  0  0  0  0  0  0
   -3.2029    1.9073    0.1602 C   0  0  0  0  0  0  0  0  0  0  0  0
   -2.4501    1.5376   -0.8884 N   0  0  0  0  0  0  0  0  0  0  0  0
   -1.9155    0.2853   -0.9236 C   0  0  0  0  0  0  0  0  0  0  0  0
   -2.1341   -0.6241    0.1098 C   0  0  0  0  0  0  0  0  0  0  0  0
   -2.9064   -0.2729    1.2058 C   0  0  0  0  0  0  0  0  0  0  0  0
   -3.4219    1.0163    1.1811 C   0  0  0  0  0  0  0  0  0  0  0  0
   -1.5041   -1.9296   -0.0555 C   0  0  0  0  0  0  0  0  0  0  0  0
   -0.1588   -2.2120   -0.1428 C   0  0  0  0  0  0  0  0  0  0  0  0
    0.2668   -3.5081   -0.2985 C   0  0  0  0  0  0  0  0  0  0  0  0
   -0.7181   -4.4867   -0.3604 C   0  0  0  0  0  0  0  0  0  0  0  0
   -0.1372   -6.1382   -0.5606 Cl  0  0  0  0  0  0  0  0  0  0  0  0
   -2.0480   -4.2152   -0.2749 C   0  0  0  0  0  0  0  0  0  0  0  0
   -2.4234   -2.9240   -0.1219 N   0  0  0  0  0  0  0  0  0  0  0  0
    0.7269   -1.0597   -0.0588 C   0  0  0  0  0  0  0  0  0  0  0  0
    0.8441   -0.2239    1.0318 C   0  0  0  0  0  0  0  0  0  0  0  0
    1.7137    0.8504    1.0254 C   0  0  0  0  0  0  0  0  0  0  0  0
    2.4695    1.0693   -0.1091 C   0  0  0  0  0  0  0  0  0  0  0  0
    2.3838    0.2490   -1.2370 C   0  0  0  0  0  0  0  0  0  0  0  0
    1.4996   -0.8054   -1.1710 C   0  0  0  0  0  0  0  0  0  0  0  0
    3.6185    2.4086   -0.2323 S   0  0  0  0  0  0  0  0  0  0  0  0
    5.2109    1.8467    0.3301 C   0  0  0  0  0  0  0  0  0  0  0  0
    3.6418    2.8818   -1.6348 O   0  0  0  0  0  0  0  0  0  0  0  0
    3.2220    3.5410    0.6683 O   0  0  0  0  0  0  0  0  0  0  0  0
   -3.5649    3.9020   -0.5731 H   0  0  0  0  0  0  0  0  0  0  0  0
   -3.5495    3.6813    1.2682 H   0  0  0  0  0  0  0  0  0  0  0  0
   -4.9398    3.1661    0.2696 H   0  0  0  0  0  0  0  0  0  0  0  0
   -1.3252    0.0650   -1.7964 H   0  0  0  0  0  0  0  0  0  0  0  0
   -3.0506   -0.9980    1.9776 H   0  0  0  0  0  0  0  0  0  0  0  0
   -4.0291    1.2737    2.0556 H   0  0  0  0  0  0  0  0  0  0  0  0
    1.3271   -3.6992   -0.3644 H   0  0  0  0  0  0  0  0  0  0  0  0
   -2.7885   -5.0171   -0.3284 H   0  0  0  0  0  0  0  0  0  0  0  0
    0.2267   -0.4424    1.8956 H   0  0  0  0  0  0  0  0  0  0  0  0
    1.8159    1.5125    1.8713 H   0  0  0  0  0  0  0  0  0  0  0  0
    2.9752    0.4243   -2.1179 H   0  0  0  0  0  0  0  0  0  0  0  0
    1.4433   -1.4304   -2.0479 H   0  0  0  0  0  0  0  0  0  0  0  0
    5.1466    0.7723    0.6423 H   0  0  0  0  0  0  0  0  0  0  0  0
    5.5999    2.4099    1.1809 H   0  0  0  0  0  0  0  0  0  0  0  0
    5.9595    1.9476   -0.4999 H   0  0  0  0  0  0  0  0  0  0  0  0
  1  2  1  0
  2  3  2  0
  3  4  1  0
  4  5  2  0
  5  6  1  0
  6  7  2  0
  5  8  1  0
  8  9  1  0
  9 10  2  0
 10 11  1  0
 11 12  1  0
 11 13  2  0
 13 14  1  0
  9 15  1  0
 15 16  2  0
 16 17  1  0
 17 18  2  0
 18 19  1  0
 19 20  2  0
 18 21  1  0
 21 22  1  0
 21 23  2  0
 21 24  2  0
  7  2  1  0
 14  8  2  0
 20 15  1  0
  1 25  1  0
  1 26  1  0
  1 27  1  0
  4 28  1  0
  6 29  1  0
  7 30  1  0
 10 31  1  0
 13 32  1  0
 16 33  1  0
 17 34  1  0
 19 35  1  0
 20 36  1  0
 22 37  1  0
 22 38  1  0
 22 39  1  0
M  END
$$$$
