@<TRIPOS>MOLECULE
*****
 71 76 0 0 0
SMALL
GASTEIGER

@<TRIPOS>ATOM
      1 C          -7.4333    2.6103   -0.4171 C.3     1  UNL1        0.0032
      2 N          -7.7424    2.0569    0.8768 N.am    1  UNL1       -0.3024
      3 C          -9.1399    2.0826    1.3298 C.3     1  UNL1        0.0032
      4 C          -6.7418    1.4879    1.6786 C.2     1  UNL1        0.2627
      5 O          -7.0937    1.0359    2.8248 O.2     1  UNL1       -0.2684
      6 C          -5.3293    1.3831    1.2746 C.ar    1  UNL1        0.1070
      7 C          -4.2878    2.1413    1.7580 C.ar    1  UNL1       -0.0209
      8 C          -3.1018    1.7495    1.1646 C.ar    1  UNL1        0.0378
      9 C          -1.7753    2.1025    1.2287 C.ar    1  UNL1        0.0419
     10 N          -0.8476    1.4712    0.4737 N.ar    1  UNL1       -0.2219
     11 C          -1.1748    0.4786   -0.3677 C.ar    1  UNL1        0.2224
     12 N          -0.2530   -0.2241   -1.1979 N.pl3   1  UNL1       -0.2685
     13 C           0.9884   -0.7568   -0.7923 C.ar    1  UNL1        0.1250
     14 C           1.7618   -1.4197   -1.7421 C.ar    1  UNL1       -0.0208
     15 C           2.9823   -1.9318   -1.3633 C.ar    1  UNL1       -0.0449
     16 C           3.3518   -1.7500   -0.0587 C.ar    1  UNL1        0.0551
     17 C           4.6938   -2.2640    0.3055 C.2     1  UNL1        0.2482
     18 O           4.7671   -3.3802    0.8339 O.2     1  UNL1       -0.2699
     19 N           5.7596   -1.4152    0.0058 N.am    1  UNL1       -0.2948
     20 C           5.5011   -0.1124   -0.6240 C.3     1  UNL1        0.0278
     21 C           5.9237    0.8734    0.4765 C.3     1  UNL1        0.0150
     22 N           7.2899    0.7249    0.7807 N.3     1  UNL1       -0.2964
     23 C           8.0737    1.7139    0.0550 C.3     1  UNL1       -0.0007
     24 C           9.4371    1.1198   -0.1135 C.3     1  UNL1       -0.0387
     25 C           9.1648   -0.3463   -0.1846 C.3     1  UNL1       -0.0347
     26 C           7.9300   -0.5229    0.6894 C.3     1  UNL1        0.0263
     27 C           7.1255   -1.7154    0.2827 C.3     1  UNL1        0.0306
     28 C           2.5920   -1.1023    0.8716 C.ar    1  UNL1        0.0418
     29 N           1.3975   -0.6063    0.4780 N.ar    1  UNL1       -0.2394
     30 N          -2.4941    0.1502   -0.4095 N.ar    1  UNL1       -0.1962
     31 C          -3.4598    0.7195    0.2967 C.ar    1  UNL1        0.1466
     32 N          -4.8064    0.5266    0.3899 N.ar    1  UNL1       -0.3180
     33 C          -5.5621   -0.4634   -0.3416 C.3     1  UNL1        0.0366
     34 C          -4.9390   -0.8587   -1.6505 C.3     1  UNL1       -0.0320
     35 C          -4.4575   -2.3020   -1.4775 C.3     1  UNL1       -0.0511
     36 C          -5.5643   -2.8173   -0.5442 C.3     1  UNL1       -0.0511
     37 C          -5.5693   -1.7439    0.5143 C.3     1  UNL1       -0.0320
     38 H          -7.4218    3.7195   -0.3208 H       1  UNL1        0.0428
     39 H          -8.2514    2.3770   -1.1576 H       1  UNL1        0.0428
     40 H          -6.4851    2.2334   -0.8345 H       1  UNL1        0.0428
     41 H          -9.2307    2.4383    2.3711 H       1  UNL1        0.0428
     42 H          -9.4557    1.0039    1.3367 H       1  UNL1        0.0428
     43 H          -9.7875    2.5981    0.6053 H       1  UNL1        0.0428
     44 H          -4.3328    2.9354    2.4878 H       1  UNL1        0.0647
     45 H          -1.4525    2.8891    1.8788 H       1  UNL1        0.0838
     46 H          -0.5146   -0.3634   -2.2291 H       1  UNL1        0.1564
     47 H           1.4149   -1.5312   -2.7564 H       1  UNL1        0.0652
     48 H           3.6289   -2.4647   -2.0732 H       1  UNL1        0.0627
     49 H           4.4434    0.0403   -0.8449 H       1  UNL1        0.0477
     50 H           6.1029    0.0326   -1.5334 H       1  UNL1        0.0477
     51 H           5.6674    1.9093    0.2169 H       1  UNL1        0.0442
     52 H           5.3120    0.5540    1.3671 H       1  UNL1        0.0442
     53 H           8.0510    2.6379    0.6573 H       1  UNL1        0.0427
     54 H           7.5922    1.9742   -0.9332 H       1  UNL1        0.0427
     55 H           9.9652    1.5311   -1.0075 H       1  UNL1        0.0278
     56 H          10.0084    1.3279    0.8166 H       1  UNL1        0.0278
     57 H           9.0123   -0.7237   -1.2159 H       1  UNL1        0.0281
     58 H          10.0382   -0.8713    0.2538 H       1  UNL1        0.0281
     59 H           8.3403   -0.7627    1.7253 H       1  UNL1        0.0478
     60 H           7.2200   -2.5195    1.0242 H       1  UNL1        0.0480
     61 H           7.6336   -2.1014   -0.6663 H       1  UNL1        0.0480
     62 H           2.8764   -0.9560    1.8977 H       1  UNL1        0.0838
     63 H          -6.5918   -0.1423   -0.5493 H       1  UNL1        0.0528
     64 H          -4.1734   -0.1858   -2.0315 H       1  UNL1        0.0285
     65 H          -5.7101   -0.9334   -2.4763 H       1  UNL1        0.0285
     66 H          -3.5367   -2.3908   -0.9029 H       1  UNL1        0.0266
     67 H          -4.4424   -2.8631   -2.4160 H       1  UNL1        0.0266
     68 H          -6.5108   -2.7507   -1.0770 H       1  UNL1        0.0266
     69 H          -5.3067   -3.8124   -0.1401 H       1  UNL1        0.0266
     70 H          -4.6143   -1.7551    1.0657 H       1  UNL1        0.0285
     71 H          -6.4558   -1.7700    1.1640 H       1  UNL1        0.0285
@<TRIPOS>BOND
     1     1     2    1
     2     2     3    1
     3     2     4   am
     4     4     5    2
     5     4     6    1
     6     6     7   ar
     7     7     8   ar
     8     8     9   ar
     9     9    10   ar
    10    10    11   ar
    11    11    12    1
    12    12    13    1
    13    13    14   ar
    14    14    15   ar
    15    15    16   ar
    16    16    17    1
    17    17    18    2
    18    17    19   am
    19    19    20    1
    20    20    21    1
    21    21    22    1
    22    22    23    1
    23    23    24    1
    24    24    25    1
    25    25    26    1
    26    26    27    1
    27    16    28   ar
    28    28    29   ar
    29    11    30   ar
    30    30    31   ar
    31    31    32   ar
    32    32    33    1
    33    33    34    1
    34    34    35    1
    35    35    36    1
    36    36    37    1
    37    32     6   ar
    38    37    33    1
    39    31     8   ar
    40    29    13   ar
    41    27    19    1
    42    26    22    1
    43     1    38    1
    44     1    39    1
    45     1    40    1
    46     3    41    1
    47     3    42    1
    48     3    43    1
    49     7    44    1
    50     9    45    1
    51    12    46    1
    52    14    47    1
    53    15    48    1
    54    20    49    1
    55    20    50    1
    56    21    51    1
    57    21    52    1
    58    23    53    1
    59    23    54    1
    60    24    55    1
    61    24    56    1
    62    25    57    1
    63    25    58    1
    64    26    59    1
    65    27    60    1
    66    27    61    1
    67    28    62    1
    68    33    63    1
    69    34    64    1
    70    34    65    1
    71    35    66    1
    72    35    67    1
    73    36    68    1
    74    36    69    1
    75    37    70    1
    76    37    71    1
