@<TRIPOS>MOLECULE
*****
 32 33 0 0 0
SMALL
GASTEIGER

@<TRIPOS>ATOM
      1 C          -0.8983    0.9181    0.5711 C.3     1  UNL1        0.0646
      2 C          -0.4904    0.3105    1.8667 C.3     1  UNL1        0.0313
      3 N           0.7345   -0.4669    1.8089 N.pl3   1  UNL1       -0.3255
      4 C           1.7174   -0.3541    0.7877 C.ar    1  UNL1        0.1487
      5 C           1.2782    0.1657   -0.4348 C.ar    1  UNL1        0.1330
      6 N          -0.0730    0.5302   -0.5606 N.pl3   1  UNL1       -0.3301
      7 C           2.1973    0.2908   -1.4473 C.ar    1  UNL1        0.2755
      8 O           1.7770    0.7606   -2.5358 O.2     1  UNL1       -0.2657
      9 N           3.4792   -0.0842   -1.2420 N.ar    1  UNL1       -0.2937
     10 C           3.9051   -0.5862   -0.0627 C.ar    1  UNL1        0.1948
     11 N           5.2745   -0.9765    0.1267 N.pl3   1  UNL1       -0.3289
     12 N           2.9843   -0.7061    0.9359 N.ar    1  UNL1       -0.1994
     13 C          -2.3547    0.8582    0.2744 C.3     1  UNL1        0.1004
     14 O          -2.6455    1.7135   -0.7726 O.3     1  UNL1       -0.3874
     15 C          -2.9599   -0.4676    0.0310 C.3     1  UNL1        0.0801
     16 C          -2.5686   -1.0844   -1.2926 C.3     1  UNL1       -0.0364
     17 O          -4.3548   -0.2428   -0.0670 O.3     1  UNL1       -0.3894
     18 H          -0.6816    2.0255    0.6673 H       1  UNL1        0.0539
     19 H          -0.2855    1.0760    2.6734 H       1  UNL1        0.0481
     20 H          -1.2734   -0.3264    2.3307 H       1  UNL1        0.0481
     21 H           0.9065   -1.1587    2.5720 H       1  UNL1        0.1476
     22 H          -0.4773    0.5122   -1.5289 H       1  UNL1        0.1467
     23 H           4.1317    0.0342   -2.0478 H       1  UNL1        0.1716
     24 H           5.8324   -1.1466   -0.7429 H       1  UNL1        0.1451
     25 H           5.6177   -1.0634    1.1200 H       1  UNL1        0.1451
     26 H          -2.8777    1.2984    1.1723 H       1  UNL1        0.0638
     27 H          -3.0582    2.5638   -0.5103 H       1  UNL1        0.2100
     28 H          -2.8257   -1.2122    0.8102 H       1  UNL1        0.0617
     29 H          -2.6347   -0.3516   -2.1270 H       1  UNL1        0.0255
     30 H          -3.2911   -1.8889   -1.5749 H       1  UNL1        0.0255
     31 H          -1.5857   -1.5945   -1.2246 H       1  UNL1        0.0255
     32 H          -4.4997    0.6533   -0.4966 H       1  UNL1        0.2099
@<TRIPOS>BOND
     1     1     2    1
     2     2     3    1
     3     3     4    1
     4     4     5   ar
     5     5     6    1
     6     5     7   ar
     7     7     8    2
     8     7     9   ar
     9     9    10   ar
    10    10    11    1
    11    10    12   ar
    12     1    13    1
    13    13    14    1
    14    13    15    1
    15    15    16    1
    16    15    17    1
    17     6     1    1
    18    12     4   ar
    19     1    18    1
    20     2    19    1
    21     2    20    1
    22     3    21    1
    23     6    22    1
    24     9    23    1
    25    11    24    1
    26    11    25    1
    27    13    26    1
    28    14    27    1
    29    15    28    1
    30    16    29    1
    31    16    30    1
    32    16    31    1
    33    17    32    1
