
     RDKit          3D

 32 33  0  0  0  0  0  0  0  0999 V2000
   -0.8983    0.9181    0.5711 C   0  0  1  0  0  0  0  0  0  0  0  0
   -0.4904    0.3105    1.8667 C   0  0  0  0  0  0  0  0  0  0  0  0
    0.7345   -0.4669    1.8089 N   0  0  0  0  0  0  0  0  0  0  0  0
    1.7174   -0.3541    0.7877 C   0  0  0  0  0  0  0  0  0  0  0  0
    1.2782    0.1657   -0.4348 C   0  0  0  0  0  0  0  0  0  0  0  0
   -0.0730    0.5302   -0.5606 N   0  0  0  0  0  0  0  0  0  0  0  0
    2.1973    0.2908   -1.4473 C   0  0  0  0  0  0  0  0  0  0  0  0
    1.7770    0.7606   -2.5358 O   0  0  0  0  0  0  0  0  0  0  0  0
    3.4792   -0.0842   -1.2420 N   0  0  0  0  0  0  0  0  0  0  0  0
    3.9051   -0.5862   -0.0627 C   0  0  0  0  0  0  0  0  0  0  0  0
    5.2745   -0.9765    0.1267 N   0  0  0  0  0  0  0  0  0  0  0  0
    2.9843   -0.7061    0.9359 N   0  0  0  0  0  0  0  0  0  0  0  0
   -2.3547    0.8582    0.2744 C   0  0  1  0  0  0  0  0  0  0  0  0
   -2.6455    1.7135   -0.7726 O   0  0  0  0  0  0  0  0  0  0  0  0
   -2.9599   -0.4676    0.0310 C   0  0  2  0  0  0  0  0  0  0  0  0
   -2.5686   -1.0844   -1.2926 C   0  0  0  0  0  0  0  0  0  0  0  0
   -4.3548   -0.2428   -0.0670 O   0  0  0  0  0  0  0  0  0  0  0  0
   -0.6816    2.0255    0.6673 H   0  0  0  0  0  0  0  0  0  0  0  0
   -0.2855    1.0760    2.6734 H   0  0  0  0  0  0  0  0  0  0  0  0
   -1.2734   -0.3264    2.3307 H   0  0  0  0  0  0  0  0  0  0  0  0
    0.9065   -1.1587    2.5720 H   0  0  0  0  0  0  0  0  0  0  0  0
   -0.4773    0.5122   -1.5289 H   0  0  0  0  0  0  0  0  0  0  0  0
    4.1317    0.0342   -2.0478 H   0  0  0  0  0  0  0  0  0  0  0  0
    5.8324   -1.1466   -0.7429 H   0  0  0  0  0  0  0  0  0  0  0  0
    5.6177   -1.0634    1.1200 H   0  0  0  0  0  0  0  0  0  0  0  0
   -2.8777    1.2984    1.1723 H   0  0  0  0  0  0  0  0  0  0  0  0
   -3.0582    2.5638   -0.5103 H   0  0  0  0  0  0  0  0  0  0  0  0
   -2.8257   -1.2122    0.8102 H   0  0  0  0  0  0  0  0  0  0  0  0
   -2.6347   -0.3516   -2.1270 H   0  0  0  0  0  0  0  0  0  0  0  0
   -3.2911   -1.8889   -1.5749 H   0  0  0  0  0  0  0  0  0  0  0  0
   -1.5857   -1.5945   -1.2246 H   0  0  0  0  0  0  0  0  0  0  0  0
   -4.4997    0.6533   -0.4966 H   0  0  0  0  0  0  0  0  0  0  0  0
  1  2  1  0
  2  3  1  0
  3  4  1  0
  4  5  2  0
  5  6  1  0
  5  7  1  0
  7  8  2  0
  7  9  1  0
  9 10  1  0
 10 11  1  0
 10 12  2  0
  1 13  1  0
 13 14  1  0
 13 15  1  0
 15 16  1  0
 15 17  1  0
  6  1  1  0
 12  4  1  0
  1 18  1  1
  2 19  1  0
  2 20  1  0
  3 21  1  0
  6 22  1  0
  9 23  1  0
 11 24  1  0
 11 25  1  0
 13 26  1  1
 14 27  1  0
 15 28  1  1
 16 29  1  0
 16 30  1  0
 16 31  1  0
 17 32  1  0
M  END
$$$$
