@<TRIPOS>MOLECULE
*****
 71 76 0 0 0
SMALL
GASTEIGER

@<TRIPOS>ATOM
      1 C          -9.0865    0.2846   -0.2786 C.3     1  UNL1        0.0032
      2 N          -7.7593    0.5325    0.3161 N.am    1  UNL1       -0.3024
      3 C          -7.5658    0.0607    1.6747 C.3     1  UNL1        0.0032
      4 C          -6.7903    1.2141   -0.4518 C.2     1  UNL1        0.2627
      5 O          -7.1030    1.5946   -1.6162 O.2     1  UNL1       -0.2684
      6 C          -5.4680    1.4631    0.1073 C.ar    1  UNL1        0.1070
      7 C          -5.3696    2.3763    1.1703 C.ar    1  UNL1       -0.0209
      8 C          -4.0206    2.4402    1.4332 C.ar    1  UNL1        0.0378
      9 C          -3.3178    3.1983    2.3608 C.ar    1  UNL1        0.0419
     10 N          -1.9843    3.1073    2.3976 N.ar    1  UNL1       -0.2219
     11 C          -1.3130    2.2708    1.5276 C.ar    1  UNL1        0.2224
     12 N           0.0909    2.3123    1.6528 N.pl3   1  UNL1       -0.2685
     13 C           1.0209    1.5332    0.9274 C.ar    1  UNL1        0.1250
     14 C           0.6813    0.5564    0.0418 C.ar    1  UNL1       -0.0208
     15 C           1.6292   -0.1554   -0.6696 C.ar    1  UNL1       -0.0449
     16 C           2.9978    0.0999   -0.5110 C.ar    1  UNL1        0.0551
     17 C           3.9292   -0.6754   -1.3051 C.2     1  UNL1        0.2482
     18 O           3.5430   -1.0938   -2.4694 O.2     1  UNL1       -0.2699
     19 N           5.2110   -1.0289   -0.9447 N.am    1  UNL1       -0.2948
     20 C           6.0558   -1.8502   -1.8589 C.3     1  UNL1        0.0278
     21 C           7.4283   -1.2251   -1.8134 C.3     1  UNL1        0.0150
     22 N           8.0514   -1.4702   -0.5147 N.3     1  UNL1       -0.2964
     23 C           8.9004   -0.3816   -0.1524 C.3     1  UNL1       -0.0007
     24 C           8.5591   -0.0055    1.2756 C.3     1  UNL1       -0.0387
     25 C           7.7355   -1.1903    1.7474 C.3     1  UNL1       -0.0347
     26 C           7.0365   -1.6400    0.5116 C.3     1  UNL1        0.0263
     27 C           5.8504   -0.6723    0.2806 C.3     1  UNL1        0.0306
     28 C           3.3055    1.0850    0.3846 C.ar    1  UNL1        0.0418
     29 N           2.3593    1.7675    1.0700 N.ar    1  UNL1       -0.2394
     30 N          -2.0023    1.5497    0.6480 N.ar    1  UNL1       -0.1962
     31 C          -3.3477    1.6153    0.5807 C.ar    1  UNL1        0.1466
     32 N          -4.2671    1.0073   -0.2427 N.ar    1  UNL1       -0.3180
     33 C          -3.8509    0.0786   -1.2318 C.3     1  UNL1        0.0366
     34 C          -2.9273   -0.9461   -0.5589 C.3     1  UNL1       -0.0320
     35 C          -3.7918   -2.1675   -0.2730 C.3     1  UNL1       -0.0511
     36 C          -5.1621   -1.8327   -0.8171 C.3     1  UNL1       -0.0511
     37 C          -4.8242   -0.8194   -1.8681 C.3     1  UNL1       -0.0320
     38 H          -9.1636   -0.7169   -0.7062 H       1  UNL1        0.0428
     39 H          -9.8602    0.4306    0.4991 H       1  UNL1        0.0428
     40 H          -9.2575    1.0872   -1.0325 H       1  UNL1        0.0428
     41 H          -6.4910   -0.0740    1.8509 H       1  UNL1        0.0428
     42 H          -8.1680   -0.8467    1.8484 H       1  UNL1        0.0428
     43 H          -7.9801    0.8212    2.3972 H       1  UNL1        0.0428
     44 H          -6.1740    2.9121    1.6778 H       1  UNL1        0.0647
     45 H          -3.8940    3.8330    3.0177 H       1  UNL1        0.0838
     46 H           0.5392    2.9857    2.3524 H       1  UNL1        0.1564
     47 H          -0.3691    0.3018   -0.1287 H       1  UNL1        0.0652
     48 H           1.3382   -0.9264   -1.3692 H       1  UNL1        0.0627
     49 H           6.0879   -2.8992   -1.5085 H       1  UNL1        0.0477
     50 H           5.6629   -1.7755   -2.8687 H       1  UNL1        0.0477
     51 H           7.2759   -0.1390   -1.9962 H       1  UNL1        0.0442
     52 H           8.0349   -1.6316   -2.6455 H       1  UNL1        0.0442
     53 H           8.8495    0.4421   -0.8661 H       1  UNL1        0.0427
     54 H           9.9814   -0.7111   -0.1276 H       1  UNL1        0.0427
     55 H           7.9944    0.9367    1.3284 H       1  UNL1        0.0278
     56 H           9.4400    0.0796    1.9177 H       1  UNL1        0.0278
     57 H           8.3800   -1.9749    2.1982 H       1  UNL1        0.0281
     58 H           7.0549   -0.8393    2.5388 H       1  UNL1        0.0281
     59 H           6.7008   -2.6823    0.5466 H       1  UNL1        0.0478
     60 H           6.3742    0.3203    0.1918 H       1  UNL1        0.0480
     61 H           5.2529   -0.7223    1.1827 H       1  UNL1        0.0480
     62 H           4.3641    1.3419    0.5356 H       1  UNL1        0.0838
     63 H          -3.2547    0.6131   -2.0350 H       1  UNL1        0.0528
     64 H          -2.5110   -0.6216    0.3852 H       1  UNL1        0.0285
     65 H          -2.1476   -1.1998   -1.3285 H       1  UNL1        0.0285
     66 H          -3.3897   -3.0183   -0.8549 H       1  UNL1        0.0266
     67 H          -3.8184   -2.4030    0.8143 H       1  UNL1        0.0266
     68 H          -5.6726   -2.7324   -1.2276 H       1  UNL1        0.0266
     69 H          -5.7319   -1.3652   -0.0152 H       1  UNL1        0.0266
     70 H          -5.6501   -0.4072   -2.4317 H       1  UNL1        0.0285
     71 H          -4.2315   -1.4121   -2.6453 H       1  UNL1        0.0285
@<TRIPOS>BOND
     1     1     2    1
     2     2     3    1
     3     2     4   am
     4     4     5    2
     5     4     6    1
     6     6     7   ar
     7     7     8   ar
     8     8     9   ar
     9     9    10   ar
    10    10    11   ar
    11    11    12    1
    12    12    13    1
    13    13    14   ar
    14    14    15   ar
    15    15    16   ar
    16    16    17    1
    17    17    18    2
    18    17    19   am
    19    19    20    1
    20    20    21    1
    21    21    22    1
    22    22    23    1
    23    23    24    1
    24    24    25    1
    25    25    26    1
    26    26    27    1
    27    16    28   ar
    28    28    29   ar
    29    11    30   ar
    30    30    31   ar
    31    31    32   ar
    32    32    33    1
    33    33    34    1
    34    34    35    1
    35    35    36    1
    36    36    37    1
    37    32     6   ar
    38    37    33    1
    39    31     8   ar
    40    29    13   ar
    41    27    19    1
    42    26    22    1
    43     1    38    1
    44     1    39    1
    45     1    40    1
    46     3    41    1
    47     3    42    1
    48     3    43    1
    49     7    44    1
    50     9    45    1
    51    12    46    1
    52    14    47    1
    53    15    48    1
    54    20    49    1
    55    20    50    1
    56    21    51    1
    57    21    52    1
    58    23    53    1
    59    23    54    1
    60    24    55    1
    61    24    56    1
    62    25    57    1
    63    25    58    1
    64    26    59    1
    65    27    60    1
    66    27    61    1
    67    28    62    1
    68    33    63    1
    69    34    64    1
    70    34    65    1
    71    35    66    1
    72    35    67    1
    73    36    68    1
    74    36    69    1
    75    37    70    1
    76    37    71    1
