
     RDKit          3D

 71 76  0  0  0  0  0  0  0  0999 V2000
   -9.0865    0.2846   -0.2786 C   0  0  0  0  0  0  0  0  0  0  0  0
   -7.7593    0.5325    0.3161 N   0  0  0  0  0  0  0  0  0  0  0  0
   -7.5658    0.0607    1.6747 C   0  0  0  0  0  0  0  0  0  0  0  0
   -6.7903    1.2141   -0.4518 C   0  0  0  0  0  0  0  0  0  0  0  0
   -7.1030    1.5946   -1.6162 O   0  0  0  0  0  0  0  0  0  0  0  0
   -5.4680    1.4631    0.1073 C   0  0  0  0  0  0  0  0  0  0  0  0
   -5.3696    2.3763    1.1703 C   0  0  0  0  0  0  0  0  0  0  0  0
   -4.0206    2.4402    1.4332 C   0  0  0  0  0  0  0  0  0  0  0  0
   -3.3178    3.1983    2.3608 C   0  0  0  0  0  0  0  0  0  0  0  0
   -1.9843    3.1073    2.3976 N   0  0  0  0  0  0  0  0  0  0  0  0
   -1.3130    2.2708    1.5276 C   0  0  0  0  0  0  0  0  0  0  0  0
    0.0909    2.3123    1.6528 N   0  0  0  0  0  0  0  0  0  0  0  0
    1.0209    1.5332    0.9274 C   0  0  0  0  0  0  0  0  0  0  0  0
    0.6813    0.5564    0.0418 C   0  0  0  0  0  0  0  0  0  0  0  0
    1.6292   -0.1554   -0.6696 C   0  0  0  0  0  0  0  0  0  0  0  0
    2.9978    0.0999   -0.5110 C   0  0  0  0  0  0  0  0  0  0  0  0
    3.9292   -0.6754   -1.3051 C   0  0  0  0  0  0  0  0  0  0  0  0
    3.5430   -1.0938   -2.4694 O   0  0  0  0  0  0  0  0  0  0  0  0
    5.2110   -1.0289   -0.9447 N   0  0  0  0  0  0  0  0  0  0  0  0
    6.0558   -1.8502   -1.8589 C   0  0  0  0  0  0  0  0  0  0  0  0
    7.4283   -1.2251   -1.8134 C   0  0  0  0  0  0  0  0  0  0  0  0
    8.0514   -1.4702   -0.5147 N   0  0  0  0  0  0  0  0  0  0  0  0
    8.9004   -0.3816   -0.1524 C   0  0  0  0  0  0  0  0  0  0  0  0
    8.5591   -0.0055    1.2756 C   0  0  0  0  0  0  0  0  0  0  0  0
    7.7355   -1.1903    1.7474 C   0  0  0  0  0  0  0  0  0  0  0  0
    7.0365   -1.6400    0.5116 C   0  0  0  0  0  0  0  0  0  0  0  0
    5.8504   -0.6723    0.2806 C   0  0  0  0  0  0  0  0  0  0  0  0
    3.3055    1.0850    0.3846 C   0  0  0  0  0  0  0  0  0  0  0  0
    2.3593    1.7675    1.0700 N   0  0  0  0  0  0  0  0  0  0  0  0
   -2.0023    1.5497    0.6480 N   0  0  0  0  0  0  0  0  0  0  0  0
   -3.3477    1.6153    0.5807 C   0  0  0  0  0  0  0  0  0  0  0  0
   -4.2671    1.0073   -0.2427 N   0  0  0  0  0  0  0  0  0  0  0  0
   -3.8509    0.0786   -1.2318 C   0  0  0  0  0  0  0  0  0  0  0  0
   -2.9273   -0.9461   -0.5589 C   0  0  0  0  0  0  0  0  0  0  0  0
   -3.7918   -2.1675   -0.2730 C   0  0  0  0  0  0  0  0  0  0  0  0
   -5.1621   -1.8327   -0.8171 C   0  0  0  0  0  0  0  0  0  0  0  0
   -4.8242   -0.8194   -1.8681 C   0  0  0  0  0  0  0  0  0  0  0  0
   -9.1636   -0.7169   -0.7062 H   0  0  0  0  0  0  0  0  0  0  0  0
   -9.8602    0.4306    0.4991 H   0  0  0  0  0  0  0  0  0  0  0  0
   -9.2575    1.0872   -1.0325 H   0  0  0  0  0  0  0  0  0  0  0  0
   -6.4910   -0.0740    1.8509 H   0  0  0  0  0  0  0  0  0  0  0  0
   -8.1680   -0.8467    1.8484 H   0  0  0  0  0  0  0  0  0  0  0  0
   -7.9801    0.8212    2.3972 H   0  0  0  0  0  0  0  0  0  0  0  0
   -6.1740    2.9121    1.6778 H   0  0  0  0  0  0  0  0  0  0  0  0
   -3.8940    3.8330    3.0177 H   0  0  0  0  0  0  0  0  0  0  0  0
    0.5392    2.9857    2.3524 H   0  0  0  0  0  0  0  0  0  0  0  0
   -0.3691    0.3018   -0.1287 H   0  0  0  0  0  0  0  0  0  0  0  0
    1.3382   -0.9264   -1.3692 H   0  0  0  0  0  0  0  0  0  0  0  0
    6.0879   -2.8992   -1.5085 H   0  0  0  0  0  0  0  0  0  0  0  0
    5.6629   -1.7755   -2.8687 H   0  0  0  0  0  0  0  0  0  0  0  0
    7.2759   -0.1390   -1.9962 H   0  0  0  0  0  0  0  0  0  0  0  0
    8.0349   -1.6316   -2.6455 H   0  0  0  0  0  0  0  0  0  0  0  0
    8.8495    0.4421   -0.8661 H   0  0  0  0  0  0  0  0  0  0  0  0
    9.9814   -0.7111   -0.1276 H   0  0  0  0  0  0  0  0  0  0  0  0
    7.9944    0.9367    1.3284 H   0  0  0  0  0  0  0  0  0  0  0  0
    9.4400    0.0796    1.9177 H   0  0  0  0  0  0  0  0  0  0  0  0
    8.3800   -1.9749    2.1982 H   0  0  0  0  0  0  0  0  0  0  0  0
    7.0549   -0.8393    2.5388 H   0  0  0  0  0  0  0  0  0  0  0  0
    6.7008   -2.6823    0.5466 H   0  0  0  0  0  0  0  0  0  0  0  0
    6.3742    0.3203    0.1918 H   0  0  0  0  0  0  0  0  0  0  0  0
    5.2529   -0.7223    1.1827 H   0  0  0  0  0  0  0  0  0  0  0  0
    4.3641    1.3419    0.5356 H   0  0  0  0  0  0  0  0  0  0  0  0
   -3.2547    0.6131   -2.0350 H   0  0  0  0  0  0  0  0  0  0  0  0
   -2.5110   -0.6216    0.3852 H   0  0  0  0  0  0  0  0  0  0  0  0
   -2.1476   -1.1998   -1.3285 H   0  0  0  0  0  0  0  0  0  0  0  0
   -3.3897   -3.0183   -0.8549 H   0  0  0  0  0  0  0  0  0  0  0  0
   -3.8184   -2.4030    0.8143 H   0  0  0  0  0  0  0  0  0  0  0  0
   -5.6726   -2.7324   -1.2276 H   0  0  0  0  0  0  0  0  0  0  0  0
   -5.7319   -1.3652   -0.0152 H   0  0  0  0  0  0  0  0  0  0  0  0
   -5.6501   -0.4072   -2.4317 H   0  0  0  0  0  0  0  0  0  0  0  0
   -4.2315   -1.4121   -2.6453 H   0  0  0  0  0  0  0  0  0  0  0  0
  1  2  1  0
  2  3  1  0
  2  4  1  0
  4  5  2  0
  4  6  1  0
  6  7  2  0
  7  8  1  0
  8  9  2  0
  9 10  1  0
 10 11  2  0
 11 12  1  0
 12 13  1  0
 13 14  2  0
 14 15  1  0
 15 16  2  0
 16 17  1  0
 17 18  2  0
 17 19  1  0
 19 20  1  0
 20 21  1  0
 21 22  1  0
 22 23  1  0
 23 24  1  0
 24 25  1  0
 25 26  1  0
 26 27  1  0
 16 28  1  0
 28 29  2  0
 11 30  1  0
 30 31  2  0
 31 32  1  0
 32 33  1  0
 33 34  1  0
 34 35  1  0
 35 36  1  0
 36 37  1  0
 32  6  1  0
 37 33  1  0
 31  8  1  0
 29 13  1  0
 27 19  1  0
 26 22  1  0
  1 38  1  0
  1 39  1  0
  1 40  1  0
  3 41  1  0
  3 42  1  0
  3 43  1  0
  7 44  1  0
  9 45  1  0
 12 46  1  0
 14 47  1  0
 15 48  1  0
 20 49  1  0
 20 50  1  0
 21 51  1  0
 21 52  1  0
 23 53  1  0
 23 54  1  0
 24 55  1  0
 24 56  1  0
 25 57  1  0
 25 58  1  0
 26 59  1  0
 27 60  1  0
 27 61  1  0
 28 62  1  0
 33 63  1  0
 34 64  1  0
 34 65  1  0
 35 66  1  0
 35 67  1  0
 36 68  1  0
 36 69  1  0
 37 70  1  0
 37 71  1  0
M  END
$$$$
