@<TRIPOS>MOLECULE
*****
 70 73 0 0 0
SMALL
GASTEIGER

@<TRIPOS>ATOM
      1 C           9.2060   -1.8744   -1.1116 C.3     1  UNL1       -0.0586
      2 C           7.9150   -2.0490   -0.3647 C.3     1  UNL1        0.0030
      3 C           6.9446   -0.9918   -0.7818 C.2     1  UNL1        0.1331
      4 O           7.2477   -0.1604   -1.6134 O.2     1  UNL1       -0.2974
      5 C           5.5831   -0.9840   -0.1451 C.3     1  UNL1        0.0058
      6 C           4.7946    0.1526   -0.7133 C.3     1  UNL1       -0.0464
      7 C           3.4208    0.2651   -0.1174 C.3     1  UNL1       -0.0526
      8 C           2.6399   -0.9803   -0.3819 C.3     1  UNL1       -0.0510
      9 C           1.2505   -1.0003    0.1730 C.3     1  UNL1       -0.0275
     10 C           0.3182    0.0181   -0.3320 C.3     1  UNL1        0.0810
     11 N           0.6355    1.3959   -0.1313 N.am    1  UNL1       -0.3052
     12 C           0.4155    2.3052   -1.2327 C.2     1  UNL1        0.2191
     13 O          -0.0447    1.8485   -2.3211 O.2     1  UNL1       -0.2754
     14 C           0.7055    3.7393   -1.1384 C.3     1  UNL1        0.0609
     15 C          -0.0542    4.5098   -0.0872 C.3     1  UNL1        0.0109
     16 N           1.1387    5.0379    0.5040 N.3     1  UNL1       -0.3038
     17 C           1.4037    6.4382    0.2115 C.3     1  UNL1       -0.0127
     18 C           1.9104    4.1023   -0.2976 C.3     1  UNL1        0.0109
     19 C          -1.0202   -0.1754    0.3628 C.ar    1  UNL1        0.1279
     20 N          -1.3427    0.2845    1.5730 N.ar    1  UNL1       -0.2383
     21 C          -2.6049   -0.0827    1.8567 C.ar    1  UNL1        0.0537
     22 C          -3.0579   -0.8008    0.7534 C.ar    1  UNL1        0.0712
     23 C          -4.3956   -1.3789    0.6584 C.ar    1  UNL1        0.0619
     24 C          -5.2457   -1.2086    1.7561 C.ar    1  UNL1       -0.0383
     25 C          -6.5035   -1.7261    1.7168 C.ar    1  UNL1        0.0013
     26 C          -7.3940   -1.5855    2.7871 C.ar    1  UNL1       -0.0525
     27 C          -8.6633   -2.1203    2.7224 C.ar    1  UNL1       -0.0611
     28 C          -9.0453   -2.7944    1.5928 C.ar    1  UNL1       -0.0597
     29 C          -8.1712   -2.9317    0.5439 C.ar    1  UNL1       -0.0356
     30 C          -6.8875   -2.4023    0.5846 C.ar    1  UNL1        0.0748
     31 N          -6.0700   -2.5642   -0.4670 N.ar    1  UNL1       -0.2124
     32 C          -4.8105   -2.0574   -0.4524 C.ar    1  UNL1        0.2244
     33 O          -3.9893   -2.2379   -1.5476 O.3     1  UNL1       -0.4792
     34 C          -4.4469   -2.9411   -2.6765 C.3     1  UNL1        0.0804
     35 N          -2.0850   -0.8500   -0.1480 N.ar    1  UNL1       -0.3402
     36 H          10.0402   -1.9562   -0.3794 H       1  UNL1        0.0234
     37 H           9.3121   -2.6545   -1.8918 H       1  UNL1        0.0234
     38 H           9.2037   -0.8948   -1.6330 H       1  UNL1        0.0234
     39 H           7.4568   -3.0526   -0.5966 H       1  UNL1        0.0339
     40 H           8.0732   -1.9461    0.7293 H       1  UNL1        0.0339
     41 H           5.7083   -0.8919    0.9497 H       1  UNL1        0.0342
     42 H           5.1012   -1.9569   -0.4409 H       1  UNL1        0.0342
     43 H           5.2931    1.1361   -0.5697 H       1  UNL1        0.0269
     44 H           4.6816    0.0004   -1.8096 H       1  UNL1        0.0269
     45 H           2.8865    1.1262   -0.5731 H       1  UNL1        0.0265
     46 H           3.4803    0.3801    0.9925 H       1  UNL1        0.0265
     47 H           2.5637   -1.1796   -1.4895 H       1  UNL1        0.0266
     48 H           3.2004   -1.8873    0.0069 H       1  UNL1        0.0266
     49 H           0.8261   -2.0102   -0.1460 H       1  UNL1        0.0287
     50 H           1.2509   -1.0899    1.2931 H       1  UNL1        0.0287
     51 H           0.0909   -0.1594   -1.4117 H       1  UNL1        0.0579
     52 H           1.0159    1.7904    0.7616 H       1  UNL1        0.1494
     53 H           0.7002    4.2490   -2.0982 H       1  UNL1        0.0419
     54 H          -0.6587    5.3666   -0.5067 H       1  UNL1        0.0434
     55 H          -0.7145    3.9195    0.5579 H       1  UNL1        0.0434
     56 H           2.3280    6.4715   -0.3963 H       1  UNL1        0.0391
     57 H           0.5764    6.8928   -0.3603 H       1  UNL1        0.0391
     58 H           1.5507    6.9738    1.1491 H       1  UNL1        0.0391
     59 H           2.6683    4.6827   -0.8986 H       1  UNL1        0.0434
     60 H           2.3476    3.2930    0.2988 H       1  UNL1        0.0434
     61 H          -3.1118    0.1582    2.7684 H       1  UNL1        0.0851
     62 H          -4.9178   -0.6750    2.6287 H       1  UNL1        0.0632
     63 H          -7.0352   -1.0387    3.6614 H       1  UNL1        0.0624
     64 H          -9.3343   -1.9980    3.5642 H       1  UNL1        0.0618
     65 H         -10.0471   -3.2273    1.5189 H       1  UNL1        0.0618
     66 H          -8.4682   -3.4625   -0.3486 H       1  UNL1        0.0639
     67 H          -4.0974   -3.9726   -2.7247 H       1  UNL1        0.0660
     68 H          -4.0552   -2.4161   -3.5847 H       1  UNL1        0.0660
     69 H          -5.5526   -2.8729   -2.7126 H       1  UNL1        0.0660
     70 H          -2.0603   -1.2980   -1.0871 H       1  UNL1        0.1671
@<TRIPOS>BOND
     1     1     2    1
     2     2     3    1
     3     3     4    2
     4     3     5    1
     5     5     6    1
     6     6     7    1
     7     7     8    1
     8     8     9    1
     9     9    10    1
    10    10    11    1
    11    11    12   am
    12    12    13    2
    13    12    14    1
    14    14    15    1
    15    15    16    1
    16    16    17    1
    17    16    18    1
    18    10    19    1
    19    19    20   ar
    20    20    21   ar
    21    21    22   ar
    22    22    23    1
    23    23    24   ar
    24    24    25   ar
    25    25    26   ar
    26    26    27   ar
    27    27    28   ar
    28    28    29   ar
    29    29    30   ar
    30    30    31   ar
    31    31    32   ar
    32    32    33    1
    33    33    34    1
    34    22    35   ar
    35    18    14    1
    36    35    19   ar
    37    32    23   ar
    38    30    25   ar
    39     1    36    1
    40     1    37    1
    41     1    38    1
    42     2    39    1
    43     2    40    1
    44     5    41    1
    45     5    42    1
    46     6    43    1
    47     6    44    1
    48     7    45    1
    49     7    46    1
    50     8    47    1
    51     8    48    1
    52     9    49    1
    53     9    50    1
    54    10    51    1
    55    11    52    1
    56    14    53    1
    57    15    54    1
    58    15    55    1
    59    17    56    1
    60    17    57    1
    61    17    58    1
    62    18    59    1
    63    18    60    1
    64    21    61    1
    65    24    62    1
    66    26    63    1
    67    27    64    1
    68    28    65    1
    69    29    66    1
    70    34    67    1
    71    34    68    1
    72    34    69    1
    73    35    70    1
