
     RDKit          3D

 70 73  0  0  0  0  0  0  0  0999 V2000
    9.2060   -1.8744   -1.1116 C   0  0  0  0  0  0  0  0  0  0  0  0
    7.9150   -2.0490   -0.3647 C   0  0  0  0  0  0  0  0  0  0  0  0
    6.9446   -0.9918   -0.7818 C   0  0  0  0  0  0  0  0  0  0  0  0
    7.2477   -0.1604   -1.6134 O   0  0  0  0  0  0  0  0  0  0  0  0
    5.5831   -0.9840   -0.1451 C   0  0  0  0  0  0  0  0  0  0  0  0
    4.7946    0.1526   -0.7133 C   0  0  0  0  0  0  0  0  0  0  0  0
    3.4208    0.2651   -0.1174 C   0  0  0  0  0  0  0  0  0  0  0  0
    2.6399   -0.9803   -0.3819 C   0  0  0  0  0  0  0  0  0  0  0  0
    1.2505   -1.0003    0.1730 C   0  0  0  0  0  0  0  0  0  0  0  0
    0.3182    0.0181   -0.3320 C   0  0  2  0  0  0  0  0  0  0  0  0
    0.6355    1.3959   -0.1313 N   0  0  0  0  0  0  0  0  0  0  0  0
    0.4155    2.3052   -1.2327 C   0  0  0  0  0  0  0  0  0  0  0  0
   -0.0447    1.8485   -2.3211 O   0  0  0  0  0  0  0  0  0  0  0  0
    0.7055    3.7393   -1.1384 C   0  0  0  0  0  0  0  0  0  0  0  0
   -0.0542    4.5098   -0.0872 C   0  0  0  0  0  0  0  0  0  0  0  0
    1.1387    5.0379    0.5040 N   0  0  0  0  0  0  0  0  0  0  0  0
    1.4037    6.4382    0.2115 C   0  0  0  0  0  0  0  0  0  0  0  0
    1.9104    4.1023   -0.2976 C   0  0  0  0  0  0  0  0  0  0  0  0
   -1.0202   -0.1754    0.3628 C   0  0  0  0  0  0  0  0  0  0  0  0
   -1.3427    0.2845    1.5730 N   0  0  0  0  0  0  0  0  0  0  0  0
   -2.6049   -0.0827    1.8567 C   0  0  0  0  0  0  0  0  0  0  0  0
   -3.0579   -0.8008    0.7534 C   0  0  0  0  0  0  0  0  0  0  0  0
   -4.3956   -1.3789    0.6584 C   0  0  0  0  0  0  0  0  0  0  0  0
   -5.2457   -1.2086    1.7561 C   0  0  0  0  0  0  0  0  0  0  0  0
   -6.5035   -1.7261    1.7168 C   0  0  0  0  0  0  0  0  0  0  0  0
   -7.3940   -1.5855    2.7871 C   0  0  0  0  0  0  0  0  0  0  0  0
   -8.6633   -2.1203    2.7224 C   0  0  0  0  0  0  0  0  0  0  0  0
   -9.0453   -2.7944    1.5928 C   0  0  0  0  0  0  0  0  0  0  0  0
   -8.1712   -2.9317    0.5439 C   0  0  0  0  0  0  0  0  0  0  0  0
   -6.8875   -2.4023    0.5846 C   0  0  0  0  0  0  0  0  0  0  0  0
   -6.0700   -2.5642   -0.4670 N   0  0  0  0  0  0  0  0  0  0  0  0
   -4.8105   -2.0574   -0.4524 C   0  0  0  0  0  0  0  0  0  0  0  0
   -3.9893   -2.2379   -1.5476 O   0  0  0  0  0  0  0  0  0  0  0  0
   -4.4469   -2.9411   -2.6765 C   0  0  0  0  0  0  0  0  0  0  0  0
   -2.0850   -0.8500   -0.1480 N   0  0  0  0  0  0  0  0  0  0  0  0
   10.0402   -1.9562   -0.3794 H   0  0  0  0  0  0  0  0  0  0  0  0
    9.3121   -2.6545   -1.8918 H   0  0  0  0  0  0  0  0  0  0  0  0
    9.2037   -0.8948   -1.6330 H   0  0  0  0  0  0  0  0  0  0  0  0
    7.4568   -3.0526   -0.5966 H   0  0  0  0  0  0  0  0  0  0  0  0
    8.0732   -1.9461    0.7293 H   0  0  0  0  0  0  0  0  0  0  0  0
    5.7083   -0.8919    0.9497 H   0  0  0  0  0  0  0  0  0  0  0  0
    5.1012   -1.9569   -0.4409 H   0  0  0  0  0  0  0  0  0  0  0  0
    5.2931    1.1361   -0.5697 H   0  0  0  0  0  0  0  0  0  0  0  0
    4.6816    0.0004   -1.8096 H   0  0  0  0  0  0  0  0  0  0  0  0
    2.8865    1.1262   -0.5731 H   0  0  0  0  0  0  0  0  0  0  0  0
    3.4803    0.3801    0.9925 H   0  0  0  0  0  0  0  0  0  0  0  0
    2.5637   -1.1796   -1.4895 H   0  0  0  0  0  0  0  0  0  0  0  0
    3.2004   -1.8873    0.0069 H   0  0  0  0  0  0  0  0  0  0  0  0
    0.8261   -2.0102   -0.1460 H   0  0  0  0  0  0  0  0  0  0  0  0
    1.2509   -1.0899    1.2931 H   0  0  0  0  0  0  0  0  0  0  0  0
    0.0909   -0.1594   -1.4117 H   0  0  0  0  0  0  0  0  0  0  0  0
    1.0159    1.7904    0.7616 H   0  0  0  0  0  0  0  0  0  0  0  0
    0.7002    4.2490   -2.0982 H   0  0  0  0  0  0  0  0  0  0  0  0
   -0.6587    5.3666   -0.5067 H   0  0  0  0  0  0  0  0  0  0  0  0
   -0.7145    3.9195    0.5579 H   0  0  0  0  0  0  0  0  0  0  0  0
    2.3280    6.4715   -0.3963 H   0  0  0  0  0  0  0  0  0  0  0  0
    0.5764    6.8928   -0.3603 H   0  0  0  0  0  0  0  0  0  0  0  0
    1.5507    6.9738    1.1491 H   0  0  0  0  0  0  0  0  0  0  0  0
    2.6683    4.6827   -0.8986 H   0  0  0  0  0  0  0  0  0  0  0  0
    2.3476    3.2930    0.2988 H   0  0  0  0  0  0  0  0  0  0  0  0
   -3.1118    0.1582    2.7684 H   0  0  0  0  0  0  0  0  0  0  0  0
   -4.9178   -0.6750    2.6287 H   0  0  0  0  0  0  0  0  0  0  0  0
   -7.0352   -1.0387    3.6614 H   0  0  0  0  0  0  0  0  0  0  0  0
   -9.3343   -1.9980    3.5642 H   0  0  0  0  0  0  0  0  0  0  0  0
  -10.0471   -3.2273    1.5189 H   0  0  0  0  0  0  0  0  0  0  0  0
   -8.4682   -3.4625   -0.3486 H   0  0  0  0  0  0  0  0  0  0  0  0
   -4.0974   -3.9726   -2.7247 H   0  0  0  0  0  0  0  0  0  0  0  0
   -4.0552   -2.4161   -3.5847 H   0  0  0  0  0  0  0  0  0  0  0  0
   -5.5526   -2.8729   -2.7126 H   0  0  0  0  0  0  0  0  0  0  0  0
   -2.0603   -1.2980   -1.0871 H   0  0  0  0  0  0  0  0  0  0  0  0
  1  2  1  0
  2  3  1  0
  3  4  2  0
  3  5  1  0
  5  6  1  0
  6  7  1  0
  7  8  1  0
  8  9  1  0
  9 10  1  0
 10 11  1  0
 11 12  1  0
 12 13  2  0
 12 14  1  0
 14 15  1  0
 15 16  1  0
 16 17  1  0
 16 18  1  0
 10 19  1  0
 19 20  2  0
 20 21  1  0
 21 22  2  0
 22 23  1  0
 23 24  2  0
 24 25  1  0
 25 26  2  0
 26 27  1  0
 27 28  2  0
 28 29  1  0
 29 30  2  0
 30 31  1  0
 31 32  2  0
 32 33  1  0
 33 34  1  0
 22 35  1  0
 18 14  1  0
 35 19  1  0
 32 23  1  0
 30 25  1  0
  1 36  1  0
  1 37  1  0
  1 38  1  0
  2 39  1  0
  2 40  1  0
  5 41  1  0
  5 42  1  0
  6 43  1  0
  6 44  1  0
  7 45  1  0
  7 46  1  0
  8 47  1  0
  8 48  1  0
  9 49  1  0
  9 50  1  0
 10 51  1  6
 11 52  1  0
 14 53  1  0
 15 54  1  0
 15 55  1  0
 17 56  1  0
 17 57  1  0
 17 58  1  0
 18 59  1  0
 18 60  1  0
 21 61  1  0
 24 62  1  0
 26 63  1  0
 27 64  1  0
 28 65  1  0
 29 66  1  0
 34 67  1  0
 34 68  1  0
 34 69  1  0
 35 70  1  0
M  END
$$$$
