
     RDKit          3D

 43 45  0  0  0  0  0  0  0  0999 V2000
    6.3325    0.5392    0.0668 C   0  0  0  0  0  0  0  0  0  0  0  0
    4.8395    0.5411   -0.0698 C   0  0  0  0  0  0  0  0  0  0  0  0
    4.1162    1.2497    0.8682 C   0  0  0  0  0  0  0  0  0  0  0  0
    2.7437    1.2867    0.7926 C   0  0  0  0  0  0  0  0  0  0  0  0
    2.0336    0.6240   -0.2142 C   0  0  0  0  0  0  0  0  0  0  0  0
    0.2535    0.6943   -0.2806 S   0  0  0  0  0  0  0  0  0  0  0  0
   -0.4913   -0.6291    0.6457 C   0  0  0  0  0  0  0  0  0  0  0  0
    0.3697   -1.5151    1.2783 C   0  0  0  0  0  0  0  0  0  0  0  0
   -0.1165   -2.5711    2.0050 C   0  0  0  0  0  0  0  0  0  0  0  0
   -1.4728   -2.7274    2.0894 C   0  0  0  0  0  0  0  0  0  0  0  0
   -2.3096   -1.8423    1.4581 C   0  0  0  0  0  0  0  0  0  0  0  0
   -1.8600   -0.7468    0.7034 C   0  0  0  0  0  0  0  0  0  0  0  0
   -2.7859    0.1356    0.0932 N   0  0  0  0  0  0  0  0  0  0  0  0
   -4.1721   -0.2494    0.0981 C   0  0  0  0  0  0  0  0  0  0  0  0
   -5.0967    0.5104   -0.7629 C   0  0  0  0  0  0  0  0  0  0  0  0
   -4.4446    1.4094   -1.6756 N   0  0  0  0  0  0  0  0  0  0  0  0
   -3.5973    2.2583   -0.8269 C   0  0  0  0  0  0  0  0  0  0  0  0
   -2.3818    1.3713   -0.4909 C   0  0  0  0  0  0  0  0  0  0  0  0
    2.7813   -0.0812   -1.1451 C   0  0  0  0  0  0  0  0  0  0  0  0
    2.0646   -0.8016   -2.2341 C   0  0  0  0  0  0  0  0  0  0  0  0
    4.1748   -0.1126   -1.0595 C   0  0  0  0  0  0  0  0  0  0  0  0
    6.6158    0.7699    1.1199 H   0  0  0  0  0  0  0  0  0  0  0  0
    6.7801   -0.4096   -0.2543 H   0  0  0  0  0  0  0  0  0  0  0  0
    6.7619    1.3695   -0.5576 H   0  0  0  0  0  0  0  0  0  0  0  0
    4.6552    1.7771    1.6668 H   0  0  0  0  0  0  0  0  0  0  0  0
    2.2219    1.8536    1.5482 H   0  0  0  0  0  0  0  0  0  0  0  0
    1.4562   -1.3793    1.2034 H   0  0  0  0  0  0  0  0  0  0  0  0
    0.5857   -3.2598    2.4974 H   0  0  0  0  0  0  0  0  0  0  0  0
   -1.9157   -3.5411    2.6478 H   0  0  0  0  0  0  0  0  0  0  0  0
   -3.4027   -1.9571    1.5225 H   0  0  0  0  0  0  0  0  0  0  0  0
   -4.4870   -0.1990    1.1753 H   0  0  0  0  0  0  0  0  0  0  0  0
   -4.1918   -1.3225   -0.2194 H   0  0  0  0  0  0  0  0  0  0  0  0
   -5.8273   -0.1597   -1.2719 H   0  0  0  0  0  0  0  0  0  0  0  0
   -5.7405    1.1627   -0.1016 H   0  0  0  0  0  0  0  0  0  0  0  0
   -3.8927    0.8573   -2.3458 H   0  0  0  0  0  0  0  0  0  0  0  0
   -4.0785    2.5182    0.1111 H   0  0  0  0  0  0  0  0  0  0  0  0
   -3.2632    3.1115   -1.4472 H   0  0  0  0  0  0  0  0  0  0  0  0
   -1.8394    1.3075   -1.4342 H   0  0  0  0  0  0  0  0  0  0  0  0
   -1.7969    1.9287    0.2837 H   0  0  0  0  0  0  0  0  0  0  0  0
    1.1669   -0.2703   -2.5741 H   0  0  0  0  0  0  0  0  0  0  0  0
    1.7176   -1.8115   -1.8808 H   0  0  0  0  0  0  0  0  0  0  0  0
    2.7759   -1.0253   -3.0713 H   0  0  0  0  0  0  0  0  0  0  0  0
    4.7177   -0.6642   -1.7916 H   0  0  0  0  0  0  0  0  0  0  0  0
  1  2  1  0
  2  3  2  0
  3  4  1  0
  4  5  2  0
  5  6  1  0
  6  7  1  0
  7  8  2  0
  8  9  1  0
  9 10  2  0
 10 11  1  0
 11 12  2  0
 12 13  1  0
 13 14  1  0
 14 15  1  0
 15 16  1  0
 16 17  1  0
 17 18  1  0
  5 19  1  0
 19 20  1  0
 19 21  2  0
 21  2  1  0
 12  7  1  0
 18 13  1  0
  1 22  1  0
  1 23  1  0
  1 24  1  0
  3 25  1  0
  4 26  1  0
  8 27  1  0
  9 28  1  0
 10 29  1  0
 11 30  1  0
 14 31  1  0
 14 32  1  0
 15 33  1  0
 15 34  1  0
 16 35  1  0
 17 36  1  0
 17 37  1  0
 18 38  1  0
 18 39  1  0
 20 40  1  0
 20 41  1  0
 20 42  1  0
 21 43  1  0
M  END
$$$$
