@<TRIPOS>MOLECULE
*****
 43 45 0 0 0
SMALL
GASTEIGER

@<TRIPOS>ATOM
      1 C           6.3325    0.5392    0.0668 C.3     1  UNL1       -0.0397
      2 C           4.8395    0.5411   -0.0698 C.ar    1  UNL1       -0.0501
      3 C           4.1162    1.2497    0.8682 C.ar    1  UNL1       -0.0578
      4 C           2.7437    1.2867    0.7926 C.ar    1  UNL1       -0.0475
      5 C           2.0336    0.6240   -0.2142 C.ar    1  UNL1        0.0157
      6 S           0.2535    0.6943   -0.2806 S.3     1  UNL1       -0.0873
      7 C          -0.4913   -0.6291    0.6457 C.ar    1  UNL1        0.0337
      8 C           0.3697   -1.5151    1.2783 C.ar    1  UNL1       -0.0462
      9 C          -0.1165   -2.5711    2.0050 C.ar    1  UNL1       -0.0606
     10 C          -1.4728   -2.7274    2.0894 C.ar    1  UNL1       -0.0599
     11 C          -2.3096   -1.8423    1.4581 C.ar    1  UNL1       -0.0396
     12 C          -1.8600   -0.7468    0.7034 C.ar    1  UNL1        0.0437
     13 N          -2.7859    0.1356    0.0932 N.pl3   1  UNL1       -0.3266
     14 C          -4.1721   -0.2494    0.0981 C.3     1  UNL1        0.0248
     15 C          -5.0967    0.5104   -0.7629 C.3     1  UNL1        0.0117
     16 N          -4.4446    1.4094   -1.6756 N.3     1  UNL1       -0.3130
     17 C          -3.5973    2.2583   -0.8269 C.3     1  UNL1        0.0117
     18 C          -2.3818    1.3713   -0.4909 C.3     1  UNL1        0.0248
     19 C           2.7813   -0.0812   -1.1451 C.ar    1  UNL1       -0.0365
     20 C           2.0646   -0.8016   -2.2341 C.3     1  UNL1       -0.0386
     21 C           4.1748   -0.1126   -1.0595 C.ar    1  UNL1       -0.0549
     22 H           6.6158    0.7699    1.1199 H       1  UNL1        0.0278
     23 H           6.7801   -0.4096   -0.2543 H       1  UNL1        0.0278
     24 H           6.7619    1.3695   -0.5576 H       1  UNL1        0.0278
     25 H           4.6552    1.7771    1.6668 H       1  UNL1        0.0621
     26 H           2.2219    1.8536    1.5482 H       1  UNL1        0.0629
     27 H           1.4562   -1.3793    1.2034 H       1  UNL1        0.0629
     28 H           0.5857   -3.2598    2.4974 H       1  UNL1        0.0618
     29 H          -1.9157   -3.5411    2.6478 H       1  UNL1        0.0618
     30 H          -3.4027   -1.9571    1.5225 H       1  UNL1        0.0636
     31 H          -4.4870   -0.1990    1.1753 H       1  UNL1        0.0476
     32 H          -4.1918   -1.3225   -0.2194 H       1  UNL1        0.0476
     33 H          -5.8273   -0.1597   -1.2719 H       1  UNL1        0.0439
     34 H          -5.7405    1.1627   -0.1016 H       1  UNL1        0.0439
     35 H          -3.8927    0.8573   -2.3458 H       1  UNL1        0.1220
     36 H          -4.0785    2.5182    0.1111 H       1  UNL1        0.0439
     37 H          -3.2632    3.1115   -1.4472 H       1  UNL1        0.0439
     38 H          -1.8394    1.3075   -1.4342 H       1  UNL1        0.0476
     39 H          -1.7969    1.9287    0.2837 H       1  UNL1        0.0476
     40 H           1.1669   -0.2703   -2.5741 H       1  UNL1        0.0278
     41 H           1.7176   -1.8115   -1.8808 H       1  UNL1        0.0278
     42 H           2.7759   -1.0253   -3.0713 H       1  UNL1        0.0278
     43 H           4.7177   -0.6642   -1.7916 H       1  UNL1        0.0623
@<TRIPOS>BOND
     1     1     2    1
     2     2     3   ar
     3     3     4   ar
     4     4     5   ar
     5     5     6    1
     6     6     7    1
     7     7     8   ar
     8     8     9   ar
     9     9    10   ar
    10    10    11   ar
    11    11    12   ar
    12    12    13    1
    13    13    14    1
    14    14    15    1
    15    15    16    1
    16    16    17    1
    17    17    18    1
    18     5    19   ar
    19    19    20    1
    20    19    21   ar
    21    21     2   ar
    22    12     7   ar
    23    18    13    1
    24     1    22    1
    25     1    23    1
    26     1    24    1
    27     3    25    1
    28     4    26    1
    29     8    27    1
    30     9    28    1
    31    10    29    1
    32    11    30    1
    33    14    31    1
    34    14    32    1
    35    15    33    1
    36    15    34    1
    37    16    35    1
    38    17    36    1
    39    17    37    1
    40    18    38    1
    41    18    39    1
    42    20    40    1
    43    20    41    1
    44    20    42    1
    45    21    43    1
