
     RDKit          3D

 42 42  0  0  0  0  0  0  0  0999 V2000
   -3.1547    0.9906    0.6785 C   0  0  0  0  0  0  0  0  0  0  0  0
   -1.8864    0.1452    0.8522 C   0  0  1  0  0  0  0  0  0  0  0  0
   -2.3305   -0.9380    1.8110 C   0  0  0  0  0  0  0  0  0  0  0  0
   -2.3662   -2.1481    1.4995 O   0  0  0  0  0  0  0  0  0  0  0  0
   -2.7198   -0.5973    3.0981 O   0  0  0  0  0  0  0  0  0  0  0  0
   -1.5355   -0.3792   -0.4215 N   0  0  0  0  0  0  0  0  0  0  0  0
   -2.5976   -1.2457   -1.0507 C   0  0  0  0  0  0  0  0  0  0  0  0
   -0.3776   -0.2267   -1.1924 C   0  0  0  0  0  0  0  0  0  0  0  0
   -0.4578   -0.9667   -2.2965 O   0  0  0  0  0  0  0  0  0  0  0  0
    0.8396    0.5265   -1.0566 C   0  0  1  0  0  0  0  0  0  0  0  0
    0.9413    1.9210   -1.4922 C   0  0  0  0  0  0  0  0  0  0  0  0
    0.1071    2.9742   -0.9236 C   0  0  0  0  0  0  0  0  0  0  0  0
   -0.7183    2.9364   -0.0178 O   0  0  0  0  0  0  0  0  0  0  0  0
    0.2545    4.3176   -1.5103 N   0  0  0  0  0  0  0  0  0  0  0  0
   -0.4879    5.3281   -1.0278 O   0  0  0  0  0  0  0  0  0  0  0  0
    1.6152    0.3514    0.2412 C   0  0  0  0  0  0  0  0  0  0  0  0
    2.0547   -1.0605    0.4414 C   0  0  0  0  0  0  0  0  0  0  0  0
    3.2861   -1.4107   -0.1307 C   0  0  0  0  0  0  0  0  0  0  0  0
    3.7362   -2.6957    0.0295 C   0  0  0  0  0  0  0  0  0  0  0  0
    3.0090   -3.6226    0.7293 C   0  0  0  0  0  0  0  0  0  0  0  0
    1.8147   -3.2588    1.2766 C   0  0  0  0  0  0  0  0  0  0  0  0
    1.3334   -1.9926    1.1398 C   0  0  0  0  0  0  0  0  0  0  0  0
   -3.1370    1.4917   -0.3279 H   0  0  0  0  0  0  0  0  0  0  0  0
   -4.0167    0.2956    0.6418 H   0  0  0  0  0  0  0  0  0  0  0  0
   -3.2740    1.6963    1.5026 H   0  0  0  0  0  0  0  0  0  0  0  0
   -1.1860    0.7583    1.3842 H   0  0  0  0  0  0  0  0  0  0  0  0
   -3.0207   -1.2871    3.7856 H   0  0  0  0  0  0  0  0  0  0  0  0
   -2.1760   -2.2259   -1.2662 H   0  0  0  0  0  0  0  0  0  0  0  0
   -2.8842   -0.7013   -1.9609 H   0  0  0  0  0  0  0  0  0  0  0  0
   -3.4557   -1.3547   -0.4023 H   0  0  0  0  0  0  0  0  0  0  0  0
    1.5904   -0.0299   -1.7921 H   0  0  0  0  0  0  0  0  0  0  0  0
    2.0165    2.2573   -1.2491 H   0  0  0  0  0  0  0  0  0  0  0  0
    0.9666    2.0039   -2.6292 H   0  0  0  0  0  0  0  0  0  0  0  0
    0.9280    4.4641   -2.2860 H   0  0  0  0  0  0  0  0  0  0  0  0
    0.0244    5.9833   -0.5045 H   0  0  0  0  0  0  0  0  0  0  0  0
    1.1230    0.7410    1.1245 H   0  0  0  0  0  0  0  0  0  0  0  0
    2.5681    0.9540    0.1478 H   0  0  0  0  0  0  0  0  0  0  0  0
    3.8767   -0.7069   -0.6833 H   0  0  0  0  0  0  0  0  0  0  0  0
    4.6892   -3.0198   -0.3963 H   0  0  0  0  0  0  0  0  0  0  0  0
    3.3747   -4.6139    0.8426 H   0  0  0  0  0  0  0  0  0  0  0  0
    1.2354   -3.9936    1.8329 H   0  0  0  0  0  0  0  0  0  0  0  0
    0.3977   -1.6612    1.5587 H   0  0  0  0  0  0  0  0  0  0  0  0
  1  2  1  0
  2  3  1  0
  3  4  2  0
  3  5  1  0
  2  6  1  0
  6  7  1  0
  6  8  1  0
  8  9  2  0
  8 10  1  0
 10 11  1  0
 11 12  1  0
 12 13  2  0
 12 14  1  0
 14 15  1  0
 10 16  1  0
 16 17  1  0
 17 18  2  0
 18 19  1  0
 19 20  2  0
 20 21  1  0
 21 22  2  0
 22 17  1  0
  1 23  1  0
  1 24  1  0
  1 25  1  0
  2 26  1  1
  5 27  1  0
  7 28  1  0
  7 29  1  0
  7 30  1  0
 10 31  1  6
 11 32  1  0
 11 33  1  0
 14 34  1  0
 15 35  1  0
 16 36  1  0
 16 37  1  0
 18 38  1  0
 19 39  1  0
 20 40  1  0
 21 41  1  0
 22 42  1  0
M  END
$$$$
