@<TRIPOS>MOLECULE
*****
 42 42 0 0 0
SMALL
GASTEIGER

@<TRIPOS>ATOM
      1 C          -3.1547    0.9906    0.6785 C.3     1  UNL1       -0.0360
      2 C          -1.8864    0.1452    0.8522 C.3     1  UNL1        0.1197
      3 C          -2.3305   -0.9380    1.8110 C.2     1  UNL1        0.3252
      4 O          -2.3662   -2.1481    1.4995 O.2     1  UNL1       -0.2489
      5 O          -2.7198   -0.5973    3.0981 O.3     1  UNL1       -0.4793
      6 N          -1.5355   -0.3792   -0.4215 N.am    1  UNL1       -0.2911
      7 C          -2.5976   -1.2457   -1.0507 C.3     1  UNL1        0.0040
      8 C          -0.3776   -0.2267   -1.1924 C.2     1  UNL1        0.2199
      9 O          -0.4578   -0.9667   -2.2965 O.2     1  UNL1       -0.2753
     10 C           0.8396    0.5265   -1.0566 C.3     1  UNL1        0.0480
     11 C           0.9413    1.9210   -1.4922 C.3     1  UNL1        0.0373
     12 C           0.1071    2.9742   -0.9236 C.2     1  UNL1        0.2362
     13 O          -0.7183    2.9364   -0.0178 O.2     1  UNL1       -0.2737
     14 N           0.2545    4.3176   -1.5103 N.am    1  UNL1       -0.1975
     15 O          -0.4879    5.3281   -1.0278 O.3     1  UNL1       -0.2952
     16 C           1.6152    0.3514    0.2412 C.3     1  UNL1       -0.0161
     17 C           2.0547   -1.0605    0.4414 C.ar    1  UNL1       -0.0466
     18 C           3.2861   -1.4107   -0.1307 C.ar    1  UNL1       -0.0586
     19 C           3.7362   -2.6957    0.0295 C.ar    1  UNL1       -0.0615
     20 C           3.0090   -3.6226    0.7293 C.ar    1  UNL1       -0.0617
     21 C           1.8147   -3.2588    1.2766 C.ar    1  UNL1       -0.0615
     22 C           1.3334   -1.9926    1.1398 C.ar    1  UNL1       -0.0586
     23 H          -3.1370    1.4917   -0.3279 H       1  UNL1        0.0253
     24 H          -4.0167    0.2956    0.6418 H       1  UNL1        0.0253
     25 H          -3.2740    1.6963    1.5026 H       1  UNL1        0.0253
     26 H          -1.1860    0.7583    1.3842 H       1  UNL1        0.0613
     27 H          -3.0207   -1.2871    3.7856 H       1  UNL1        0.2951
     28 H          -2.1760   -2.2259   -1.2662 H       1  UNL1        0.0429
     29 H          -2.8842   -0.7013   -1.9609 H       1  UNL1        0.0429
     30 H          -3.4557   -1.3547   -0.4023 H       1  UNL1        0.0429
     31 H           1.5904   -0.0299   -1.7921 H       1  UNL1        0.0402
     32 H           2.0165    2.2573   -1.2491 H       1  UNL1        0.0366
     33 H           0.9666    2.0039   -2.6292 H       1  UNL1        0.0366
     34 H           0.9280    4.4641   -2.2860 H       1  UNL1        0.1822
     35 H           0.0244    5.9833   -0.5045 H       1  UNL1        0.2414
     36 H           1.1230    0.7410    1.1245 H       1  UNL1        0.0321
     37 H           2.5681    0.9540    0.1478 H       1  UNL1        0.0321
     38 H           3.8767   -0.7069   -0.6833 H       1  UNL1        0.0620
     39 H           4.6892   -3.0198   -0.3963 H       1  UNL1        0.0618
     40 H           3.3747   -4.6139    0.8426 H       1  UNL1        0.0618
     41 H           1.2354   -3.9936    1.8329 H       1  UNL1        0.0618
     42 H           0.3977   -1.6612    1.5587 H       1  UNL1        0.0620
@<TRIPOS>BOND
     1     1     2    1
     2     2     3    1
     3     3     4    2
     4     3     5    1
     5     2     6    1
     6     6     7    1
     7     6     8   am
     8     8     9    2
     9     8    10    1
    10    10    11    1
    11    11    12    1
    12    12    13    2
    13    12    14   am
    14    14    15    1
    15    10    16    1
    16    16    17    1
    17    17    18   ar
    18    18    19   ar
    19    19    20   ar
    20    20    21   ar
    21    21    22   ar
    22    22    17   ar
    23     1    23    1
    24     1    24    1
    25     1    25    1
    26     2    26    1
    27     5    27    1
    28     7    28    1
    29     7    29    1
    30     7    30    1
    31    10    31    1
    32    11    32    1
    33    11    33    1
    34    14    34    1
    35    15    35    1
    36    16    36    1
    37    16    37    1
    38    18    38    1
    39    19    39    1
    40    20    40    1
    41    21    41    1
    42    22    42    1
