@<TRIPOS>MOLECULE
*****
 65 69 0 0 0
SMALL
GASTEIGER

@<TRIPOS>ATOM
      1 O          -3.7060   -0.0711    0.9876 O.2     1  UNL1       -0.2741
      2 C          -3.3125   -0.8631    0.1037 C.2     1  UNL1        0.2305
      3 C          -4.2817   -1.3861   -0.8790 C.3     1  UNL1        0.0884
      4 N          -5.5823   -0.8261   -0.5981 N.am    1  UNL1       -0.3028
      5 C          -5.7624    0.5649   -0.6499 C.2     1  UNL1        0.2445
      6 O          -4.7722    1.3180   -0.9478 O.2     1  UNL1       -0.2702
      7 C          -7.0244    1.2144   -0.3820 C.ar    1  UNL1        0.0372
      8 C          -7.1825    2.5819   -0.4394 C.ar    1  UNL1       -0.0496
      9 C          -8.3904    3.1839   -0.1815 C.ar    1  UNL1       -0.0605
     10 C          -9.4916    2.4303    0.1458 C.ar    1  UNL1       -0.0501
     11 C          -9.3632    1.0716    0.2100 C.ar    1  UNL1        0.0555
     12 C         -10.5371    0.2342    0.5614 C.3     1  UNL1        0.4174
     13 F         -10.1084   -1.0526    0.8362 F       1  UNL1       -0.1659
     14 F         -11.1213    0.7417    1.7071 F       1  UNL1       -0.1659
     15 F         -11.4648    0.1944   -0.4496 F       1  UNL1       -0.1659
     16 C          -8.1336    0.4749   -0.0538 C.ar    1  UNL1       -0.0380
     17 N          -1.9549   -1.2423    0.0598 N.am    1  UNL1       -0.3087
     18 C          -0.9621   -0.7556    1.0039 C.3     1  UNL1        0.0486
     19 C           0.0349   -1.8032    1.4602 C.3     1  UNL1        0.0189
     20 N           0.7396   -1.5776    0.2479 N.3     1  UNL1       -0.2958
     21 C           2.1545   -1.7714    0.2348 C.3     1  UNL1        0.0107
     22 C           2.6331   -1.4668   -1.1445 C.3     1  UNL1       -0.0344
     23 C           4.1020   -1.3117   -1.2894 C.3     1  UNL1       -0.0184
     24 C           4.6054   -0.3681   -0.2380 C.3     1  UNL1        0.0912
     25 O           3.7326    0.7416   -0.2350 O.3     1  UNL1       -0.3840
     26 C           6.0010    0.0264   -0.4174 C.ar    1  UNL1       -0.0124
     27 C           6.8168   -0.4076   -1.4501 C.ar    1  UNL1       -0.0522
     28 C           8.1414    0.0327   -1.5283 C.ar    1  UNL1       -0.0158
     29 C           8.6582    0.8987   -0.5896 C.ar    1  UNL1        0.1662
     30 C           7.8596    1.3358    0.4384 C.ar    1  UNL1        0.1666
     31 C           6.5601    0.8920    0.4985 C.ar    1  UNL1       -0.0102
     32 O           8.5737    2.2006    1.2723 O.3     1  UNL1       -0.4526
     33 C           9.7317    2.5778    0.5407 C.3     1  UNL1        0.2332
     34 O           9.9000    1.5038   -0.3944 O.3     1  UNL1       -0.4526
     35 C           4.3601   -1.0658    1.1060 C.3     1  UNL1       -0.0184
     36 C           2.8797   -1.0550    1.3264 C.3     1  UNL1       -0.0344
     37 C           0.2407   -0.2467    0.2078 C.3     1  UNL1        0.0189
     38 H          -3.9413   -1.0939   -1.9169 H       1  UNL1        0.0558
     39 H          -4.3063   -2.4985   -0.8932 H       1  UNL1        0.0558
     40 H          -6.3536   -1.4846   -0.3631 H       1  UNL1        0.1495
     41 H          -6.3071    3.1606   -0.6981 H       1  UNL1        0.0625
     42 H          -8.4881    4.2491   -0.2325 H       1  UNL1        0.0618
     43 H         -10.4657    2.8793    0.3564 H       1  UNL1        0.0623
     44 H          -8.1129   -0.5852    0.0161 H       1  UNL1        0.0631
     45 H          -1.6537   -1.9045   -0.6882 H       1  UNL1        0.1491
     46 H          -1.3293   -0.0698    1.7633 H       1  UNL1        0.0523
     47 H           0.5881   -1.4103    2.3502 H       1  UNL1        0.0445
     48 H          -0.3955   -2.8118    1.6173 H       1  UNL1        0.0445
     49 H           2.3302   -2.8754    0.4023 H       1  UNL1        0.0462
     50 H           2.2447   -2.2865   -1.8185 H       1  UNL1        0.0281
     51 H           2.0729   -0.5525   -1.4992 H       1  UNL1        0.0281
     52 H           4.3054   -0.8968   -2.3043 H       1  UNL1        0.0297
     53 H           4.5785   -2.3067   -1.2189 H       1  UNL1        0.0297
     54 H           3.7866    1.2160   -1.0981 H       1  UNL1        0.2106
     55 H           6.4004   -1.0802   -2.1712 H       1  UNL1        0.0622
     56 H           8.7743   -0.3082   -2.3352 H       1  UNL1        0.0655
     57 H           5.9434    1.2569    1.3306 H       1  UNL1        0.0659
     58 H          10.6265    2.5902    1.1872 H       1  UNL1        0.1166
     59 H           9.5295    3.5335    0.0379 H       1  UNL1        0.1166
     60 H           4.8793   -0.5234    1.9109 H       1  UNL1        0.0297
     61 H           4.7592   -2.0976    0.9701 H       1  UNL1        0.0297
     62 H           2.6942   -1.6399    2.2750 H       1  UNL1        0.0281
     63 H           2.5616   -0.0303    1.5075 H       1  UNL1        0.0281
     64 H           0.7425    0.5302    0.7762 H       1  UNL1        0.0445
     65 H          -0.0373    0.0917   -0.8118 H       1  UNL1        0.0445
@<TRIPOS>BOND
     1     1     2    2
     2     2     3    1
     3     3     4    1
     4     4     5   am
     5     5     6    2
     6     5     7    1
     7     7     8   ar
     8     8     9   ar
     9     9    10   ar
    10    10    11   ar
    11    11    12    1
    12    12    13    1
    13    12    14    1
    14    12    15    1
    15    11    16   ar
    16     2    17   am
    17    17    18    1
    18    18    19    1
    19    19    20    1
    20    20    21    1
    21    21    22    1
    22    22    23    1
    23    23    24    1
    24    24    25    1
    25    24    26    1
    26    26    27   ar
    27    27    28   ar
    28    28    29   ar
    29    29    30   ar
    30    30    31   ar
    31    30    32    1
    32    32    33    1
    33    33    34    1
    34    24    35    1
    35    35    36    1
    36    20    37    1
    37    16     7   ar
    38    37    18    1
    39    36    21    1
    40    31    26   ar
    41    34    29    1
    42     3    38    1
    43     3    39    1
    44     4    40    1
    45     8    41    1
    46     9    42    1
    47    10    43    1
    48    16    44    1
    49    17    45    1
    50    18    46    1
    51    19    47    1
    52    19    48    1
    53    21    49    1
    54    22    50    1
    55    22    51    1
    56    23    52    1
    57    23    53    1
    58    25    54    1
    59    27    55    1
    60    28    56    1
    61    31    57    1
    62    33    58    1
    63    33    59    1
    64    35    60    1
    65    35    61    1
    66    36    62    1
    67    36    63    1
    68    37    64    1
    69    37    65    1
