@<TRIPOS>MOLECULE
*****
 72 75 0 0 0
SMALL
GASTEIGER

@<TRIPOS>ATOM
      1 C           8.2851   -2.4310    0.9975 C.3     1  UNL1       -0.0444
      2 C           7.9089   -1.3877   -0.0303 C.3     1  UNL1        0.0317
      3 C           9.1502   -0.6978   -0.5617 C.3     1  UNL1       -0.0444
      4 N           7.0609   -0.3986    0.6166 N.ar    1  UNL1       -0.3121
      5 C           5.8124   -0.1604    0.1478 C.ar    1  UNL1        0.0159
      6 C           4.9722    0.7674    0.7255 C.ar    1  UNL1       -0.0015
      7 C           3.6358    0.9452    0.1354 C.ar    1  UNL1       -0.0165
      8 C           3.4304    0.7698   -1.2163 C.ar    1  UNL1       -0.0537
      9 C           2.1861    0.9330   -1.7831 C.ar    1  UNL1       -0.0562
     10 C           1.0628    1.2859   -1.0164 C.ar    1  UNL1       -0.0271
     11 C          -0.2526    1.4658   -1.6249 C.3     1  UNL1        0.0515
     12 C          -0.5851    2.9431   -1.8456 C.3     1  UNL1       -0.0421
     13 N          -1.3650    0.8225   -1.0081 N.am    1  UNL1       -0.2605
     14 C          -1.9187    1.0754    0.2756 C.3     1  UNL1        0.0224
     15 C          -3.4288    0.8693    0.3558 C.3     1  UNL1        0.0076
     16 C          -3.8969   -0.4136   -0.1647 C.3     1  UNL1        0.1440
     17 C          -5.1552   -0.2495   -0.9708 C.3     1  UNL1        0.0199
     18 C          -6.3547    0.2896   -0.3154 C.3     1  UNL1        0.0645
     19 C          -6.3090    1.6653    0.2516 C.3     1  UNL1       -0.0362
     20 C          -7.4849    0.3110   -1.3702 C.3     1  UNL1       -0.0362
     21 O          -6.8512   -0.5401    0.7046 O.3     1  UNL1       -0.3890
     22 C          -4.1678   -1.4881    0.8209 C.ar    1  UNL1       -0.0040
     23 C          -4.5887   -2.7022    0.3225 C.ar    1  UNL1       -0.0548
     24 C          -4.8798   -3.7883    1.1001 C.ar    1  UNL1       -0.0614
     25 C          -4.7529   -3.6894    2.4643 C.ar    1  UNL1       -0.0617
     26 C          -4.3345   -2.4927    3.0002 C.ar    1  UNL1       -0.0614
     27 C          -4.0435   -1.3962    2.1756 C.ar    1  UNL1       -0.0548
     28 O          -2.9583   -1.0181   -1.0763 O.3     1  UNL1       -0.4387
     29 C          -2.0539   -0.2021   -1.7740 C.2     1  UNL1        0.4042
     30 O          -1.8320   -0.3297   -2.9997 O.2     1  UNL1       -0.2262
     31 C           1.2829    1.4559    0.3184 C.ar    1  UNL1       -0.0562
     32 C           2.5483    1.2915    0.9058 C.ar    1  UNL1       -0.0537
     33 C           5.4248    1.4646    1.8073 C.ar    1  UNL1       -0.0475
     34 C           6.6978    1.2052    2.2660 C.ar    1  UNL1        0.0036
     35 C           7.5379    0.2733    1.6835 C.ar    1  UNL1        0.2515
     36 O           8.7009    0.0766    2.1495 O.2     1  UNL1       -0.2677
     37 H           7.7291   -3.3858    0.7862 H       1  UNL1        0.0249
     38 H           9.3887   -2.6258    0.9830 H       1  UNL1        0.0249
     39 H           8.0061   -2.1524    2.0277 H       1  UNL1        0.0249
     40 H           7.3309   -1.8743   -0.8379 H       1  UNL1        0.0523
     41 H           9.4607   -1.2990   -1.4632 H       1  UNL1        0.0249
     42 H           9.9944   -0.7199    0.1336 H       1  UNL1        0.0249
     43 H           8.8887    0.3059   -0.9360 H       1  UNL1        0.0249
     44 H           5.4785   -0.7243   -0.7078 H       1  UNL1        0.0816
     45 H           4.2851    0.4974   -1.8240 H       1  UNL1        0.0624
     46 H           2.0206    0.7943   -2.8585 H       1  UNL1        0.0621
     47 H          -0.1329    1.0573   -2.6875 H       1  UNL1        0.0549
     48 H          -1.4655    3.0189   -2.4807 H       1  UNL1        0.0251
     49 H           0.2889    3.3521   -2.4187 H       1  UNL1        0.0251
     50 H          -0.6371    3.4884   -0.8929 H       1  UNL1        0.0251
     51 H          -1.4797    0.4020    1.0156 H       1  UNL1        0.0467
     52 H          -1.7870    2.1409    0.5987 H       1  UNL1        0.0467
     53 H          -3.8569    1.7432   -0.1778 H       1  UNL1        0.0322
     54 H          -3.6722    0.9965    1.4240 H       1  UNL1        0.0322
     55 H          -4.8649    0.5236   -1.7683 H       1  UNL1        0.0335
     56 H          -5.3627   -1.1504   -1.6069 H       1  UNL1        0.0335
     57 H          -5.8230    1.7724    1.2358 H       1  UNL1        0.0257
     58 H          -6.0477    2.4618   -0.4821 H       1  UNL1        0.0257
     59 H          -7.4041    1.9256    0.4971 H       1  UNL1        0.0257
     60 H          -7.7022   -0.6902   -1.7411 H       1  UNL1        0.0257
     61 H          -7.0925    1.0068   -2.1660 H       1  UNL1        0.0257
     62 H          -8.3468    0.8343   -0.9098 H       1  UNL1        0.0257
     63 H          -7.8121   -0.3319    0.8671 H       1  UNL1        0.2101
     64 H          -4.7006   -2.8336   -0.7432 H       1  UNL1        0.0622
     65 H          -5.2134   -4.7408    0.6599 H       1  UNL1        0.0618
     66 H          -4.9830   -4.5549    3.1089 H       1  UNL1        0.0618
     67 H          -4.2242   -2.3797    4.0647 H       1  UNL1        0.0618
     68 H          -3.7247   -0.5085    2.6494 H       1  UNL1        0.0622
     69 H           0.4653    1.7330    0.9601 H       1  UNL1        0.0621
     70 H           2.6577    1.4410    1.9735 H       1  UNL1        0.0624
     71 H           4.7734    2.1990    2.2729 H       1  UNL1        0.0626
     72 H           7.0812    1.7523    3.1317 H       1  UNL1        0.0672
@<TRIPOS>BOND
     1     1     2    1
     2     2     3    1
     3     2     4    1
     4     4     5   ar
     5     5     6   ar
     6     6     7    1
     7     7     8   ar
     8     8     9   ar
     9     9    10   ar
    10    10    11    1
    11    11    12    1
    12    11    13    1
    13    13    14    1
    14    14    15    1
    15    15    16    1
    16    16    17    1
    17    17    18    1
    18    18    19    1
    19    18    20    1
    20    18    21    1
    21    16    22    1
    22    22    23   ar
    23    23    24   ar
    24    24    25   ar
    25    25    26   ar
    26    26    27   ar
    27    16    28    1
    28    28    29    1
    29    29    30    2
    30    10    31   ar
    31    31    32   ar
    32     6    33   ar
    33    33    34   ar
    34    34    35   ar
    35    35    36    2
    36    35     4   ar
    37    32     7   ar
    38    29    13   am
    39    27    22   ar
    40     1    37    1
    41     1    38    1
    42     1    39    1
    43     2    40    1
    44     3    41    1
    45     3    42    1
    46     3    43    1
    47     5    44    1
    48     8    45    1
    49     9    46    1
    50    11    47    1
    51    12    48    1
    52    12    49    1
    53    12    50    1
    54    14    51    1
    55    14    52    1
    56    15    53    1
    57    15    54    1
    58    17    55    1
    59    17    56    1
    60    19    57    1
    61    19    58    1
    62    19    59    1
    63    20    60    1
    64    20    61    1
    65    20    62    1
    66    21    63    1
    67    23    64    1
    68    24    65    1
    69    25    66    1
    70    26    67    1
    71    27    68    1
    72    31    69    1
    73    32    70    1
    74    33    71    1
    75    34    72    1
