@<TRIPOS>MOLECULE
*****
 35 36 0 0 0
SMALL
GASTEIGER

@<TRIPOS>ATOM
      1 C           4.5049    1.0711   -0.7908 C.3     1  UNL1       -0.0306
      2 C           4.0954   -0.3528   -0.5711 C.3     1  UNL1        0.0900
      3 O           2.7431   -0.6231   -0.6986 O.3     1  UNL1       -0.4604
      4 C           1.6933   -0.0954   -0.0061 C.2     1  UNL1        0.3565
      5 O           2.8155    0.2929    0.2709 O.2     1  UNL1       -0.2433
      6 C           0.2632   -0.2440    0.0109 C.ar    1  UNL1        0.1363
      7 C          -0.6879    0.3534    0.7745 C.ar    1  UNL1        0.0332
      8 C          -0.3091    1.2507    1.8192 C.2     1  UNL1        0.0749
      9 C          -0.9768    2.2382    2.3652 C.2     1  UNL1        0.0051
     10 N          -2.2697    2.6654    2.0308 N.pl3   1  UNL1       -0.3628
     11 C           0.9568    1.1520    2.5177 C.1     1  UNL1        0.1011
     12 N           1.9895    1.0582    3.1066 N.1     1  UNL1       -0.1908
     13 C          -1.8315   -0.2075    0.2658 C.ar    1  UNL1        0.0106
     14 C          -1.5467   -1.0902   -0.7529 C.ar    1  UNL1        0.0700
     15 N          -0.2127   -1.0969   -0.8962 N.ar    1  UNL1       -0.3361
     16 C           0.3283   -1.9475   -1.9094 C.3     1  UNL1        0.0127
     17 C          -2.6124   -1.7563   -1.3580 C.ar    1  UNL1        0.0833
     18 CL         -2.2915   -2.8961   -2.6750 Cl      1  UNL1       -0.0799
     19 C          -3.9100   -1.5465   -0.9539 C.ar    1  UNL1        0.0613
     20 CL         -5.1713   -2.4213   -1.7681 Cl      1  UNL1       -0.0820
     21 C          -4.1917   -0.6660    0.0682 C.ar    1  UNL1       -0.0413
     22 C          -3.1341   -0.0189    0.6516 C.ar    1  UNL1       -0.0505
     23 H           4.7606    1.5614    0.1908 H       1  UNL1        0.0262
     24 H           3.7781    1.7044   -1.3031 H       1  UNL1        0.0262
     25 H           5.4444    1.1533   -1.4025 H       1  UNL1        0.0262
     26 H           4.5792   -0.7540    0.3676 H       1  UNL1        0.0695
     27 H           4.6232   -0.9380   -1.3844 H       1  UNL1        0.0695
     28 H          -0.7540    2.9319    3.1411 H       1  UNL1        0.0789
     29 H          -2.2977    2.9709    1.0420 H       1  UNL1        0.1418
     30 H          -3.1660    2.7302    2.5660 H       1  UNL1        0.1418
     31 H           0.0416   -2.9918   -1.6596 H       1  UNL1        0.0456
     32 H          -0.0357   -1.6619   -2.9291 H       1  UNL1        0.0456
     33 H           1.4206   -1.9236   -1.9578 H       1  UNL1        0.0456
     34 H          -5.2193   -0.5171    0.3709 H       1  UNL1        0.0633
     35 H          -3.4197    0.6152    1.4566 H       1  UNL1        0.0625
@<TRIPOS>BOND
     1     1     2    1
     2     2     3    1
     3     3     4    1
     4     4     5    2
     5     4     6    1
     6     6     7   ar
     7     7     8    1
     8     8     9    2
     9     9    10    1
    10     8    11    1
    11    11    12    3
    12     7    13   ar
    13    13    14   ar
    14    14    15   ar
    15    15    16    1
    16    14    17   ar
    17    17    18    1
    18    17    19   ar
    19    19    20    1
    20    19    21   ar
    21    21    22   ar
    22    15     6   ar
    23    22    13   ar
    24     1    23    1
    25     1    24    1
    26     1    25    1
    27     2    26    1
    28     2    27    1
    29     9    28    1
    30    10    29    1
    31    10    30    1
    32    16    31    1
    33    16    32    1
    34    16    33    1
    35    21    34    1
    36    22    35    1
