
     RDKit          3D

 35 36  0  0  0  0  0  0  0  0999 V2000
    4.5049    1.0711   -0.7908 C   0  0  0  0  0  0  0  0  0  0  0  0
    4.0954   -0.3528   -0.5711 C   0  0  0  0  0  0  0  0  0  0  0  0
    2.7431   -0.6231   -0.6986 O   0  0  0  0  0  0  0  0  0  0  0  0
    1.6933   -0.0954   -0.0061 C   0  0  0  0  0  0  0  0  0  0  0  0
    2.8155    0.2929    0.2709 O   0  0  0  0  0  0  0  0  0  0  0  0
    0.2632   -0.2440    0.0109 C   0  0  0  0  0  0  0  0  0  0  0  0
   -0.6879    0.3534    0.7745 C   0  0  0  0  0  0  0  0  0  0  0  0
   -0.3091    1.2507    1.8192 C   0  0  0  0  0  0  0  0  0  0  0  0
   -0.9768    2.2382    2.3652 C   0  0  0  0  0  0  0  0  0  0  0  0
   -2.2697    2.6654    2.0308 N   0  0  0  0  0  0  0  0  0  0  0  0
    0.9568    1.1520    2.5177 C   0  0  0  0  0  0  0  0  0  0  0  0
    1.9895    1.0582    3.1066 N   0  0  0  0  0  0  0  0  0  0  0  0
   -1.8315   -0.2075    0.2658 C   0  0  0  0  0  0  0  0  0  0  0  0
   -1.5467   -1.0902   -0.7529 C   0  0  0  0  0  0  0  0  0  0  0  0
   -0.2127   -1.0969   -0.8962 N   0  0  0  0  0  0  0  0  0  0  0  0
    0.3283   -1.9475   -1.9094 C   0  0  0  0  0  0  0  0  0  0  0  0
   -2.6124   -1.7563   -1.3580 C   0  0  0  0  0  0  0  0  0  0  0  0
   -2.2915   -2.8961   -2.6750 Cl  0  0  0  0  0  0  0  0  0  0  0  0
   -3.9100   -1.5465   -0.9539 C   0  0  0  0  0  0  0  0  0  0  0  0
   -5.1713   -2.4213   -1.7681 Cl  0  0  0  0  0  0  0  0  0  0  0  0
   -4.1917   -0.6660    0.0682 C   0  0  0  0  0  0  0  0  0  0  0  0
   -3.1341   -0.0189    0.6516 C   0  0  0  0  0  0  0  0  0  0  0  0
    4.7606    1.5614    0.1908 H   0  0  0  0  0  0  0  0  0  0  0  0
    3.7781    1.7044   -1.3031 H   0  0  0  0  0  0  0  0  0  0  0  0
    5.4444    1.1533   -1.4025 H   0  0  0  0  0  0  0  0  0  0  0  0
    4.5792   -0.7540    0.3676 H   0  0  0  0  0  0  0  0  0  0  0  0
    4.6232   -0.9380   -1.3844 H   0  0  0  0  0  0  0  0  0  0  0  0
   -0.7540    2.9319    3.1411 H   0  0  0  0  0  0  0  0  0  0  0  0
   -2.2977    2.9709    1.0420 H   0  0  0  0  0  0  0  0  0  0  0  0
   -3.1660    2.7302    2.5660 H   0  0  0  0  0  0  0  0  0  0  0  0
    0.0416   -2.9918   -1.6596 H   0  0  0  0  0  0  0  0  0  0  0  0
   -0.0357   -1.6619   -2.9291 H   0  0  0  0  0  0  0  0  0  0  0  0
    1.4206   -1.9236   -1.9578 H   0  0  0  0  0  0  0  0  0  0  0  0
   -5.2193   -0.5171    0.3709 H   0  0  0  0  0  0  0  0  0  0  0  0
   -3.4197    0.6152    1.4566 H   0  0  0  0  0  0  0  0  0  0  0  0
  1  2  1  0
  2  3  1  0
  3  4  1  0
  4  5  2  0
  4  6  1  0
  6  7  2  0
  7  8  1  0
  8  9  2  0
  9 10  1  0
  8 11  1  0
 11 12  3  0
  7 13  1  0
 13 14  2  0
 14 15  1  0
 15 16  1  0
 14 17  1  0
 17 18  1  0
 17 19  2  0
 19 20  1  0
 19 21  1  0
 21 22  2  0
 15  6  1  0
 22 13  1  0
  1 23  1  0
  1 24  1  0
  1 25  1  0
  2 26  1  0
  2 27  1  0
  9 28  1  0
 10 29  1  0
 10 30  1  0
 16 31  1  0
 16 32  1  0
 16 33  1  0
 21 34  1  0
 22 35  1  0
M  END
$$$$
