@<TRIPOS>MOLECULE
*****
 63 68 0 0 0
SMALL
GASTEIGER

@<TRIPOS>ATOM
      1 C          -8.6388    2.6695    2.4248 C.3     1  UNL1       -0.0223
      2 C          -8.0035    1.5958    1.6144 C.ar    1  UNL1        0.0389
      3 C          -6.8381    1.0321    2.1022 C.ar    1  UNL1       -0.0400
      4 C          -6.1982    0.0329    1.4022 C.ar    1  UNL1       -0.0503
      5 C          -6.7650   -0.3765    0.2051 C.ar    1  UNL1        0.0083
      6 C          -6.1548   -1.3656   -0.5123 C.ar    1  UNL1       -0.0037
      7 C          -4.9116   -1.9907   -0.0290 C.ar    1  UNL1        0.0466
      8 C          -4.8456   -3.0968    0.7902 C.ar    1  UNL1        0.0597
      9 N          -3.5502   -3.3473    0.9965 N.ar    1  UNL1       -0.1727
     10 N          -2.8097   -2.4556    0.3490 N.ar    1  UNL1       -0.2205
     11 C          -1.4597   -2.3164    0.2668 C.ar    1  UNL1        0.0420
     12 C          -0.9402   -1.3008   -0.4768 C.ar    1  UNL1        0.0366
     13 C           0.4978   -1.1006   -0.6047 C.ar    1  UNL1        0.0741
     14 C           1.4480   -1.8882   -0.0121 C.ar    1  UNL1       -0.0321
     15 C           2.8239   -1.6789   -0.1511 C.ar    1  UNL1       -0.0164
     16 C           3.2301   -0.6227   -0.9269 C.ar    1  UNL1        0.1386
     17 O           4.5581   -0.3309   -1.1279 O.3     1  UNL1       -0.4892
     18 C           5.5535   -1.1082   -0.5428 C.3     1  UNL1        0.1023
     19 C           6.9663   -0.6782   -0.8437 C.3     1  UNL1        0.0331
     20 N           7.2047    0.6304   -0.3929 N.3     1  UNL1       -0.2991
     21 C           6.5659    1.7165   -1.0729 C.3     1  UNL1       -0.0010
     22 C           6.1472    2.7031    0.0261 C.3     1  UNL1       -0.0402
     23 C           7.0285    2.5350    1.2318 C.3     1  UNL1       -0.0507
     24 C           8.4512    2.1628    0.9107 C.3     1  UNL1       -0.0402
     25 C           8.5388    1.0001   -0.0602 C.3     1  UNL1       -0.0010
     26 C           2.2692    0.1630   -1.5181 C.ar    1  UNL1        0.0699
     27 N           0.9589   -0.0677   -1.3626 N.ar    1  UNL1       -0.2513
     28 C          -1.8193   -0.4374   -1.1293 C.ar    1  UNL1        0.0406
     29 N          -3.1487   -0.5794   -1.0448 N.ar    1  UNL1       -0.2349
     30 C          -3.6228   -1.6038   -0.2941 C.ar    1  UNL1        0.1632
     31 C          -6.7223   -1.7689   -1.7000 C.ar    1  UNL1       -0.0532
     32 C          -7.8943   -1.1983   -2.1851 C.ar    1  UNL1       -0.0591
     33 C          -8.5088   -0.2008   -1.4604 C.ar    1  UNL1       -0.0357
     34 C          -7.9418    0.2096   -0.2638 C.ar    1  UNL1        0.0718
     35 N          -8.5387    1.1805    0.4442 N.ar    1  UNL1       -0.2519
     36 H          -9.7352    2.6741    2.3303 H       1  UNL1        0.0292
     37 H          -8.2988    2.6162    3.4719 H       1  UNL1        0.0292
     38 H          -8.2695    3.6362    2.0251 H       1  UNL1        0.0292
     39 H          -6.4377    1.3896    3.0438 H       1  UNL1        0.0636
     40 H          -5.2830   -0.4192    1.7726 H       1  UNL1        0.0625
     41 H          -5.7134   -3.6510    1.1859 H       1  UNL1        0.0855
     42 H          -0.8605   -3.0167    0.7952 H       1  UNL1        0.0838
     43 H           1.1086   -2.7314    0.6063 H       1  UNL1        0.0640
     44 H           3.5355   -2.3421    0.3481 H       1  UNL1        0.0655
     45 H           5.4507   -1.1425    0.5840 H       1  UNL1        0.0709
     46 H           5.4498   -2.1989   -0.8260 H       1  UNL1        0.0709
     47 H           7.6578   -1.3710   -0.3127 H       1  UNL1        0.0460
     48 H           7.0956   -0.7704   -1.9556 H       1  UNL1        0.0460
     49 H           7.3889    2.2417   -1.6546 H       1  UNL1        0.0427
     50 H           5.7663    1.4678   -1.7607 H       1  UNL1        0.0427
     51 H           6.1056    3.7290   -0.3481 H       1  UNL1        0.0278
     52 H           5.1161    2.4044    0.3104 H       1  UNL1        0.0278
     53 H           7.0727    3.5361    1.7442 H       1  UNL1        0.0266
     54 H           6.5824    1.8362    1.9765 H       1  UNL1        0.0266
     55 H           8.9112    1.8072    1.8621 H       1  UNL1        0.0278
     56 H           9.0564    3.0349    0.5909 H       1  UNL1        0.0278
     57 H           8.9870    1.4434   -0.9987 H       1  UNL1        0.0427
     58 H           9.1862    0.1840    0.2783 H       1  UNL1        0.0427
     59 H           2.5241    1.0115   -2.1431 H       1  UNL1        0.0867
     60 H          -1.3723    0.3549   -1.7093 H       1  UNL1        0.0837
     61 H          -6.2188   -2.5576   -2.2539 H       1  UNL1        0.0624
     62 H          -8.3087   -1.5429   -3.1230 H       1  UNL1        0.0618
     63 H          -9.4269    0.2589   -1.8213 H       1  UNL1        0.0639
@<TRIPOS>BOND
     1     1     2    1
     2     2     3   ar
     3     3     4   ar
     4     4     5   ar
     5     5     6   ar
     6     6     7    1
     7     7     8   ar
     8     8     9   ar
     9     9    10   ar
    10    10    11   ar
    11    11    12   ar
    12    12    13    1
    13    13    14   ar
    14    14    15   ar
    15    15    16   ar
    16    16    17    1
    17    17    18    1
    18    18    19    1
    19    19    20    1
    20    20    21    1
    21    21    22    1
    22    22    23    1
    23    23    24    1
    24    24    25    1
    25    16    26   ar
    26    26    27   ar
    27    12    28   ar
    28    28    29   ar
    29    29    30   ar
    30     6    31   ar
    31    31    32   ar
    32    32    33   ar
    33    33    34   ar
    34    34    35   ar
    35    35     2   ar
    36    34     5   ar
    37    30     7   ar
    38    30    10   ar
    39    27    13   ar
    40    25    20    1
    41     1    36    1
    42     1    37    1
    43     1    38    1
    44     3    39    1
    45     4    40    1
    46     8    41    1
    47    11    42    1
    48    14    43    1
    49    15    44    1
    50    18    45    1
    51    18    46    1
    52    19    47    1
    53    19    48    1
    54    21    49    1
    55    21    50    1
    56    22    51    1
    57    22    52    1
    58    23    53    1
    59    23    54    1
    60    24    55    1
    61    24    56    1
    62    25    57    1
    63    25    58    1
    64    26    59    1
    65    28    60    1
    66    31    61    1
    67    32    62    1
    68    33    63    1
