
     RDKit          3D

 63 68  0  0  0  0  0  0  0  0999 V2000
   -8.6388    2.6695    2.4248 C   0  0  0  0  0  0  0  0  0  0  0  0
   -8.0035    1.5958    1.6144 C   0  0  0  0  0  0  0  0  0  0  0  0
   -6.8381    1.0321    2.1022 C   0  0  0  0  0  0  0  0  0  0  0  0
   -6.1982    0.0329    1.4022 C   0  0  0  0  0  0  0  0  0  0  0  0
   -6.7650   -0.3765    0.2051 C   0  0  0  0  0  0  0  0  0  0  0  0
   -6.1548   -1.3656   -0.5123 C   0  0  0  0  0  0  0  0  0  0  0  0
   -4.9116   -1.9907   -0.0290 C   0  0  0  0  0  0  0  0  0  0  0  0
   -4.8456   -3.0968    0.7902 C   0  0  0  0  0  0  0  0  0  0  0  0
   -3.5502   -3.3473    0.9965 N   0  0  0  0  0  0  0  0  0  0  0  0
   -2.8097   -2.4556    0.3490 N   0  0  0  0  0  0  0  0  0  0  0  0
   -1.4597   -2.3164    0.2668 C   0  0  0  0  0  0  0  0  0  0  0  0
   -0.9402   -1.3008   -0.4768 C   0  0  0  0  0  0  0  0  0  0  0  0
    0.4978   -1.1006   -0.6047 C   0  0  0  0  0  0  0  0  0  0  0  0
    1.4480   -1.8882   -0.0121 C   0  0  0  0  0  0  0  0  0  0  0  0
    2.8239   -1.6789   -0.1511 C   0  0  0  0  0  0  0  0  0  0  0  0
    3.2301   -0.6227   -0.9269 C   0  0  0  0  0  0  0  0  0  0  0  0
    4.5581   -0.3309   -1.1279 O   0  0  0  0  0  0  0  0  0  0  0  0
    5.5535   -1.1082   -0.5428 C   0  0  0  0  0  0  0  0  0  0  0  0
    6.9663   -0.6782   -0.8437 C   0  0  0  0  0  0  0  0  0  0  0  0
    7.2047    0.6304   -0.3929 N   0  0  0  0  0  0  0  0  0  0  0  0
    6.5659    1.7165   -1.0729 C   0  0  0  0  0  0  0  0  0  0  0  0
    6.1472    2.7031    0.0261 C   0  0  0  0  0  0  0  0  0  0  0  0
    7.0285    2.5350    1.2318 C   0  0  0  0  0  0  0  0  0  0  0  0
    8.4512    2.1628    0.9107 C   0  0  0  0  0  0  0  0  0  0  0  0
    8.5388    1.0001   -0.0602 C   0  0  0  0  0  0  0  0  0  0  0  0
    2.2692    0.1630   -1.5181 C   0  0  0  0  0  0  0  0  0  0  0  0
    0.9589   -0.0677   -1.3626 N   0  0  0  0  0  0  0  0  0  0  0  0
   -1.8193   -0.4374   -1.1293 C   0  0  0  0  0  0  0  0  0  0  0  0
   -3.1487   -0.5794   -1.0448 N   0  0  0  0  0  0  0  0  0  0  0  0
   -3.6228   -1.6038   -0.2941 C   0  0  0  0  0  0  0  0  0  0  0  0
   -6.7223   -1.7689   -1.7000 C   0  0  0  0  0  0  0  0  0  0  0  0
   -7.8943   -1.1983   -2.1851 C   0  0  0  0  0  0  0  0  0  0  0  0
   -8.5088   -0.2008   -1.4604 C   0  0  0  0  0  0  0  0  0  0  0  0
   -7.9418    0.2096   -0.2638 C   0  0  0  0  0  0  0  0  0  0  0  0
   -8.5387    1.1805    0.4442 N   0  0  0  0  0  0  0  0  0  0  0  0
   -9.7352    2.6741    2.3303 H   0  0  0  0  0  0  0  0  0  0  0  0
   -8.2988    2.6162    3.4719 H   0  0  0  0  0  0  0  0  0  0  0  0
   -8.2695    3.6362    2.0251 H   0  0  0  0  0  0  0  0  0  0  0  0
   -6.4377    1.3896    3.0438 H   0  0  0  0  0  0  0  0  0  0  0  0
   -5.2830   -0.4192    1.7726 H   0  0  0  0  0  0  0  0  0  0  0  0
   -5.7134   -3.6510    1.1859 H   0  0  0  0  0  0  0  0  0  0  0  0
   -0.8605   -3.0167    0.7952 H   0  0  0  0  0  0  0  0  0  0  0  0
    1.1086   -2.7314    0.6063 H   0  0  0  0  0  0  0  0  0  0  0  0
    3.5355   -2.3421    0.3481 H   0  0  0  0  0  0  0  0  0  0  0  0
    5.4507   -1.1425    0.5840 H   0  0  0  0  0  0  0  0  0  0  0  0
    5.4498   -2.1989   -0.8260 H   0  0  0  0  0  0  0  0  0  0  0  0
    7.6578   -1.3710   -0.3127 H   0  0  0  0  0  0  0  0  0  0  0  0
    7.0956   -0.7704   -1.9556 H   0  0  0  0  0  0  0  0  0  0  0  0
    7.3889    2.2417   -1.6546 H   0  0  0  0  0  0  0  0  0  0  0  0
    5.7663    1.4678   -1.7607 H   0  0  0  0  0  0  0  0  0  0  0  0
    6.1056    3.7290   -0.3481 H   0  0  0  0  0  0  0  0  0  0  0  0
    5.1161    2.4044    0.3104 H   0  0  0  0  0  0  0  0  0  0  0  0
    7.0727    3.5361    1.7442 H   0  0  0  0  0  0  0  0  0  0  0  0
    6.5824    1.8362    1.9765 H   0  0  0  0  0  0  0  0  0  0  0  0
    8.9112    1.8072    1.8621 H   0  0  0  0  0  0  0  0  0  0  0  0
    9.0564    3.0349    0.5909 H   0  0  0  0  0  0  0  0  0  0  0  0
    8.9870    1.4434   -0.9987 H   0  0  0  0  0  0  0  0  0  0  0  0
    9.1862    0.1840    0.2783 H   0  0  0  0  0  0  0  0  0  0  0  0
    2.5241    1.0115   -2.1431 H   0  0  0  0  0  0  0  0  0  0  0  0
   -1.3723    0.3549   -1.7093 H   0  0  0  0  0  0  0  0  0  0  0  0
   -6.2188   -2.5576   -2.2539 H   0  0  0  0  0  0  0  0  0  0  0  0
   -8.3087   -1.5429   -3.1230 H   0  0  0  0  0  0  0  0  0  0  0  0
   -9.4269    0.2589   -1.8213 H   0  0  0  0  0  0  0  0  0  0  0  0
  1  2  1  0
  2  3  2  0
  3  4  1  0
  4  5  2  0
  5  6  1  0
  6  7  1  0
  7  8  1  0
  8  9  2  0
  9 10  1  0
 10 11  1  0
 11 12  2  0
 12 13  1  0
 13 14  2  0
 14 15  1  0
 15 16  2  0
 16 17  1  0
 17 18  1  0
 18 19  1  0
 19 20  1  0
 20 21  1  0
 21 22  1  0
 22 23  1  0
 23 24  1  0
 24 25  1  0
 16 26  1  0
 26 27  2  0
 12 28  1  0
 28 29  2  0
 29 30  1  0
  6 31  2  0
 31 32  1  0
 32 33  2  0
 33 34  1  0
 34 35  2  0
 35  2  1  0
 34  5  1  0
 30  7  2  0
 30 10  1  0
 27 13  1  0
 25 20  1  0
  1 36  1  0
  1 37  1  0
  1 38  1  0
  3 39  1  0
  4 40  1  0
  8 41  1  0
 11 42  1  0
 14 43  1  0
 15 44  1  0
 18 45  1  0
 18 46  1  0
 19 47  1  0
 19 48  1  0
 21 49  1  0
 21 50  1  0
 22 51  1  0
 22 52  1  0
 23 53  1  0
 23 54  1  0
 24 55  1  0
 24 56  1  0
 25 57  1  0
 25 58  1  0
 26 59  1  0
 28 60  1  0
 31 61  1  0
 32 62  1  0
 33 63  1  0
M  END
$$$$
