@<TRIPOS>MOLECULE
*****
 52 54 0 0 0
SMALL
GASTEIGER

@<TRIPOS>ATOM
      1 O           8.1365   -1.6508    1.2078 O.3     1  UNL1       -0.4806
      2 C           6.9417   -2.0481    0.6208 C.2     1  UNL1        0.3047
      3 O           7.1924   -3.2795    0.6820 O.2     1  UNL1       -0.2510
      4 C           5.6774   -1.4805    0.0460 C.3     1  UNL1        0.0448
      5 C           5.6834    0.0259    0.1200 C.3     1  UNL1       -0.0430
      6 C           4.4259    0.6416   -0.4489 C.3     1  UNL1       -0.0525
      7 C           3.1786    0.1876    0.2790 C.3     1  UNL1       -0.0519
      8 C           1.9648    0.8530   -0.3544 C.3     1  UNL1       -0.0404
      9 C           0.6937    0.4235    0.3466 C.3     1  UNL1       -0.0033
     10 N          -0.4347    1.0623   -0.2670 N.3     1  UNL1       -0.3057
     11 C          -1.6932    0.7078    0.2458 C.3     1  UNL1        0.0590
     12 C          -2.8385    1.5980   -0.1023 C.ar    1  UNL1       -0.0229
     13 C          -2.7478    2.5788   -1.0472 C.ar    1  UNL1       -0.0565
     14 C          -3.8367    3.3624   -1.3400 C.ar    1  UNL1       -0.0614
     15 C          -5.0238    3.1518   -0.6723 C.ar    1  UNL1       -0.0615
     16 C          -5.1088    2.1595    0.2813 C.ar    1  UNL1       -0.0582
     17 C          -4.0082    1.3460    0.5976 C.ar    1  UNL1       -0.0421
     18 C          -4.4215    0.3911    1.6729 C.3     1  UNL1       -0.0234
     19 C          -4.2329   -0.9978    1.1945 C.3     1  UNL1       -0.0234
     20 C          -3.2017   -1.2375    0.1908 C.ar    1  UNL1       -0.0421
     21 C          -3.5667   -2.4793   -0.3533 C.ar    1  UNL1       -0.0582
     22 C          -2.8501   -3.0975   -1.3777 C.ar    1  UNL1       -0.0615
     23 C          -1.7487   -2.4368   -1.8499 C.ar    1  UNL1       -0.0614
     24 C          -1.3517   -1.2284   -1.3557 C.ar    1  UNL1       -0.0565
     25 C          -2.0744   -0.6404   -0.3449 C.ar    1  UNL1       -0.0229
     26 H           8.9745   -1.4024    0.6806 H       1  UNL1        0.2951
     27 H           4.8434   -1.8943    0.6607 H       1  UNL1        0.0377
     28 H           5.5740   -1.8117   -0.9896 H       1  UNL1        0.0377
     29 H           6.5181    0.4016   -0.5112 H       1  UNL1        0.0270
     30 H           5.8209    0.3746    1.1494 H       1  UNL1        0.0270
     31 H           4.3339    0.4511   -1.5348 H       1  UNL1        0.0265
     32 H           4.5238    1.7398   -0.3324 H       1  UNL1        0.0265
     33 H           3.2171    0.5339    1.3317 H       1  UNL1        0.0266
     34 H           3.0734   -0.9031    0.2943 H       1  UNL1        0.0266
     35 H           2.1111    1.9670   -0.2647 H       1  UNL1        0.0277
     36 H           1.8753    0.6659   -1.4252 H       1  UNL1        0.0277
     37 H           0.6140   -0.6673    0.2867 H       1  UNL1        0.0424
     38 H           0.7527    0.6404    1.4455 H       1  UNL1        0.0424
     39 H          -0.3244    1.2963   -1.2480 H       1  UNL1        0.1228
     40 H          -1.5956    0.5548    1.3307 H       1  UNL1        0.0560
     41 H          -1.7878    2.6407   -1.4849 H       1  UNL1        0.0621
     42 H          -3.6666    4.1112   -2.1017 H       1  UNL1        0.0618
     43 H          -5.8619    3.7744   -0.9159 H       1  UNL1        0.0618
     44 H          -6.0962    2.0688    0.7586 H       1  UNL1        0.0620
     45 H          -5.4715    0.5536    1.9613 H       1  UNL1        0.0316
     46 H          -3.7925    0.5982    2.5873 H       1  UNL1        0.0316
     47 H          -5.2439   -1.3751    0.8744 H       1  UNL1        0.0316
     48 H          -3.9785   -1.6359    2.0944 H       1  UNL1        0.0316
     49 H          -4.4310   -3.0849   -0.0430 H       1  UNL1        0.0620
     50 H          -3.1206   -4.0496   -1.8029 H       1  UNL1        0.0618
     51 H          -1.0983   -2.8031   -2.6464 H       1  UNL1        0.0618
     52 H          -0.5182   -0.6576   -1.6925 H       1  UNL1        0.0621
@<TRIPOS>BOND
     1     1     2    1
     2     2     3    2
     3     2     4    1
     4     4     5    1
     5     5     6    1
     6     6     7    1
     7     7     8    1
     8     8     9    1
     9     9    10    1
    10    10    11    1
    11    11    12    1
    12    12    13   ar
    13    13    14   ar
    14    14    15   ar
    15    15    16   ar
    16    16    17   ar
    17    17    18    1
    18    18    19    1
    19    19    20    1
    20    20    21   ar
    21    21    22   ar
    22    22    23   ar
    23    23    24   ar
    24    24    25   ar
    25    25    11    1
    26    17    12   ar
    27    25    20   ar
    28     1    26    1
    29     4    27    1
    30     4    28    1
    31     5    29    1
    32     5    30    1
    33     6    31    1
    34     6    32    1
    35     7    33    1
    36     7    34    1
    37     8    35    1
    38     8    36    1
    39     9    37    1
    40     9    38    1
    41    10    39    1
    42    11    40    1
    43    13    41    1
    44    14    42    1
    45    15    43    1
    46    16    44    1
    47    18    45    1
    48    18    46    1
    49    19    47    1
    50    19    48    1
    51    21    49    1
    52    22    50    1
    53    23    51    1
    54    24    52    1
