
     RDKit          3D

 52 54  0  0  0  0  0  0  0  0999 V2000
    8.1365   -1.6508    1.2078 O   0  0  0  0  0  0  0  0  0  0  0  0
    6.9417   -2.0481    0.6208 C   0  0  0  0  0  0  0  0  0  0  0  0
    7.1924   -3.2795    0.6820 O   0  0  0  0  0  0  0  0  0  0  0  0
    5.6774   -1.4805    0.0460 C   0  0  0  0  0  0  0  0  0  0  0  0
    5.6834    0.0259    0.1200 C   0  0  0  0  0  0  0  0  0  0  0  0
    4.4259    0.6416   -0.4489 C   0  0  0  0  0  0  0  0  0  0  0  0
    3.1786    0.1876    0.2790 C   0  0  0  0  0  0  0  0  0  0  0  0
    1.9648    0.8530   -0.3544 C   0  0  0  0  0  0  0  0  0  0  0  0
    0.6937    0.4235    0.3466 C   0  0  0  0  0  0  0  0  0  0  0  0
   -0.4347    1.0623   -0.2670 N   0  0  0  0  0  0  0  0  0  0  0  0
   -1.6932    0.7078    0.2458 C   0  0  0  0  0  0  0  0  0  0  0  0
   -2.8385    1.5980   -0.1023 C   0  0  0  0  0  0  0  0  0  0  0  0
   -2.7478    2.5788   -1.0472 C   0  0  0  0  0  0  0  0  0  0  0  0
   -3.8367    3.3624   -1.3400 C   0  0  0  0  0  0  0  0  0  0  0  0
   -5.0238    3.1518   -0.6723 C   0  0  0  0  0  0  0  0  0  0  0  0
   -5.1088    2.1595    0.2813 C   0  0  0  0  0  0  0  0  0  0  0  0
   -4.0082    1.3460    0.5976 C   0  0  0  0  0  0  0  0  0  0  0  0
   -4.4215    0.3911    1.6729 C   0  0  0  0  0  0  0  0  0  0  0  0
   -4.2329   -0.9978    1.1945 C   0  0  0  0  0  0  0  0  0  0  0  0
   -3.2017   -1.2375    0.1908 C   0  0  0  0  0  0  0  0  0  0  0  0
   -3.5667   -2.4793   -0.3533 C   0  0  0  0  0  0  0  0  0  0  0  0
   -2.8501   -3.0975   -1.3777 C   0  0  0  0  0  0  0  0  0  0  0  0
   -1.7487   -2.4368   -1.8499 C   0  0  0  0  0  0  0  0  0  0  0  0
   -1.3517   -1.2284   -1.3557 C   0  0  0  0  0  0  0  0  0  0  0  0
   -2.0744   -0.6404   -0.3449 C   0  0  0  0  0  0  0  0  0  0  0  0
    8.9745   -1.4024    0.6806 H   0  0  0  0  0  0  0  0  0  0  0  0
    4.8434   -1.8943    0.6607 H   0  0  0  0  0  0  0  0  0  0  0  0
    5.5740   -1.8117   -0.9896 H   0  0  0  0  0  0  0  0  0  0  0  0
    6.5181    0.4016   -0.5112 H   0  0  0  0  0  0  0  0  0  0  0  0
    5.8209    0.3746    1.1494 H   0  0  0  0  0  0  0  0  0  0  0  0
    4.3339    0.4511   -1.5348 H   0  0  0  0  0  0  0  0  0  0  0  0
    4.5238    1.7398   -0.3324 H   0  0  0  0  0  0  0  0  0  0  0  0
    3.2171    0.5339    1.3317 H   0  0  0  0  0  0  0  0  0  0  0  0
    3.0734   -0.9031    0.2943 H   0  0  0  0  0  0  0  0  0  0  0  0
    2.1111    1.9670   -0.2647 H   0  0  0  0  0  0  0  0  0  0  0  0
    1.8753    0.6659   -1.4252 H   0  0  0  0  0  0  0  0  0  0  0  0
    0.6140   -0.6673    0.2867 H   0  0  0  0  0  0  0  0  0  0  0  0
    0.7527    0.6404    1.4455 H   0  0  0  0  0  0  0  0  0  0  0  0
   -0.3244    1.2963   -1.2480 H   0  0  0  0  0  0  0  0  0  0  0  0
   -1.5956    0.5548    1.3307 H   0  0  0  0  0  0  0  0  0  0  0  0
   -1.7878    2.6407   -1.4849 H   0  0  0  0  0  0  0  0  0  0  0  0
   -3.6666    4.1112   -2.1017 H   0  0  0  0  0  0  0  0  0  0  0  0
   -5.8619    3.7744   -0.9159 H   0  0  0  0  0  0  0  0  0  0  0  0
   -6.0962    2.0688    0.7586 H   0  0  0  0  0  0  0  0  0  0  0  0
   -5.4715    0.5536    1.9613 H   0  0  0  0  0  0  0  0  0  0  0  0
   -3.7925    0.5982    2.5873 H   0  0  0  0  0  0  0  0  0  0  0  0
   -5.2439   -1.3751    0.8744 H   0  0  0  0  0  0  0  0  0  0  0  0
   -3.9785   -1.6359    2.0944 H   0  0  0  0  0  0  0  0  0  0  0  0
   -4.4310   -3.0849   -0.0430 H   0  0  0  0  0  0  0  0  0  0  0  0
   -3.1206   -4.0496   -1.8029 H   0  0  0  0  0  0  0  0  0  0  0  0
   -1.0983   -2.8031   -2.6464 H   0  0  0  0  0  0  0  0  0  0  0  0
   -0.5182   -0.6576   -1.6925 H   0  0  0  0  0  0  0  0  0  0  0  0
  1  2  1  0
  2  3  2  0
  2  4  1  0
  4  5  1  0
  5  6  1  0
  6  7  1  0
  7  8  1  0
  8  9  1  0
  9 10  1  0
 10 11  1  0
 11 12  1  0
 12 13  2  0
 13 14  1  0
 14 15  2  0
 15 16  1  0
 16 17  2  0
 17 18  1  0
 18 19  1  0
 19 20  1  0
 20 21  2  0
 21 22  1  0
 22 23  2  0
 23 24  1  0
 24 25  2  0
 25 11  1  0
 17 12  1  0
 25 20  1  0
  1 26  1  0
  4 27  1  0
  4 28  1  0
  5 29  1  0
  5 30  1  0
  6 31  1  0
  6 32  1  0
  7 33  1  0
  7 34  1  0
  8 35  1  0
  8 36  1  0
  9 37  1  0
  9 38  1  0
 10 39  1  0
 11 40  1  0
 13 41  1  0
 14 42  1  0
 15 43  1  0
 16 44  1  0
 18 45  1  0
 18 46  1  0
 19 47  1  0
 19 48  1  0
 21 49  1  0
 22 50  1  0
 23 51  1  0
 24 52  1  0
M  END
$$$$
