@<TRIPOS>MOLECULE
*****
 46 48 0 0 0
SMALL
GASTEIGER

@<TRIPOS>ATOM
      1 C           7.1884   -1.2815   -0.3857 C.3     1  UNL1       -0.0222
      2 C           6.0185   -0.3551   -0.3746 C.ar    1  UNL1        0.0436
      3 N           6.2123    0.9461   -0.7158 N.ar    1  UNL1       -0.2199
      4 C           5.1064    1.7350   -0.6850 C.ar    1  UNL1        0.2130
      5 N           5.2501    3.1196   -1.0358 N.pl3   1  UNL1       -0.3275
      6 N           3.8658    1.3202   -0.3473 N.ar    1  UNL1       -0.2183
      7 C           3.6553    0.0491   -0.0099 C.ar    1  UNL1        0.0620
      8 C           2.3576   -0.5822    0.3894 C.3     1  UNL1        0.0598
      9 N           2.1513   -0.5060    1.8014 N.3     1  UNL1       -0.1841
     10 S           0.6612   -1.2264    2.2944 S.O2    1  UNL1        0.0588
     11 O           0.4728   -1.1856    3.7614 O.2     1  UNL1       -0.1530
     12 O           0.7116   -2.6631    1.8171 O.2     1  UNL1       -0.1530
     13 C          -0.6477   -0.3579    1.5321 C.ar    1  UNL1        0.1070
     14 C          -1.1444   -0.7120    0.3152 C.ar    1  UNL1       -0.0142
     15 C          -2.1834    0.0530   -0.1876 C.ar    1  UNL1        0.0328
     16 N          -2.7418   -0.2750   -1.4604 N.pl3   1  UNL1       -0.3200
     17 C          -3.8104    0.4334   -2.0840 C.2     1  UNL1        0.0038
     18 C          -5.0494    0.2315   -1.6128 C.2     1  UNL1        0.0535
     19 C          -5.6173   -0.6161   -0.5157 C.3     1  UNL1        0.0147
     20 C          -6.7070    0.3272    0.0078 C.3     1  UNL1        0.0970
     21 O          -7.2829    0.8390   -1.1908 O.3     1  UNL1       -0.4610
     22 C          -6.2560    0.8891   -2.1509 C.2     1  UNL1        0.3365
     23 O          -6.3968    1.4320   -3.2979 O.2     1  UNL1       -0.2453
     24 C          -2.7383    1.1292    0.4499 C.ar    1  UNL1       -0.0404
     25 C          -2.2361    1.4885    1.6821 C.ar    1  UNL1       -0.0582
     26 C          -1.1858    0.7358    2.2181 C.ar    1  UNL1       -0.0352
     27 C           4.7592   -0.7814   -0.0306 C.ar    1  UNL1       -0.0179
     28 H           7.3436   -1.5824   -1.4452 H       1  UNL1        0.0293
     29 H           7.0261   -2.1598    0.2675 H       1  UNL1        0.0293
     30 H           8.0951   -0.7594    0.0264 H       1  UNL1        0.0293
     31 H           5.1551    3.7927   -1.8456 H       1  UNL1        0.1452
     32 H           5.5558    3.8250   -0.3130 H       1  UNL1        0.1452
     33 H           2.3212   -1.6351    0.0514 H       1  UNL1        0.0506
     34 H           1.5622   -0.0046   -0.1240 H       1  UNL1        0.0506
     35 H           2.3467    0.4066    2.2214 H       1  UNL1        0.1484
     36 H          -0.7494   -1.5416   -0.2248 H       1  UNL1        0.0656
     37 H          -2.4616   -1.0449   -2.0896 H       1  UNL1        0.1516
     38 H          -3.7001    1.1234   -2.9102 H       1  UNL1        0.0786
     39 H          -4.8772   -0.8222    0.2792 H       1  UNL1        0.0349
     40 H          -6.0768   -1.5470   -0.8807 H       1  UNL1        0.0349
     41 H          -7.4349   -0.2081    0.6235 H       1  UNL1        0.0701
     42 H          -6.1718    1.1532    0.5168 H       1  UNL1        0.0701
     43 H          -3.5562    1.6983    0.0094 H       1  UNL1        0.0636
     44 H          -2.6349    2.3202    2.2192 H       1  UNL1        0.0619
     45 H          -0.8171    1.0564    3.1998 H       1  UNL1        0.0637
     46 H           4.6607   -1.8341    0.2340 H       1  UNL1        0.0654
@<TRIPOS>BOND
     1     1     2    1
     2     2     3   ar
     3     3     4   ar
     4     4     5    1
     5     4     6   ar
     6     6     7   ar
     7     7     8    1
     8     8     9    1
     9     9    10    1
    10    10    11    2
    11    10    12    2
    12    10    13    1
    13    13    14   ar
    14    14    15   ar
    15    15    16    1
    16    16    17    1
    17    17    18    2
    18    18    19    1
    19    19    20    1
    20    20    21    1
    21    21    22    1
    22    22    23    2
    23    15    24   ar
    24    24    25   ar
    25    25    26   ar
    26     7    27   ar
    27    27     2   ar
    28    26    13   ar
    29    22    18    1
    30     1    28    1
    31     1    29    1
    32     1    30    1
    33     5    31    1
    34     5    32    1
    35     8    33    1
    36     8    34    1
    37     9    35    1
    38    14    36    1
    39    16    37    1
    40    17    38    1
    41    19    39    1
    42    19    40    1
    43    20    41    1
    44    20    42    1
    45    24    43    1
    46    25    44    1
    47    26    45    1
    48    27    46    1
