@<TRIPOS>MOLECULE
*****
 66 71 0 0 0
SMALL
GASTEIGER

@<TRIPOS>ATOM
      1 O           3.1057    1.2705    1.5649 O.2     1  UNL1       -0.2463
      2 C           3.3418    0.2569    0.8506 C.ar    1  UNL1        0.3305
      3 N           4.5317   -0.1977    0.4384 N.ar    1  UNL1       -0.2895
      4 C           5.8273    0.3871    0.7185 C.3     1  UNL1        0.0563
      5 C           6.1931    1.4034   -0.3734 C.3     1  UNL1        0.0962
      6 O           5.2229    2.4210   -0.4091 O.3     1  UNL1       -0.3878
      7 C           7.5115    2.0619   -0.0404 C.3     1  UNL1        0.0718
      8 O           7.7733    2.9894   -1.0439 O.3     1  UNL1       -0.3924
      9 C           4.2981   -1.3076   -0.3021 C.ar    1  UNL1        0.0700
     10 C           5.1644   -2.1781   -0.9727 C.ar    1  UNL1       -0.0360
     11 C           4.6462   -3.2544   -1.6668 C.ar    1  UNL1       -0.0597
     12 C           3.2907   -3.4957   -1.7174 C.ar    1  UNL1       -0.0597
     13 C           2.4399   -2.6360   -1.0558 C.ar    1  UNL1       -0.0360
     14 C           2.9434   -1.5523   -0.3553 C.ar    1  UNL1        0.0702
     15 N           2.3555   -0.5639    0.3715 N.ar    1  UNL1       -0.2889
     16 C           0.9469   -0.4126    0.5887 C.3     1  UNL1        0.0417
     17 C           0.2181    0.1183   -0.6445 C.3     1  UNL1       -0.0191
     18 C          -1.1683    0.5624   -0.1206 C.3     1  UNL1        0.0008
     19 N          -1.7931   -0.5825    0.4127 N.3     1  UNL1       -0.3019
     20 C          -3.1760   -0.7974    0.1198 C.3     1  UNL1        0.0025
     21 C          -4.0619    0.1579    0.7850 C.3     1  UNL1       -0.0195
     22 C          -3.9348    1.6049    0.5016 C.3     1  UNL1       -0.0363
     23 C          -4.4249    1.9972   -0.8870 C.3     1  UNL1       -0.0496
     24 C          -5.9370    1.9342   -0.8558 C.3     1  UNL1       -0.0494
     25 C          -6.1807    1.2880    0.4913 C.3     1  UNL1       -0.0348
     26 C          -5.1684    2.0896    1.3191 C.3     1  UNL1       -0.0465
     27 C          -5.5443   -0.0637    0.4554 C.3     1  UNL1       -0.0221
     28 C          -5.9375   -0.9623   -0.6474 C.3     1  UNL1       -0.0463
     29 C          -6.2263   -1.3087    0.7813 C.3     1  UNL1       -0.0463
     30 C          -1.0234   -1.8118    0.3656 C.3     1  UNL1        0.0008
     31 C           0.2438   -1.6009    1.1602 C.3     1  UNL1       -0.0191
     32 H           6.6043   -0.4018    0.6926 H       1  UNL1        0.0520
     33 H           5.8540    0.9453    1.6696 H       1  UNL1        0.0520
     34 H           6.3094    0.9101   -1.3589 H       1  UNL1        0.0634
     35 H           5.5131    3.1272    0.2206 H       1  UNL1        0.2100
     36 H           8.3258    1.3389    0.0879 H       1  UNL1        0.0583
     37 H           7.3262    2.6554    0.8958 H       1  UNL1        0.0583
     38 H           8.5643    3.5252   -0.8897 H       1  UNL1        0.2095
     39 H           6.2254   -1.9576   -0.9124 H       1  UNL1        0.0639
     40 H           5.3465   -3.9240   -2.1854 H       1  UNL1        0.0618
     41 H           2.8772   -4.3413   -2.2621 H       1  UNL1        0.0618
     42 H           1.3640   -2.7714   -1.0614 H       1  UNL1        0.0639
     43 H           0.8207    0.4147    1.3546 H       1  UNL1        0.0530
     44 H           0.1459   -0.6071   -1.4512 H       1  UNL1        0.0298
     45 H           0.7878    0.9922   -0.9955 H       1  UNL1        0.0298
     46 H          -1.6911    1.1425   -0.8718 H       1  UNL1        0.0427
     47 H          -0.9033    1.2433    0.7441 H       1  UNL1        0.0427
     48 H          -3.3027   -0.8545   -0.9910 H       1  UNL1        0.0429
     49 H          -3.3983   -1.8439    0.4678 H       1  UNL1        0.0429
     50 H          -3.9954    0.0103    1.8918 H       1  UNL1        0.0321
     51 H          -3.0485    2.1274    0.8137 H       1  UNL1        0.0304
     52 H          -4.1051    3.0626   -1.0363 H       1  UNL1        0.0268
     53 H          -4.0138    1.3578   -1.6790 H       1  UNL1        0.0268
     54 H          -6.4048    2.9388   -0.8200 H       1  UNL1        0.0268
     55 H          -6.3664    1.2707   -1.6172 H       1  UNL1        0.0268
     56 H          -7.1887    1.3413    0.8552 H       1  UNL1        0.0306
     57 H          -5.1011    1.7409    2.3487 H       1  UNL1        0.0271
     58 H          -5.2744    3.1626    1.1750 H       1  UNL1        0.0271
     59 H          -5.2276   -1.5440   -1.2381 H       1  UNL1        0.0271
     60 H          -6.8622   -0.6799   -1.2323 H       1  UNL1        0.0271
     61 H          -5.6108   -2.1593    1.1615 H       1  UNL1        0.0271
     62 H          -7.2683   -1.3559    1.1520 H       1  UNL1        0.0271
     63 H          -1.6687   -2.5867    0.8714 H       1  UNL1        0.0427
     64 H          -0.8669   -2.1687   -0.6584 H       1  UNL1        0.0427
     65 H          -0.1127   -1.4152    2.2216 H       1  UNL1        0.0298
     66 H           0.8681   -2.5133    1.2493 H       1  UNL1        0.0298
@<TRIPOS>BOND
     1     1     2    2
     2     2     3   ar
     3     3     4    1
     4     4     5    1
     5     5     6    1
     6     5     7    1
     7     7     8    1
     8     3     9   ar
     9     9    10   ar
    10    10    11   ar
    11    11    12   ar
    12    12    13   ar
    13    13    14   ar
    14    14    15   ar
    15    15    16    1
    16    16    17    1
    17    17    18    1
    18    18    19    1
    19    19    20    1
    20    20    21    1
    21    21    22    1
    22    22    23    1
    23    23    24    1
    24    24    25    1
    25    25    26    1
    26    25    27    1
    27    27    28    1
    28    28    29    1
    29    19    30    1
    30    30    31    1
    31    15     2   ar
    32    31    16    1
    33    14     9   ar
    34    27    21    1
    35    26    22    1
    36    29    27    1
    37     4    32    1
    38     4    33    1
    39     5    34    1
    40     6    35    1
    41     7    36    1
    42     7    37    1
    43     8    38    1
    44    10    39    1
    45    11    40    1
    46    12    41    1
    47    13    42    1
    48    16    43    1
    49    17    44    1
    50    17    45    1
    51    18    46    1
    52    18    47    1
    53    20    48    1
    54    20    49    1
    55    21    50    1
    56    22    51    1
    57    23    52    1
    58    23    53    1
    59    24    54    1
    60    24    55    1
    61    25    56    1
    62    26    57    1
    63    26    58    1
    64    28    59    1
    65    28    60    1
    66    29    61    1
    67    29    62    1
    68    30    63    1
    69    30    64    1
    70    31    65    1
    71    31    66    1
