
     RDKit          3D

126127  0  0  0  0  0  0  0  0999 V2000
  -10.4014    0.4384    0.8831 C   0  0  0  0  0  0  0  0  0  0  0  0
   -9.5556    1.3000   -0.0279 C   0  0  0  0  0  0  0  0  0  0  0  0
   -8.9576    2.4042    0.7310 N   0  0  0  0  0  0  0  0  0  0  0  0
   -8.1720    3.2484   -0.1301 C   0  0  0  0  0  0  0  0  0  0  0  0
   -6.9379    2.6103   -0.6515 C   0  0  0  0  0  0  0  0  0  0  0  0
   -5.9507    2.1885    0.4327 C   0  0  0  0  0  0  0  0  0  0  0  0
   -4.7889    1.5937   -0.2629 C   0  0  0  0  0  0  0  0  0  0  0  0
   -3.6534    1.1537    0.6812 C   0  0  2  0  0  0  0  0  0  0  0  0
   -2.5876    0.6143   -0.1613 N   0  0  0  0  0  0  0  0  0  0  0  0
   -1.6792    1.5041   -0.8113 C   0  0  0  0  0  0  0  0  0  0  0  0
   -1.8650    2.7397   -0.6157 O   0  0  0  0  0  0  0  0  0  0  0  0
   -0.5564    1.0818   -1.6890 C   0  0  2  0  0  0  0  0  0  0  0  0
   -0.8135    1.4806   -3.1078 C   0  0  0  0  0  0  0  0  0  0  0  0
    0.2116    1.1612   -4.1220 C   0  0  0  0  0  0  0  0  0  0  0  0
   -0.3197    1.6969   -5.4769 C   0  0  0  0  0  0  0  0  0  0  0  0
    0.4672   -0.3061   -4.3240 C   0  0  0  0  0  0  0  0  0  0  0  0
   -0.3207   -0.3484   -1.5663 N   0  0  0  0  0  0  0  0  0  0  0  0
    0.9698   -0.8467   -1.2355 C   0  0  0  0  0  0  0  0  0  0  0  0
    1.8849    0.0362   -1.0731 O   0  0  0  0  0  0  0  0  0  0  0  0
    1.3262   -2.2666   -1.0686 C   0  0  2  0  0  0  0  0  0  0  0  0
    0.6494   -2.6877    0.2620 C   0  0  0  0  0  0  0  0  0  0  0  0
    2.7443   -2.4224   -0.8138 N   0  0  0  0  0  0  0  0  0  0  0  0
    3.5225   -3.5542   -1.2008 C   0  0  0  0  0  0  0  0  0  0  0  0
    2.9546   -4.4946   -1.7894 O   0  0  0  0  0  0  0  0  0  0  0  0
    4.9842   -3.6208   -0.9145 C   0  0  2  0  0  0  0  0  0  0  0  0
    5.3640   -4.8328   -0.1373 C   0  0  0  0  0  0  0  0  0  0  0  0
    6.8150   -4.8326    0.1288 C   0  0  0  0  0  0  0  0  0  0  0  0
    7.6906   -5.4002   -0.7374 C   0  0  0  0  0  0  0  0  0  0  0  0
    9.0472   -5.3761   -0.4401 C   0  0  0  0  0  0  0  0  0  0  0  0
    9.5000   -4.7840    0.7200 C   0  0  0  0  0  0  0  0  0  0  0  0
    8.6020   -4.2097    1.5937 C   0  0  0  0  0  0  0  0  0  0  0  0
    7.2684   -4.2366    1.2950 C   0  0  0  0  0  0  0  0  0  0  0  0
    5.5059   -2.3894   -0.3464 N   0  0  0  0  0  0  0  0  0  0  0  0
    6.2862   -1.4854   -1.1070 C   0  0  0  0  0  0  0  0  0  0  0  0
    6.4895   -1.8333   -2.3297 O   0  0  0  0  0  0  0  0  0  0  0  0
    6.8604   -0.2381   -0.6436 C   0  0  0  0  0  0  0  0  0  0  0  0
    7.5975    0.5855   -1.4691 C   0  0  0  0  0  0  0  0  0  0  0  0
    8.1482    1.7815   -1.0000 C   0  0  0  0  0  0  0  0  0  0  0  0
    7.9690    2.1777    0.3157 C   0  0  0  0  0  0  0  0  0  0  0  0
    8.5816    3.4682    0.7817 C   0  0  0  0  0  0  0  0  0  0  0  0
    8.2585    3.6922    2.2279 C   0  0  0  0  0  0  0  0  0  0  0  0
   10.1128    3.3524    0.6903 C   0  0  0  0  0  0  0  0  0  0  0  0
    8.1701    4.6287   -0.0813 C   0  0  0  0  0  0  0  0  0  0  0  0
    7.2329    1.3521    1.1347 C   0  0  0  0  0  0  0  0  0  0  0  0
    6.6894    0.1627    0.6534 C   0  0  0  0  0  0  0  0  0  0  0  0
   -4.1517    0.1753    1.6236 C   0  0  0  0  0  0  0  0  0  0  0  0
   -4.9525    0.6049    2.5319 O   0  0  0  0  0  0  0  0  0  0  0  0
   -3.8849   -1.2136    1.6886 N   0  0  0  0  0  0  0  0  0  0  0  0
   -4.4796   -2.0617    2.7048 C   0  0  1  0  0  0  0  0  0  0  0  0
   -5.6832   -2.8148    2.1123 C   0  0  0  0  0  0  0  0  0  0  0  0
   -6.5968   -1.8626    1.6703 O   0  0  0  0  0  0  0  0  0  0  0  0
   -3.4796   -2.9950    3.2228 C   0  0  0  0  0  0  0  0  0  0  0  0
   -3.8047   -3.8354    4.1387 O   0  0  0  0  0  0  0  0  0  0  0  0
   -2.1589   -3.0836    2.8200 O   0  0  0  0  0  0  0  0  0  0  0  0
   -1.2708   -4.0561    3.3971 C   0  0  0  0  0  0  0  0  0  0  0  0
  -10.0091    3.1192    1.3781 C   0  0  0  0  0  0  0  0  0  0  0  0
  -10.9900    3.7697    0.4287 C   0  0  0  0  0  0  0  0  0  0  0  0
   -9.5671    4.1321    2.3937 C   0  0  0  0  0  0  0  0  0  0  0  0
  -11.4503    0.8367    0.9348 H   0  0  0  0  0  0  0  0  0  0  0  0
  -10.4827   -0.5839    0.4606 H   0  0  0  0  0  0  0  0  0  0  0  0
   -9.9776    0.4393    1.9278 H   0  0  0  0  0  0  0  0  0  0  0  0
  -10.2563    1.7404   -0.7915 H   0  0  0  0  0  0  0  0  0  0  0  0
   -8.8300    0.6997   -0.5742 H   0  0  0  0  0  0  0  0  0  0  0  0
   -8.7719    3.5756   -1.0073 H   0  0  0  0  0  0  0  0  0  0  0  0
   -7.8701    4.1432    0.4440 H   0  0  0  0  0  0  0  0  0  0  0  0
   -6.3960    3.3361   -1.2903 H   0  0  0  0  0  0  0  0  0  0  0  0
   -7.1121    1.7186   -1.2813 H   0  0  0  0  0  0  0  0  0  0  0  0
   -5.6529    3.1235    0.9436 H   0  0  0  0  0  0  0  0  0  0  0  0
   -6.4636    1.5562    1.1773 H   0  0  0  0  0  0  0  0  0  0  0  0
   -4.4133    2.3058   -1.0061 H   0  0  0  0  0  0  0  0  0  0  0  0
   -5.1159    0.6551   -0.7557 H   0  0  0  0  0  0  0  0  0  0  0  0
   -3.2903    2.0842    1.1500 H   0  0  0  0  0  0  0  0  0  0  0  0
   -2.4732   -0.3958   -0.3008 H   0  0  0  0  0  0  0  0  0  0  0  0
    0.3588    1.5977   -1.3609 H   0  0  0  0  0  0  0  0  0  0  0  0
   -1.7696    0.9605   -3.4276 H   0  0  0  0  0  0  0  0  0  0  0  0
   -1.0984    2.5722   -3.1859 H   0  0  0  0  0  0  0  0  0  0  0  0
    1.1642    1.7240   -3.9870 H   0  0  0  0  0  0  0  0  0  0  0  0
   -0.0555    2.7515   -5.6260 H   0  0  0  0  0  0  0  0  0  0  0  0
    0.0586    1.0362   -6.2784 H   0  0  0  0  0  0  0  0  0  0  0  0
   -1.4358    1.5792   -5.4734 H   0  0  0  0  0  0  0  0  0  0  0  0
    0.4347   -0.4999   -5.4429 H   0  0  0  0  0  0  0  0  0  0  0  0
   -0.3007   -0.9465   -3.8966 H   0  0  0  0  0  0  0  0  0  0  0  0
    1.5138   -0.5383   -4.0125 H   0  0  0  0  0  0  0  0  0  0  0  0
   -1.0843   -1.0366   -1.7044 H   0  0  0  0  0  0  0  0  0  0  0  0
    0.9060   -2.9688   -1.7956 H   0  0  0  0  0  0  0  0  0  0  0  0
    0.9542   -1.9579    1.0360 H   0  0  0  0  0  0  0  0  0  0  0  0
    1.1482   -3.6524    0.5232 H   0  0  0  0  0  0  0  0  0  0  0  0
   -0.4336   -2.7821    0.1393 H   0  0  0  0  0  0  0  0  0  0  0  0
    3.2698   -1.6726   -0.3135 H   0  0  0  0  0  0  0  0  0  0  0  0
    5.4495   -3.7156   -1.9409 H   0  0  0  0  0  0  0  0  0  0  0  0
    4.8317   -4.8081    0.8395 H   0  0  0  0  0  0  0  0  0  0  0  0
    5.0699   -5.7555   -0.6885 H   0  0  0  0  0  0  0  0  0  0  0  0
    7.3338   -5.8650   -1.6416 H   0  0  0  0  0  0  0  0  0  0  0  0
    9.7807   -5.8210   -1.1077 H   0  0  0  0  0  0  0  0  0  0  0  0
   10.5811   -4.7723    0.9427 H   0  0  0  0  0  0  0  0  0  0  0  0
    8.9447   -3.7408    2.5085 H   0  0  0  0  0  0  0  0  0  0  0  0
    6.5635   -3.7953    1.9651 H   0  0  0  0  0  0  0  0  0  0  0  0
    5.3219   -2.1338    0.6485 H   0  0  0  0  0  0  0  0  0  0  0  0
    7.7265    0.2557   -2.4987 H   0  0  0  0  0  0  0  0  0  0  0  0
    8.7121    2.4125   -1.6417 H   0  0  0  0  0  0  0  0  0  0  0  0
    8.7150    4.6717    2.5435 H   0  0  0  0  0  0  0  0  0  0  0  0
    8.7389    2.9127    2.8315 H   0  0  0  0  0  0  0  0  0  0  0  0
    7.1698    3.8160    2.4182 H   0  0  0  0  0  0  0  0  0  0  0  0
   10.6059    4.2973    0.9315 H   0  0  0  0  0  0  0  0  0  0  0  0
   10.3247    3.0494   -0.3764 H   0  0  0  0  0  0  0  0  0  0  0  0
   10.4865    2.5392    1.3596 H   0  0  0  0  0  0  0  0  0  0  0  0
    9.0572    5.2718   -0.3062 H   0  0  0  0  0  0  0  0  0  0  0  0
    7.7471    4.2418   -1.0336 H   0  0  0  0  0  0  0  0  0  0  0  0
    7.3704    5.2086    0.4187 H   0  0  0  0  0  0  0  0  0  0  0  0
    7.1037    1.6806    2.1678 H   0  0  0  0  0  0  0  0  0  0  0  0
    6.1178   -0.4266    1.3838 H   0  0  0  0  0  0  0  0  0  0  0  0
   -3.2554   -1.6418    0.9971 H   0  0  0  0  0  0  0  0  0  0  0  0
   -4.9128   -1.4308    3.5089 H   0  0  0  0  0  0  0  0  0  0  0  0
   -5.4078   -3.4321    1.2478 H   0  0  0  0  0  0  0  0  0  0  0  0
   -6.1264   -3.3743    2.9432 H   0  0  0  0  0  0  0  0  0  0  0  0
   -7.4001   -1.8874    2.2120 H   0  0  0  0  0  0  0  0  0  0  0  0
   -1.1488   -3.9167    4.4710 H   0  0  0  0  0  0  0  0  0  0  0  0
   -1.6011   -5.0852    3.1134 H   0  0  0  0  0  0  0  0  0  0  0  0
   -0.2891   -3.9066    2.9093 H   0  0  0  0  0  0  0  0  0  0  0  0
  -10.6428    2.3785    1.9621 H   0  0  0  0  0  0  0  0  0  0  0  0
  -11.7427    3.0629    0.0212 H   0  0  0  0  0  0  0  0  0  0  0  0
  -11.5814    4.5059    1.0480 H   0  0  0  0  0  0  0  0  0  0  0  0
  -10.5064    4.3998   -0.3450 H   0  0  0  0  0  0  0  0  0  0  0  0
   -9.2355    3.6328    3.3523 H   0  0  0  0  0  0  0  0  0  0  0  0
  -10.4601    4.7462    2.7183 H   0  0  0  0  0  0  0  0  0  0  0  0
   -8.8318    4.8590    2.0524 H   0  0  0  0  0  0  0  0  0  0  0  0
  1  2  1  0
  2  3  1  0
  3  4  1  0
  4  5  1  0
  5  6  1  0
  6  7  1  0
  7  8  1  0
  8  9  1  0
  9 10  1  0
 10 11  2  0
 10 12  1  0
 12 13  1  0
 13 14  1  0
 14 15  1  0
 14 16  1  0
 12 17  1  0
 17 18  1  0
 18 19  2  0
 18 20  1  0
 20 21  1  0
 20 22  1  0
 22 23  1  0
 23 24  2  0
 23 25  1  0
 25 26  1  0
 26 27  1  0
 27 28  2  0
 28 29  1  0
 29 30  2  0
 30 31  1  0
 31 32  2  0
 25 33  1  0
 33 34  1  0
 34 35  2  0
 34 36  1  0
 36 37  2  0
 37 38  1  0
 38 39  2  0
 39 40  1  0
 40 41  1  0
 40 42  1  0
 40 43  1  0
 39 44  1  0
 44 45  2  0
  8 46  1  0
 46 47  2  0
 46 48  1  0
 48 49  1  0
 49 50  1  0
 50 51  1  0
 49 52  1  0
 52 53  2  0
 52 54  1  0
 54 55  1  0
  3 56  1  0
 56 57  1  0
 56 58  1  0
 32 27  1  0
 45 36  1  0
  1 59  1  0
  1 60  1  0
  1 61  1  0
  2 62  1  0
  2 63  1  0
  4 64  1  0
  4 65  1  0
  5 66  1  0
  5 67  1  0
  6 68  1  0
  6 69  1  0
  7 70  1  0
  7 71  1  0
  8 72  1  1
  9 73  1  0
 12 74  1  1
 13 75  1  0
 13 76  1  0
 14 77  1  0
 15 78  1  0
 15 79  1  0
 15 80  1  0
 16 81  1  0
 16 82  1  0
 16 83  1  0
 17 84  1  0
 20 85  1  6
 21 86  1  0
 21 87  1  0
 21 88  1  0
 22 89  1  0
 25 90  1  6
 26 91  1  0
 26 92  1  0
 28 93  1  0
 29 94  1  0
 30 95  1  0
 31 96  1  0
 32 97  1  0
 33 98  1  0
 37 99  1  0
 38100  1  0
 41101  1  0
 41102  1  0
 41103  1  0
 42104  1  0
 42105  1  0
 42106  1  0
 43107  1  0
 43108  1  0
 43109  1  0
 44110  1  0
 45111  1  0
 48112  1  0
 49113  1  1
 50114  1  0
 50115  1  0
 51116  1  0
 55117  1  0
 55118  1  0
 55119  1  0
 56120  1  0
 57121  1  0
 57122  1  0
 57123  1  0
 58124  1  0
 58125  1  0
 58126  1  0
M  END
$$$$
