@<TRIPOS>MOLECULE
*****
 126 127 0 0 0
SMALL
GASTEIGER

@<TRIPOS>ATOM
      1 C         -10.4014    0.4384    0.8831 C.3     1  UNK1       -0.0523
      2 C          -9.5556    1.3000   -0.0279 C.3     1  UNK1       -0.0037
      3 N          -8.9576    2.4042    0.7310 N.3     1  UNK1       -0.3002
      4 C          -8.1720    3.2484   -0.1301 C.3     1  UNK1       -0.0009
      5 C          -6.9379    2.6103   -0.6515 C.3     1  UNK1       -0.0401
      6 C          -5.9507    2.1885    0.4327 C.3     1  UNK1       -0.0498
      7 C          -4.7889    1.5937   -0.2629 C.3     1  UNK1       -0.0259
      8 C          -3.6534    1.1537    0.6812 C.3     1  UNK1        0.0994
      9 N          -2.5876    0.6143   -0.1613 N.am    1  UNK1       -0.3025
     10 C          -1.6792    1.5041   -0.8113 C.2     1  UNK1        0.2340
     11 O          -1.8650    2.7397   -0.6157 O.2     1  UNK1       -0.2738
     12 C          -0.5564    1.0818   -1.6890 C.3     1  UNK1        0.0996
     13 C          -0.8135    1.4806   -3.1078 C.3     1  UNK1       -0.0236
     14 C           0.2116    1.1612   -4.1220 C.3     1  UNK1       -0.0446
     15 C          -0.3197    1.6969   -5.4769 C.3     1  UNK1       -0.0626
     16 C           0.4672   -0.3061   -4.3240 C.3     1  UNK1       -0.0626
     17 N          -0.3207   -0.3484   -1.5663 N.am    1  UNK1       -0.3025
     18 C           0.9698   -0.8467   -1.2355 C.2     1  UNK1        0.2337
     19 O           1.8849    0.0362   -1.0731 O.2     1  UNK1       -0.2738
     20 C           1.3262   -2.2666   -1.0686 C.3     1  UNK1        0.0966
     21 C           0.6494   -2.6877    0.2620 C.3     1  UNK1       -0.0381
     22 N           2.7443   -2.4224   -0.8138 N.am    1  UNK1       -0.3027
     23 C           3.5225   -3.5542   -1.2008 C.2     1  UNK1        0.2343
     24 O           2.9546   -4.4946   -1.7894 O.2     1  UNK1       -0.2738
     25 C           4.9842   -3.6208   -0.9145 C.3     1  UNK1        0.1036
     26 C           5.3640   -4.8328   -0.1373 C.3     1  UNK1       -0.0006
     27 C           6.8150   -4.8326    0.1288 C.ar    1  UNK1       -0.0451
     28 C           7.6906   -5.4002   -0.7374 C.ar    1  UNK1       -0.0585
     29 C           9.0472   -5.3761   -0.4401 C.ar    1  UNK1       -0.0615
     30 C           9.5000   -4.7840    0.7200 C.ar    1  UNK1       -0.0617
     31 C           8.6020   -4.2097    1.5937 C.ar    1  UNK1       -0.0615
     32 C           7.2684   -4.2366    1.2950 C.ar    1  UNK1       -0.0585
     33 N           5.5059   -2.3894   -0.3464 N.am    1  UNK1       -0.2997
     34 C           6.2862   -1.4854   -1.1070 C.2     0  UNK0        0.2447
     35 O           6.4895   -1.8333   -2.3297 O.2     0  UNK0       -0.2702
     36 C           6.8604   -0.2381   -0.6436 C.ar    0  UNK0        0.0367
     37 C           7.5975    0.5855   -1.4691 C.ar    0  UNK0       -0.0494
     38 C           8.1482    1.7815   -1.0000 C.ar    0  UNK0       -0.0574
     39 C           7.9690    2.1777    0.3157 C.ar    0  UNK0       -0.0419
     40 C           8.5816    3.4682    0.7817 C.3     0  UNK0       -0.0127
     41 C           8.2585    3.6922    2.2279 C.3     0  UNK0       -0.0560
     42 C          10.1128    3.3524    0.6903 C.3     0  UNK0       -0.0560
     43 C           8.1701    4.6287   -0.0813 C.3     0  UNK0       -0.0560
     44 C           7.2329    1.3521    1.1347 C.ar    0  UNK0       -0.0574
     45 C           6.6894    0.1627    0.6534 C.ar    0  UNK0       -0.0494
     46 C          -4.1517    0.1753    1.6236 C.2     1  UNK1        0.2340
     47 O          -4.9525    0.6049    2.5319 O.2     1  UNK1       -0.2738
     48 N          -3.8849   -1.2136    1.6886 N.am    2  UNK2       -0.2991
     49 C          -4.4796   -2.0617    2.7048 C.3     2  UNK2        0.1437
     50 C          -5.6832   -2.8148    2.1123 C.3     2  UNK2        0.0730
     51 O          -6.5968   -1.8626    1.6703 O.3     2  UNK2       -0.3926
     52 C          -3.4796   -2.9950    3.2228 C.2     2  UNK2        0.3297
     53 O          -3.8047   -3.8354    4.1387 O.2     2  UNK2       -0.2487
     54 O          -2.1589   -3.0836    2.8200 O.3     2  UNK2       -0.4666
     55 C          -1.2708   -4.0561    3.3971 C.3     2  UNK2        0.0817
     56 C         -10.0091    3.1192    1.3781 C.3     1  UNK1        0.0048
     57 C         -10.9900    3.7697    0.4287 C.3     1  UNK1       -0.0497
     58 C          -9.5671    4.1321    2.3937 C.3     1  UNK1       -0.0497
     59 H         -11.4503    0.8367    0.9348 H       1  UNK1        0.0242
     60 H         -10.4827   -0.5839    0.4606 H       1  UNK1        0.0242
     61 H          -9.9776    0.4393    1.9278 H       1  UNK1        0.0242
     62 H         -10.2563    1.7404   -0.7915 H       1  UNK1        0.0424
     63 H          -8.8300    0.6997   -0.5742 H       1  UNK1        0.0424
     64 H          -8.7719    3.5756   -1.0073 H       1  UNK1        0.0427
     65 H          -7.8701    4.1432    0.4440 H       1  UNK1        0.0427
     66 H          -6.3960    3.3361   -1.2903 H       1  UNK1        0.0278
     67 H          -7.1121    1.7186   -1.2813 H       1  UNK1        0.0278
     68 H          -5.6529    3.1235    0.9436 H       1  UNK1        0.0266
     69 H          -6.4636    1.5562    1.1773 H       1  UNK1        0.0266
     70 H          -4.4133    2.3058   -1.0061 H       1  UNK1        0.0288
     71 H          -5.1159    0.6551   -0.7557 H       1  UNK1        0.0288
     72 H          -3.2903    2.0842    1.1500 H       1  UNK1        0.0594
     73 H          -2.4732   -0.3958   -0.3008 H       1  UNK1        0.1495
     74 H           0.3588    1.5977   -1.3609 H       1  UNK1        0.0594
     75 H          -1.7696    0.9605   -3.4276 H       1  UNK1        0.0290
     76 H          -1.0984    2.5722   -3.1859 H       1  UNK1        0.0290
     77 H           1.1642    1.7240   -3.9870 H       1  UNK1        0.0296
     78 H          -0.0555    2.7515   -5.6260 H       1  UNK1        0.0232
     79 H           0.0586    1.0362   -6.2784 H       1  UNK1        0.0232
     80 H          -1.4358    1.5792   -5.4734 H       1  UNK1        0.0232
     81 H           0.4347   -0.4999   -5.4429 H       1  UNK1        0.0232
     82 H          -0.3007   -0.9465   -3.8966 H       1  UNK1        0.0232
     83 H           1.5138   -0.5383   -4.0125 H       1  UNK1        0.0232
     84 H          -1.0843   -1.0366   -1.7044 H       1  UNK1        0.1495
     85 H           0.9060   -2.9688   -1.7956 H       1  UNK1        0.0592
     86 H           0.9542   -1.9579    1.0360 H       1  UNK1        0.0252
     87 H           1.1482   -3.6524    0.5232 H       1  UNK1        0.0252
     88 H          -0.4336   -2.7821    0.1393 H       1  UNK1        0.0252
     89 H           3.2698   -1.6726   -0.3135 H       1  UNK1        0.1495
     90 H           5.4495   -3.7156   -1.9409 H       1  UNK1        0.0598
     91 H           4.8317   -4.8081    0.8395 H       1  UNK1        0.0336
     92 H           5.0699   -5.7555   -0.6885 H       1  UNK1        0.0336
     93 H           7.3338   -5.8650   -1.6416 H       1  UNK1        0.0620
     94 H           9.7807   -5.8210   -1.1077 H       1  UNK1        0.0618
     95 H          10.5811   -4.7723    0.9427 H       1  UNK1        0.0618
     96 H           8.9447   -3.7408    2.5085 H       1  UNK1        0.0618
     97 H           6.5635   -3.7953    1.9651 H       1  UNK1        0.0620
     98 H           5.3219   -2.1338    0.6485 H       1  UNK1        0.1498
     99 H           7.7265    0.2557   -2.4987 H       0  UNK0        0.0625
    100 H           8.7121    2.4125   -1.6417 H       0  UNK0        0.0621
    101 H           8.7150    4.6717    2.5435 H       0  UNK0        0.0238
    102 H           8.7389    2.9127    2.8315 H       0  UNK0        0.0238
    103 H           7.1698    3.8160    2.4182 H       0  UNK0        0.0238
    104 H          10.6059    4.2973    0.9315 H       0  UNK0        0.0238
    105 H          10.3247    3.0494   -0.3764 H       0  UNK0        0.0238
    106 H          10.4865    2.5392    1.3596 H       0  UNK0        0.0238
    107 H           9.0572    5.2718   -0.3062 H       0  UNK0        0.0238
    108 H           7.7471    4.2418   -1.0336 H       0  UNK0        0.0238
    109 H           7.3704    5.2086    0.4187 H       0  UNK0        0.0238
    110 H           7.1037    1.6806    2.1678 H       0  UNK0        0.0621
    111 H           6.1178   -0.4266    1.3838 H       0  UNK0        0.0625
    112 H          -3.2554   -1.6418    0.9971 H       2  UNK2        0.1496
    113 H          -4.9128   -1.4308    3.5089 H       2  UNK2        0.0638
    114 H          -5.4078   -3.4321    1.2478 H       2  UNK2        0.0581
    115 H          -6.1264   -3.3743    2.9432 H       2  UNK2        0.0581
    116 H          -7.4001   -1.8874    2.2120 H       2  UNK2        0.2095
    117 H          -1.1488   -3.9167    4.4710 H       2  UNK2        0.0661
    118 H          -1.6011   -5.0852    3.1134 H       2  UNK2        0.0661
    119 H          -0.2891   -3.9066    2.9093 H       2  UNK2        0.0661
    120 H         -10.6428    2.3785    1.9621 H       1  UNK1        0.0457
    121 H         -11.7427    3.0629    0.0212 H       1  UNK1        0.0245
    122 H         -11.5814    4.5059    1.0480 H       1  UNK1        0.0245
    123 H         -10.5064    4.3998   -0.3450 H       1  UNK1        0.0245
    124 H          -9.2355    3.6328    3.3523 H       1  UNK1        0.0245
    125 H         -10.4601    4.7462    2.7183 H       1  UNK1        0.0245
    126 H          -8.8318    4.8590    2.0524 H       1  UNK1        0.0245
@<TRIPOS>BOND
     1     1     2    1
     2     2     3    1
     3     3     4    1
     4     4     5    1
     5     5     6    1
     6     6     7    1
     7     7     8    1
     8     8     9    1
     9     9    10   am
    10    10    11    2
    11    10    12    1
    12    12    13    1
    13    13    14    1
    14    14    15    1
    15    14    16    1
    16    12    17    1
    17    17    18   am
    18    18    19    2
    19    18    20    1
    20    20    21    1
    21    20    22    1
    22    22    23   am
    23    23    24    2
    24    23    25    1
    25    25    26    1
    26    26    27    1
    27    27    28   ar
    28    28    29   ar
    29    29    30   ar
    30    30    31   ar
    31    31    32   ar
    32    25    33    1
    33    33    34   am
    34    34    35    2
    35    34    36    1
    36    36    37   ar
    37    37    38   ar
    38    38    39   ar
    39    39    40    1
    40    40    41    1
    41    40    42    1
    42    40    43    1
    43    39    44   ar
    44    44    45   ar
    45     8    46    1
    46    46    47    2
    47    46    48   am
    48    48    49    1
    49    49    50    1
    50    50    51    1
    51    49    52    1
    52    52    53    2
    53    52    54    1
    54    54    55    1
    55     3    56    1
    56    56    57    1
    57    56    58    1
    58    32    27   ar
    59    45    36   ar
    60     1    59    1
    61     1    60    1
    62     1    61    1
    63     2    62    1
    64     2    63    1
    65     4    64    1
    66     4    65    1
    67     5    66    1
    68     5    67    1
    69     6    68    1
    70     6    69    1
    71     7    70    1
    72     7    71    1
    73     8    72    1
    74     9    73    1
    75    12    74    1
    76    13    75    1
    77    13    76    1
    78    14    77    1
    79    15    78    1
    80    15    79    1
    81    15    80    1
    82    16    81    1
    83    16    82    1
    84    16    83    1
    85    17    84    1
    86    20    85    1
    87    21    86    1
    88    21    87    1
    89    21    88    1
    90    22    89    1
    91    25    90    1
    92    26    91    1
    93    26    92    1
    94    28    93    1
    95    29    94    1
    96    30    95    1
    97    31    96    1
    98    32    97    1
    99    33    98    1
   100    37    99    1
   101    38   100    1
   102    41   101    1
   103    41   102    1
   104    41   103    1
   105    42   104    1
   106    42   105    1
   107    42   106    1
   108    43   107    1
   109    43   108    1
   110    43   109    1
   111    44   110    1
   112    45   111    1
   113    48   112    1
   114    49   113    1
   115    50   114    1
   116    50   115    1
   117    51   116    1
   118    55   117    1
   119    55   118    1
   120    55   119    1
   121    56   120    1
   122    57   121    1
   123    57   122    1
   124    57   123    1
   125    58   124    1
   126    58   125    1
   127    58   126    1
