@<TRIPOS>MOLECULE
*****
 36 39 0 0 0
SMALL
GASTEIGER

@<TRIPOS>ATOM
      1 O          -0.8472   -3.2243    1.9880 O.2     1  UNL1       -0.2638
      2 C          -0.7155   -2.3713    1.0680 C.ar    1  UNL1        0.2947
      3 N           0.3365   -2.4070    0.2309 N.ar    1  UNL1       -0.3068
      4 C           0.4870   -1.4954   -0.7600 C.ar    1  UNL1        0.1247
      5 C           1.6494   -1.5310   -1.6822 C.3     1  UNL1        0.0571
      6 N           2.6780   -0.6982   -1.1621 N.3     1  UNL1       -0.2927
      7 C           3.1510   -1.0532    0.1319 C.3     1  UNL1        0.0018
      8 C           3.8034    0.2487    0.6541 C.3     1  UNL1       -0.0128
      9 C           2.7241    1.2333    0.1845 C.3     1  UNL1        0.0691
     10 O           3.2087    2.5339    0.1668 O.3     1  UNL1       -0.3905
     11 C           2.4561    0.7046   -1.2077 C.3     1  UNL1        0.0254
     12 N          -0.4703   -0.5584   -0.8581 N.ar    1  UNL1       -0.2286
     13 C          -1.5413   -0.4494   -0.0751 C.ar    1  UNL1        0.1241
     14 C          -1.6835   -1.3979    0.9443 C.ar    1  UNL1        0.2183
     15 O          -2.7935   -1.1138    1.5932 O.2     1  UNL1       -0.4477
     16 C          -3.3821   -0.0520    1.0712 C.ar    1  UNL1        0.1381
     17 C          -4.5437    0.6461    1.3694 C.ar    1  UNL1       -0.0176
     18 C          -4.9250    1.7519    0.6339 C.ar    1  UNL1       -0.0442
     19 C          -4.1389    2.1786   -0.4225 C.ar    1  UNL1        0.0187
     20 BR         -4.6114    3.6999   -1.4774 Br      1  UNL1       -0.0503
     21 C          -2.9887    1.4894   -0.7198 C.ar    1  UNL1       -0.0349
     22 C          -2.6268    0.3940    0.0219 C.ar    1  UNL1        0.0475
     23 H           1.0584   -3.1744    0.3579 H       1  UNL1        0.1702
     24 H           1.2667   -1.1250   -2.6617 H       1  UNL1        0.0506
     25 H           2.0040   -2.5859   -1.8409 H       1  UNL1        0.0506
     26 H           2.2552   -1.1638    0.8083 H       1  UNL1        0.0427
     27 H           3.8369   -1.8966    0.1833 H       1  UNL1        0.0427
     28 H           4.7160    0.3858    0.0770 H       1  UNL1        0.0303
     29 H           3.9072    0.2261    1.7357 H       1  UNL1        0.0303
     30 H           1.8413    1.1115    0.8542 H       1  UNL1        0.0606
     31 H           2.6148    3.0632    0.7583 H       1  UNL1        0.2098
     32 H           3.2210    1.1658   -1.8834 H       1  UNL1        0.0452
     33 H           1.4339    0.9765   -1.5592 H       1  UNL1        0.0452
     34 H          -5.1785    0.3359    2.1898 H       1  UNL1        0.0655
     35 H          -5.8300    2.3125    0.8503 H       1  UNL1        0.0630
     36 H          -2.3730    1.8401   -1.5629 H       1  UNL1        0.0636
@<TRIPOS>BOND
     1     1     2    2
     2     2     3   ar
     3     3     4   ar
     4     4     5    1
     5     5     6    1
     6     6     7    1
     7     7     8    1
     8     8     9    1
     9     9    10    1
    10     9    11    1
    11     4    12   ar
    12    12    13   ar
    13    13    14   ar
    14    14    15   ar
    15    15    16   ar
    16    16    17   ar
    17    17    18   ar
    18    18    19   ar
    19    19    20    1
    20    19    21   ar
    21    21    22   ar
    22    14     2   ar
    23    22    16   ar
    24    11     6    1
    25    22    13   ar
    26     3    23    1
    27     5    24    1
    28     5    25    1
    29     7    26    1
    30     7    27    1
    31     8    28    1
    32     8    29    1
    33     9    30    1
    34    10    31    1
    35    11    32    1
    36    11    33    1
    37    17    34    1
    38    18    35    1
    39    21    36    1
