
     RDKit          3D

 36 39  0  0  0  0  0  0  0  0999 V2000
   -0.8472   -3.2243    1.9880 O   0  0  0  0  0  0  0  0  0  0  0  0
   -0.7155   -2.3713    1.0680 C   0  0  0  0  0  0  0  0  0  0  0  0
    0.3365   -2.4070    0.2309 N   0  0  0  0  0  0  0  0  0  0  0  0
    0.4870   -1.4954   -0.7600 C   0  0  0  0  0  0  0  0  0  0  0  0
    1.6494   -1.5310   -1.6822 C   0  0  0  0  0  0  0  0  0  0  0  0
    2.6780   -0.6982   -1.1621 N   0  0  0  0  0  0  0  0  0  0  0  0
    3.1510   -1.0532    0.1319 C   0  0  0  0  0  0  0  0  0  0  0  0
    3.8034    0.2487    0.6541 C   0  0  0  0  0  0  0  0  0  0  0  0
    2.7241    1.2333    0.1845 C   0  0  1  0  0  0  0  0  0  0  0  0
    3.2087    2.5339    0.1668 O   0  0  0  0  0  0  0  0  0  0  0  0
    2.4561    0.7046   -1.2077 C   0  0  0  0  0  0  0  0  0  0  0  0
   -0.4703   -0.5584   -0.8581 N   0  0  0  0  0  0  0  0  0  0  0  0
   -1.5413   -0.4494   -0.0751 C   0  0  0  0  0  0  0  0  0  0  0  0
   -1.6835   -1.3979    0.9443 C   0  0  0  0  0  0  0  0  0  0  0  0
   -2.7935   -1.1138    1.5932 O   0  0  0  0  0  0  0  0  0  0  0  0
   -3.3821   -0.0520    1.0712 C   0  0  0  0  0  0  0  0  0  0  0  0
   -4.5437    0.6461    1.3694 C   0  0  0  0  0  0  0  0  0  0  0  0
   -4.9250    1.7519    0.6339 C   0  0  0  0  0  0  0  0  0  0  0  0
   -4.1389    2.1786   -0.4225 C   0  0  0  0  0  0  0  0  0  0  0  0
   -4.6114    3.6999   -1.4774 Br  0  0  0  0  0  0  0  0  0  0  0  0
   -2.9887    1.4894   -0.7198 C   0  0  0  0  0  0  0  0  0  0  0  0
   -2.6268    0.3940    0.0219 C   0  0  0  0  0  0  0  0  0  0  0  0
    1.0584   -3.1744    0.3579 H   0  0  0  0  0  0  0  0  0  0  0  0
    1.2667   -1.1250   -2.6617 H   0  0  0  0  0  0  0  0  0  0  0  0
    2.0040   -2.5859   -1.8409 H   0  0  0  0  0  0  0  0  0  0  0  0
    2.2552   -1.1638    0.8083 H   0  0  0  0  0  0  0  0  0  0  0  0
    3.8369   -1.8966    0.1833 H   0  0  0  0  0  0  0  0  0  0  0  0
    4.7160    0.3858    0.0770 H   0  0  0  0  0  0  0  0  0  0  0  0
    3.9072    0.2261    1.7357 H   0  0  0  0  0  0  0  0  0  0  0  0
    1.8413    1.1115    0.8542 H   0  0  0  0  0  0  0  0  0  0  0  0
    2.6148    3.0632    0.7583 H   0  0  0  0  0  0  0  0  0  0  0  0
    3.2210    1.1658   -1.8834 H   0  0  0  0  0  0  0  0  0  0  0  0
    1.4339    0.9765   -1.5592 H   0  0  0  0  0  0  0  0  0  0  0  0
   -5.1785    0.3359    2.1898 H   0  0  0  0  0  0  0  0  0  0  0  0
   -5.8300    2.3125    0.8503 H   0  0  0  0  0  0  0  0  0  0  0  0
   -2.3730    1.8401   -1.5629 H   0  0  0  0  0  0  0  0  0  0  0  0
  1  2  2  0
  2  3  1  0
  3  4  1  0
  4  5  1  0
  5  6  1  0
  6  7  1  0
  7  8  1  0
  8  9  1  0
  9 10  1  0
  9 11  1  0
  4 12  2  0
 12 13  1  0
 13 14  2  0
 14 15  1  0
 15 16  1  0
 16 17  2  0
 17 18  1  0
 18 19  2  0
 19 20  1  0
 19 21  1  0
 21 22  2  0
 14  2  1  0
 22 16  1  0
 11  6  1  0
 22 13  1  0
  3 23  1  0
  5 24  1  0
  5 25  1  0
  7 26  1  0
  7 27  1  0
  8 28  1  0
  8 29  1  0
  9 30  1  1
 10 31  1  0
 11 32  1  0
 11 33  1  0
 17 34  1  0
 18 35  1  0
 21 36  1  0
M  END
$$$$
