@<TRIPOS>MOLECULE
*****
 37 38 0 0 0
SMALL
GASTEIGER

@<TRIPOS>ATOM
      1 C           6.1020    0.5654   -0.9428 C.3     1  UNL1        0.0788
      2 O           4.9173    0.4215   -1.6721 O.3     1  UNL1       -0.4951
      3 C           3.6956    0.0239   -1.1707 C.ar    1  UNL1        0.1202
      4 C           2.6216   -0.0653   -2.0432 C.ar    1  UNL1       -0.0181
      5 C           1.3867   -0.4636   -1.5625 C.ar    1  UNL1       -0.0330
      6 C           1.1900   -0.7766   -0.2320 C.ar    1  UNL1        0.0938
      7 S          -0.3791   -1.2917    0.3669 S.O2    1  UNL1        0.0253
      8 O          -0.1560   -2.1953    1.5763 O.2     1  UNL1       -0.1643
      9 O          -0.9533   -2.1677   -0.6943 O.2     1  UNL1       -0.1643
     10 C          -1.2817    0.0934    0.7985 C.ar    1  UNL1        0.0972
     11 C          -0.7389    1.3558    0.6507 C.ar    1  UNL1       -0.0362
     12 C          -1.4312    2.5143    0.9873 C.ar    1  UNL1       -0.0599
     13 C          -2.7096    2.4069    1.4885 C.ar    1  UNL1       -0.0614
     14 C          -3.2796    1.1617    1.6478 C.ar    1  UNL1       -0.0563
     15 C          -2.5462    0.0120    1.2951 C.ar    1  UNL1       -0.0134
     16 C          -3.1848   -1.2937    1.4634 C.3     1  UNL1        0.0529
     17 C          -3.6190   -1.7592    0.1270 C.2     1  UNL1        0.2398
     18 O          -3.8341   -2.9680   -0.0684 O.2     1  UNL1       -0.2734
     19 N          -3.7840   -0.8205   -0.9126 N.am    1  UNL1       -0.1972
     20 O          -4.1753   -1.1503   -2.1624 O.3     1  UNL1       -0.2952
     21 C           2.2721   -0.6785    0.6090 C.ar    1  UNL1       -0.0330
     22 C           3.5154   -0.2821    0.1458 C.ar    1  UNL1       -0.0181
     23 H           7.0033    0.3297   -1.5773 H       1  UNL1        0.0660
     24 H           6.1216    0.0128   -0.0013 H       1  UNL1        0.0660
     25 H           6.2179    1.6595   -0.6898 H       1  UNL1        0.0660
     26 H           2.7232    0.1671   -3.0914 H       1  UNL1        0.0655
     27 H           0.5370   -0.5398   -2.2276 H       1  UNL1        0.0638
     28 H           0.2709    1.4605    0.2566 H       1  UNL1        0.0637
     29 H          -1.0278    3.5027    0.8790 H       1  UNL1        0.0618
     30 H          -3.2922    3.2771    1.7643 H       1  UNL1        0.0618
     31 H          -4.2818    1.0726    2.0425 H       1  UNL1        0.0621
     32 H          -2.5062   -2.0885    1.8317 H       1  UNL1        0.0408
     33 H          -4.1141   -1.2235    2.1000 H       1  UNL1        0.0408
     34 H          -3.5958    0.2040   -0.7293 H       1  UNL1        0.1822
     35 H          -4.1447   -0.3905   -2.7605 H       1  UNL1        0.2414
     36 H           2.1313   -0.9184    1.6338 H       1  UNL1        0.0638
     37 H           4.3295   -0.2288    0.8741 H       1  UNL1        0.0655
@<TRIPOS>BOND
     1     1     2    1
     2     2     3    1
     3     3     4   ar
     4     4     5   ar
     5     5     6   ar
     6     6     7    1
     7     7     8    2
     8     7     9    2
     9     7    10    1
    10    10    11   ar
    11    11    12   ar
    12    12    13   ar
    13    13    14   ar
    14    14    15   ar
    15    15    16    1
    16    16    17    1
    17    17    18    2
    18    17    19   am
    19    19    20    1
    20     6    21   ar
    21    21    22   ar
    22    22     3   ar
    23    15    10   ar
    24     1    23    1
    25     1    24    1
    26     1    25    1
    27     4    26    1
    28     5    27    1
    29    11    28    1
    30    12    29    1
    31    13    30    1
    32    14    31    1
    33    16    32    1
    34    16    33    1
    35    19    34    1
    36    20    35    1
    37    21    36    1
    38    22    37    1
