
     RDKit          3D

 37 38  0  0  0  0  0  0  0  0999 V2000
    6.1020    0.5654   -0.9428 C   0  0  0  0  0  0  0  0  0  0  0  0
    4.9173    0.4215   -1.6721 O   0  0  0  0  0  0  0  0  0  0  0  0
    3.6956    0.0239   -1.1707 C   0  0  0  0  0  0  0  0  0  0  0  0
    2.6216   -0.0653   -2.0432 C   0  0  0  0  0  0  0  0  0  0  0  0
    1.3867   -0.4636   -1.5625 C   0  0  0  0  0  0  0  0  0  0  0  0
    1.1900   -0.7766   -0.2320 C   0  0  0  0  0  0  0  0  0  0  0  0
   -0.3791   -1.2917    0.3669 S   0  0  0  0  0  6  0  0  0  0  0  0
   -0.1560   -2.1953    1.5763 O   0  0  0  0  0  0  0  0  0  0  0  0
   -0.9533   -2.1677   -0.6943 O   0  0  0  0  0  0  0  0  0  0  0  0
   -1.2817    0.0934    0.7985 C   0  0  0  0  0  0  0  0  0  0  0  0
   -0.7389    1.3558    0.6507 C   0  0  0  0  0  0  0  0  0  0  0  0
   -1.4312    2.5143    0.9873 C   0  0  0  0  0  0  0  0  0  0  0  0
   -2.7096    2.4069    1.4885 C   0  0  0  0  0  0  0  0  0  0  0  0
   -3.2796    1.1617    1.6478 C   0  0  0  0  0  0  0  0  0  0  0  0
   -2.5462    0.0120    1.2951 C   0  0  0  0  0  0  0  0  0  0  0  0
   -3.1848   -1.2937    1.4634 C   0  0  0  0  0  0  0  0  0  0  0  0
   -3.6190   -1.7592    0.1270 C   0  0  0  0  0  0  0  0  0  0  0  0
   -3.8341   -2.9680   -0.0684 O   0  0  0  0  0  0  0  0  0  0  0  0
   -3.7840   -0.8205   -0.9126 N   0  0  0  0  0  0  0  0  0  0  0  0
   -4.1753   -1.1503   -2.1624 O   0  0  0  0  0  0  0  0  0  0  0  0
    2.2721   -0.6785    0.6090 C   0  0  0  0  0  0  0  0  0  0  0  0
    3.5154   -0.2821    0.1458 C   0  0  0  0  0  0  0  0  0  0  0  0
    7.0033    0.3297   -1.5773 H   0  0  0  0  0  0  0  0  0  0  0  0
    6.1216    0.0128   -0.0013 H   0  0  0  0  0  0  0  0  0  0  0  0
    6.2179    1.6595   -0.6898 H   0  0  0  0  0  0  0  0  0  0  0  0
    2.7232    0.1671   -3.0914 H   0  0  0  0  0  0  0  0  0  0  0  0
    0.5370   -0.5398   -2.2276 H   0  0  0  0  0  0  0  0  0  0  0  0
    0.2709    1.4605    0.2566 H   0  0  0  0  0  0  0  0  0  0  0  0
   -1.0278    3.5027    0.8790 H   0  0  0  0  0  0  0  0  0  0  0  0
   -3.2922    3.2771    1.7643 H   0  0  0  0  0  0  0  0  0  0  0  0
   -4.2818    1.0726    2.0425 H   0  0  0  0  0  0  0  0  0  0  0  0
   -2.5062   -2.0885    1.8317 H   0  0  0  0  0  0  0  0  0  0  0  0
   -4.1141   -1.2235    2.1000 H   0  0  0  0  0  0  0  0  0  0  0  0
   -3.5958    0.2040   -0.7293 H   0  0  0  0  0  0  0  0  0  0  0  0
   -4.1447   -0.3905   -2.7605 H   0  0  0  0  0  0  0  0  0  0  0  0
    2.1313   -0.9184    1.6338 H   0  0  0  0  0  0  0  0  0  0  0  0
    4.3295   -0.2288    0.8741 H   0  0  0  0  0  0  0  0  0  0  0  0
  1  2  1  0
  2  3  1  0
  3  4  2  0
  4  5  1  0
  5  6  2  0
  6  7  1  0
  7  8  2  0
  7  9  2  0
  7 10  1  0
 10 11  2  0
 11 12  1  0
 12 13  2  0
 13 14  1  0
 14 15  2  0
 15 16  1  0
 16 17  1  0
 17 18  2  0
 17 19  1  0
 19 20  1  0
  6 21  1  0
 21 22  2  0
 22  3  1  0
 15 10  1  0
  1 23  1  0
  1 24  1  0
  1 25  1  0
  4 26  1  0
  5 27  1  0
 11 28  1  0
 12 29  1  0
 13 30  1  0
 14 31  1  0
 16 32  1  0
 16 33  1  0
 19 34  1  0
 20 35  1  0
 21 36  1  0
 22 37  1  0
M  END
$$$$
