@<TRIPOS>MOLECULE
*****
 40 42 0 0 0
SMALL
GASTEIGER

@<TRIPOS>ATOM
      1 C           7.0446    1.0035    0.3167 C.3     1  UNL1        0.0790
      2 O           6.0772    0.1946    0.9118 O.3     1  UNL1       -0.4915
      3 C           4.8058    0.0222    0.4179 C.ar    1  UNL1        0.1613
      4 C           4.3540    0.6467   -0.7398 C.ar    1  UNL1       -0.0160
      5 C           3.0731    0.4567   -1.2138 C.ar    1  UNL1       -0.0534
      6 C           2.1870   -0.3702   -0.5457 C.ar    1  UNL1       -0.0268
      7 C           0.8136   -0.5619   -1.0714 C.3     1  UNL1        0.0340
      8 N          -0.0400    0.4418   -0.4909 N.pl3   1  UNL1       -0.3449
      9 C          -1.4360    0.5252   -0.8005 C.2     1  UNL1        0.0025
     10 C          -2.3336    0.0382    0.0081 C.2     1  UNL1        0.0584
     11 C          -1.8427   -0.5991    1.2504 C.2     1  UNL1        0.2523
     12 O          -0.5999   -0.6609    1.5030 O.2     1  UNL1       -0.2697
     13 N          -2.7905   -1.1381    2.1505 N.am    1  UNL1       -0.2483
     14 C          -4.1754   -1.0621    1.8556 C.2     1  UNL1        0.2511
     15 O          -5.0400   -1.5374    2.6463 O.2     1  UNL1       -0.2698
     16 C          -4.6368   -0.4280    0.6225 C.ar    1  UNL1        0.0451
     17 C          -5.9872   -0.3449    0.3183 C.ar    1  UNL1       -0.0480
     18 C          -6.4852    0.2377   -0.8231 C.ar    1  UNL1       -0.0470
     19 C          -5.5880    0.7734   -1.7225 C.ar    1  UNL1        0.0185
     20 BR         -6.2893    1.5786   -3.3014 Br      1  UNL1       -0.0503
     21 C          -4.2294    0.7148   -1.4631 C.ar    1  UNL1       -0.0391
     22 C          -3.7605    0.1219   -0.3057 C.ar    1  UNL1        0.0014
     23 C           2.6383   -0.9885    0.6028 C.ar    1  UNL1       -0.0119
     24 C           3.9276   -0.7995    1.0832 C.ar    1  UNL1        0.1587
     25 O           4.2971   -1.4682    2.2562 O.3     1  UNL1       -0.5033
     26 H           7.5873    0.4395   -0.4608 H       1  UNL1        0.0660
     27 H           7.7796    1.4145    1.0653 H       1  UNL1        0.0660
     28 H           6.5812    1.9136   -0.1556 H       1  UNL1        0.0660
     29 H           5.0025    1.2943   -1.2895 H       1  UNL1        0.0655
     30 H           2.7105    0.9340   -2.1088 H       1  UNL1        0.0622
     31 H           0.4389   -1.5894   -0.9185 H       1  UNL1        0.0511
     32 H           0.8133   -0.3900   -2.1778 H       1  UNL1        0.0511
     33 H           0.3199    1.1537    0.1815 H       1  UNL1        0.1459
     34 H          -1.6582    1.0105   -1.7300 H       1  UNL1        0.0786
     35 H          -2.4725   -1.6025    3.0515 H       1  UNL1        0.1581
     36 H          -6.6813   -0.7666    1.0277 H       1  UNL1        0.0626
     37 H          -7.5678    0.2750   -1.0123 H       1  UNL1        0.0629
     38 H          -3.5507    1.1391   -2.1791 H       1  UNL1        0.0635
     39 H           1.9524   -1.6370    1.1319 H       1  UNL1        0.0658
     40 H           4.7609   -2.3677    2.1092 H       1  UNL1        0.2923
@<TRIPOS>BOND
     1     1     2    1
     2     2     3    1
     3     3     4   ar
     4     4     5   ar
     5     5     6   ar
     6     6     7    1
     7     7     8    1
     8     8     9    1
     9     9    10    2
    10    10    11    1
    11    11    12    2
    12    11    13   am
    13    13    14   am
    14    14    15    2
    15    14    16    1
    16    16    17   ar
    17    17    18   ar
    18    18    19   ar
    19    19    20    1
    20    19    21   ar
    21    21    22   ar
    22     6    23   ar
    23    23    24   ar
    24    24    25    1
    25    24     3   ar
    26    22    10    1
    27    22    16   ar
    28     1    26    1
    29     1    27    1
    30     1    28    1
    31     4    29    1
    32     5    30    1
    33     7    31    1
    34     7    32    1
    35     8    33    1
    36     9    34    1
    37    13    35    1
    38    17    36    1
    39    18    37    1
    40    21    38    1
    41    23    39    1
    42    25    40    1
