
     RDKit          3D

 40 42  0  0  0  0  0  0  0  0999 V2000
    7.0446    1.0035    0.3167 C   0  0  0  0  0  0  0  0  0  0  0  0
    6.0772    0.1946    0.9118 O   0  0  0  0  0  0  0  0  0  0  0  0
    4.8058    0.0222    0.4179 C   0  0  0  0  0  0  0  0  0  0  0  0
    4.3540    0.6467   -0.7398 C   0  0  0  0  0  0  0  0  0  0  0  0
    3.0731    0.4567   -1.2138 C   0  0  0  0  0  0  0  0  0  0  0  0
    2.1870   -0.3702   -0.5457 C   0  0  0  0  0  0  0  0  0  0  0  0
    0.8136   -0.5619   -1.0714 C   0  0  0  0  0  0  0  0  0  0  0  0
   -0.0400    0.4418   -0.4909 N   0  0  0  0  0  0  0  0  0  0  0  0
   -1.4360    0.5252   -0.8005 C   0  0  0  0  0  0  0  0  0  0  0  0
   -2.3336    0.0382    0.0081 C   0  0  0  0  0  0  0  0  0  0  0  0
   -1.8427   -0.5991    1.2504 C   0  0  0  0  0  0  0  0  0  0  0  0
   -0.5999   -0.6609    1.5030 O   0  0  0  0  0  0  0  0  0  0  0  0
   -2.7905   -1.1381    2.1505 N   0  0  0  0  0  0  0  0  0  0  0  0
   -4.1754   -1.0621    1.8556 C   0  0  0  0  0  0  0  0  0  0  0  0
   -5.0400   -1.5374    2.6463 O   0  0  0  0  0  0  0  0  0  0  0  0
   -4.6368   -0.4280    0.6225 C   0  0  0  0  0  0  0  0  0  0  0  0
   -5.9872   -0.3449    0.3183 C   0  0  0  0  0  0  0  0  0  0  0  0
   -6.4852    0.2377   -0.8231 C   0  0  0  0  0  0  0  0  0  0  0  0
   -5.5880    0.7734   -1.7225 C   0  0  0  0  0  0  0  0  0  0  0  0
   -6.2893    1.5786   -3.3014 Br  0  0  0  0  0  0  0  0  0  0  0  0
   -4.2294    0.7148   -1.4631 C   0  0  0  0  0  0  0  0  0  0  0  0
   -3.7605    0.1219   -0.3057 C   0  0  0  0  0  0  0  0  0  0  0  0
    2.6383   -0.9885    0.6028 C   0  0  0  0  0  0  0  0  0  0  0  0
    3.9276   -0.7995    1.0832 C   0  0  0  0  0  0  0  0  0  0  0  0
    4.2971   -1.4682    2.2562 O   0  0  0  0  0  0  0  0  0  0  0  0
    7.5873    0.4395   -0.4608 H   0  0  0  0  0  0  0  0  0  0  0  0
    7.7796    1.4145    1.0653 H   0  0  0  0  0  0  0  0  0  0  0  0
    6.5812    1.9136   -0.1556 H   0  0  0  0  0  0  0  0  0  0  0  0
    5.0025    1.2943   -1.2895 H   0  0  0  0  0  0  0  0  0  0  0  0
    2.7105    0.9340   -2.1088 H   0  0  0  0  0  0  0  0  0  0  0  0
    0.4389   -1.5894   -0.9185 H   0  0  0  0  0  0  0  0  0  0  0  0
    0.8133   -0.3900   -2.1778 H   0  0  0  0  0  0  0  0  0  0  0  0
    0.3199    1.1537    0.1815 H   0  0  0  0  0  0  0  0  0  0  0  0
   -1.6582    1.0105   -1.7300 H   0  0  0  0  0  0  0  0  0  0  0  0
   -2.4725   -1.6025    3.0515 H   0  0  0  0  0  0  0  0  0  0  0  0
   -6.6813   -0.7666    1.0277 H   0  0  0  0  0  0  0  0  0  0  0  0
   -7.5678    0.2750   -1.0123 H   0  0  0  0  0  0  0  0  0  0  0  0
   -3.5507    1.1391   -2.1791 H   0  0  0  0  0  0  0  0  0  0  0  0
    1.9524   -1.6370    1.1319 H   0  0  0  0  0  0  0  0  0  0  0  0
    4.7609   -2.3677    2.1092 H   0  0  0  0  0  0  0  0  0  0  0  0
  1  2  1  0
  2  3  1  0
  3  4  2  0
  4  5  1  0
  5  6  2  0
  6  7  1  0
  7  8  1  0
  8  9  1  0
  9 10  2  3
 10 11  1  0
 11 12  2  0
 11 13  1  0
 13 14  1  0
 14 15  2  0
 14 16  1  0
 16 17  2  0
 17 18  1  0
 18 19  2  0
 19 20  1  0
 19 21  1  0
 21 22  2  0
  6 23  1  0
 23 24  2  0
 24 25  1  0
 24  3  1  0
 22 10  1  0
 22 16  1  0
  1 26  1  0
  1 27  1  0
  1 28  1  0
  4 29  1  0
  5 30  1  0
  7 31  1  0
  7 32  1  0
  8 33  1  0
  9 34  1  0
 13 35  1  0
 17 36  1  0
 18 37  1  0
 21 38  1  0
 23 39  1  0
 25 40  1  0
M  END
$$$$
