
     RDKit          3D

111110  0  0  0  0  0  0  0  0999 V2000
   11.7910    1.4321    1.1770 C   0  0  0  0  0  0  0  0  0  0  0  0
   11.8867   -0.0690    1.1300 C   0  0  0  0  0  0  0  0  0  0  0  0
   12.3988   -0.5408   -0.2228 C   0  0  0  0  0  0  0  0  0  0  0  0
   10.5757   -0.7387    1.4732 C   0  0  0  0  0  0  0  0  0  0  0  0
    9.4954   -0.3586    0.5446 C   0  0  0  0  0  0  0  0  0  0  0  0
    9.8072    0.4662   -0.3803 O   0  0  0  0  0  0  0  0  0  0  0  0
    8.1761   -0.8170    0.5874 N   0  0  0  0  0  0  0  0  0  0  0  0
    7.1931   -0.3567   -0.4092 C   0  0  2  0  0  0  0  0  0  0  0  0
    6.0441    0.2477    0.3333 C   0  0  0  0  0  0  0  0  0  0  0  0
    6.0243    0.2100    1.5984 O   0  0  0  0  0  0  0  0  0  0  0  0
    4.9600    0.8693   -0.2961 N   0  0  0  0  0  0  0  0  0  0  0  0
    3.8153    1.4639    0.4539 C   0  0  2  0  0  0  0  0  0  0  0  0
    2.5766    0.8017    0.0462 C   0  0  0  0  0  0  0  0  0  0  0  0
    2.6884   -0.0566   -0.8841 O   0  0  0  0  0  0  0  0  0  0  0  0
    1.2985    1.0335    0.5912 N   0  0  0  0  0  0  0  0  0  0  0  0
    0.0858    0.4049    0.1741 C   0  0  1  0  0  0  0  0  0  0  0  0
    0.0839   -0.1628   -1.2252 C   0  0  0  0  0  0  0  0  0  0  0  0
    0.2668    0.9132   -2.2278 C   0  0  0  0  0  0  0  0  0  0  0  0
   -0.8984    1.9212   -2.1348 C   0  0  0  0  0  0  0  0  0  0  0  0
    0.1549    0.2669   -3.6036 C   0  0  0  0  0  0  0  0  0  0  0  0
   -0.4893   -0.4777    1.2083 C   0  0  1  0  0  0  0  0  0  0  0  0
   -0.7943    0.2588    2.3523 O   0  0  0  0  0  0  0  0  0  0  0  0
   -1.6621   -1.2933    0.8187 C   0  0  0  0  0  0  0  0  0  0  0  0
   -2.8552   -0.5683    0.3842 C   0  0  0  0  0  0  0  0  0  0  0  0
   -2.8795    0.6868    0.4672 O   0  0  0  0  0  0  0  0  0  0  0  0
   -4.0119   -1.2014   -0.1379 N   0  0  0  0  0  0  0  0  0  0  0  0
   -5.1705   -0.4840   -0.5621 C   0  0  1  0  0  0  0  0  0  0  0  0
   -5.4055   -0.6001   -2.0588 C   0  0  0  0  0  0  0  0  0  0  0  0
   -6.3624   -1.0218    0.1271 C   0  0  0  0  0  0  0  0  0  0  0  0
   -6.2178   -1.9589    0.9487 O   0  0  0  0  0  0  0  0  0  0  0  0
   -7.6697   -0.4744   -0.1453 N   0  0  0  0  0  0  0  0  0  0  0  0
   -8.7968   -1.0369    0.5481 C   0  0  1  0  0  0  0  0  0  0  0  0
   -9.4212   -0.1541    1.5731 C   0  0  0  0  0  0  0  0  0  0  0  0
   -9.9684    1.1457    1.1126 C   0  0  0  0  0  0  0  0  0  0  0  0
  -10.5619    1.8202    2.3706 C   0  0  0  0  0  0  0  0  0  0  0  0
   -8.9195    2.1272    0.6257 C   0  0  0  0  0  0  0  0  0  0  0  0
   -9.8152   -1.6070   -0.4217 C   0  0  1  0  0  0  0  0  0  0  0  0
   -9.1860   -2.6089   -1.1563 O   0  0  0  0  0  0  0  0  0  0  0  0
  -11.0491   -2.1284    0.2593 C   0  0  0  0  0  0  0  0  0  0  0  0
  -10.8380   -3.2117    1.2134 C   0  0  0  0  0  0  0  0  0  0  0  0
   -9.7357   -3.7503    1.4610 O   0  0  0  0  0  0  0  0  0  0  0  0
  -11.9451   -3.6883    1.9070 O   0  0  0  0  0  0  0  0  0  0  0  0
    3.9079    2.9340    0.1007 C   0  0  0  0  0  0  0  0  0  0  0  0
    5.2876    3.4707    0.5458 C   0  0  0  0  0  0  0  0  0  0  0  0
    2.9228    3.6932    0.9595 C   0  0  0  0  0  0  0  0  0  0  0  0
    6.7697   -1.5447   -1.2551 C   0  0  0  0  0  0  0  0  0  0  0  0
    6.1306   -2.6351   -0.4546 C   0  0  0  0  0  0  0  0  0  0  0  0
    6.0325   -1.1607   -2.4980 C   0  0  0  0  0  0  0  0  0  0  0  0
   10.7698    1.7696    1.4819 H   0  0  0  0  0  0  0  0  0  0  0  0
   12.0739    1.8553    0.1885 H   0  0  0  0  0  0  0  0  0  0  0  0
   12.4707    1.8935    1.9223 H   0  0  0  0  0  0  0  0  0  0  0  0
   12.6264   -0.3882    1.8897 H   0  0  0  0  0  0  0  0  0  0  0  0
   12.1291    0.1958   -1.0252 H   0  0  0  0  0  0  0  0  0  0  0  0
   11.9637   -1.5449   -0.4479 H   0  0  0  0  0  0  0  0  0  0  0  0
   13.4926   -0.6461   -0.2591 H   0  0  0  0  0  0  0  0  0  0  0  0
   10.7420   -1.8236    1.4484 H   0  0  0  0  0  0  0  0  0  0  0  0
   10.2918   -0.3937    2.4892 H   0  0  0  0  0  0  0  0  0  0  0  0
    7.8980   -1.4780    1.3192 H   0  0  0  0  0  0  0  0  0  0  0  0
    7.7155    0.3499   -1.0681 H   0  0  0  0  0  0  0  0  0  0  0  0
    4.9340    0.9359   -1.3341 H   0  0  0  0  0  0  0  0  0  0  0  0
    4.0187    1.2469    1.5097 H   0  0  0  0  0  0  0  0  0  0  0  0
    1.1825    1.7251    1.4036 H   0  0  0  0  0  0  0  0  0  0  0  0
   -0.6427    1.2937    0.0320 H   0  0  0  0  0  0  0  0  0  0  0  0
    0.6840   -1.0661   -1.3634 H   0  0  0  0  0  0  0  0  0  0  0  0
   -0.9856   -0.5352   -1.3622 H   0  0  0  0  0  0  0  0  0  0  0  0
    1.1635    1.5255   -2.1324 H   0  0  0  0  0  0  0  0  0  0  0  0
   -0.7269    2.7000   -1.4000 H   0  0  0  0  0  0  0  0  0  0  0  0
   -1.8406    1.3789   -1.9414 H   0  0  0  0  0  0  0  0  0  0  0  0
   -1.0283    2.3344   -3.1786 H   0  0  0  0  0  0  0  0  0  0  0  0
   -0.7457   -0.3884   -3.5703 H   0  0  0  0  0  0  0  0  0  0  0  0
    0.0915    1.0605   -4.3460 H   0  0  0  0  0  0  0  0  0  0  0  0
    1.0537   -0.3759   -3.7038 H   0  0  0  0  0  0  0  0  0  0  0  0
    0.3078   -1.2093    1.5674 H   0  0  0  0  0  0  0  0  0  0  0  0
   -0.6499   -0.2118    3.1862 H   0  0  0  0  0  0  0  0  0  0  0  0
   -1.9455   -1.9180    1.7176 H   0  0  0  0  0  0  0  0  0  0  0  0
   -1.3533   -2.0130    0.0323 H   0  0  0  0  0  0  0  0  0  0  0  0
   -3.9859   -2.2537   -0.2038 H   0  0  0  0  0  0  0  0  0  0  0  0
   -5.0623    0.5957   -0.3636 H   0  0  0  0  0  0  0  0  0  0  0  0
   -4.9489   -1.5243   -2.4527 H   0  0  0  0  0  0  0  0  0  0  0  0
   -5.0542    0.3030   -2.6095 H   0  0  0  0  0  0  0  0  0  0  0  0
   -6.5027   -0.6192   -2.2155 H   0  0  0  0  0  0  0  0  0  0  0  0
   -7.7212    0.2998   -0.8467 H   0  0  0  0  0  0  0  0  0  0  0  0
   -8.4069   -1.9287    1.1292 H   0  0  0  0  0  0  0  0  0  0  0  0
  -10.2235   -0.6831    2.1290 H   0  0  0  0  0  0  0  0  0  0  0  0
   -8.6420    0.0787    2.3486 H   0  0  0  0  0  0  0  0  0  0  0  0
  -10.8176    1.0598    0.4022 H   0  0  0  0  0  0  0  0  0  0  0  0
  -11.1747    1.0889    2.9399 H   0  0  0  0  0  0  0  0  0  0  0  0
  -11.2032    2.6442    1.9974 H   0  0  0  0  0  0  0  0  0  0  0  0
   -9.7449    2.2757    2.9520 H   0  0  0  0  0  0  0  0  0  0  0  0
   -8.9193    2.2870   -0.4577 H   0  0  0  0  0  0  0  0  0  0  0  0
   -9.0937    3.1503    1.0704 H   0  0  0  0  0  0  0  0  0  0  0  0
   -7.8987    1.8377    0.9395 H   0  0  0  0  0  0  0  0  0  0  0  0
  -10.1288   -0.8482   -1.1718 H   0  0  0  0  0  0  0  0  0  0  0  0
   -8.6538   -2.2154   -1.8989 H   0  0  0  0  0  0  0  0  0  0  0  0
  -11.6212   -1.2666    0.7089 H   0  0  0  0  0  0  0  0  0  0  0  0
  -11.7546   -2.5160   -0.5250 H   0  0  0  0  0  0  0  0  0  0  0  0
  -11.8668   -4.5497    2.4364 H   0  0  0  0  0  0  0  0  0  0  0  0
    3.8395    3.1272   -0.9632 H   0  0  0  0  0  0  0  0  0  0  0  0
    5.1642    4.5675    0.6292 H   0  0  0  0  0  0  0  0  0  0  0  0
    5.5563    3.0749    1.5310 H   0  0  0  0  0  0  0  0  0  0  0  0
    6.0399    3.2805   -0.2329 H   0  0  0  0  0  0  0  0  0  0  0  0
    1.9146    3.7674    0.5456 H   0  0  0  0  0  0  0  0  0  0  0  0
    2.8591    3.2496    1.9718 H   0  0  0  0  0  0  0  0  0  0  0  0
    3.3475    4.7327    1.1652 H   0  0  0  0  0  0  0  0  0  0  0  0
    7.7576   -1.9831   -1.6134 H   0  0  0  0  0  0  0  0  0  0  0  0
    5.1769   -2.2460   -0.0339 H   0  0  0  0  0  0  0  0  0  0  0  0
    5.9971   -3.5121   -1.1040 H   0  0  0  0  0  0  0  0  0  0  0  0
    6.8063   -2.9079    0.3614 H   0  0  0  0  0  0  0  0  0  0  0  0
    4.9291   -1.1815   -2.4108 H   0  0  0  0  0  0  0  0  0  0  0  0
    6.3211   -0.1702   -2.8879 H   0  0  0  0  0  0  0  0  0  0  0  0
    6.3048   -1.8708   -3.3409 H   0  0  0  0  0  0  0  0  0  0  0  0
  1  2  1  0
  2  3  1  0
  2  4  1  0
  4  5  1  0
  5  6  2  0
  5  7  1  0
  7  8  1  0
  8  9  1  0
  9 10  2  0
  9 11  1  0
 11 12  1  0
 12 13  1  0
 13 14  2  0
 13 15  1  0
 15 16  1  0
 16 17  1  0
 17 18  1  0
 18 19  1  0
 18 20  1  0
 16 21  1  0
 21 22  1  0
 21 23  1  0
 23 24  1  0
 24 25  2  0
 24 26  1  0
 26 27  1  0
 27 28  1  0
 27 29  1  0
 29 30  2  0
 29 31  1  0
 31 32  1  0
 32 33  1  0
 33 34  1  0
 34 35  1  0
 34 36  1  0
 32 37  1  0
 37 38  1  0
 37 39  1  0
 39 40  1  0
 40 41  2  0
 40 42  1  0
 12 43  1  0
 43 44  1  0
 43 45  1  0
  8 46  1  0
 46 47  1  0
 46 48  1  0
  1 49  1  0
  1 50  1  0
  1 51  1  0
  2 52  1  0
  3 53  1  0
  3 54  1  0
  3 55  1  0
  4 56  1  0
  4 57  1  0
  7 58  1  0
  8 59  1  6
 11 60  1  0
 12 61  1  1
 15 62  1  0
 16 63  1  6
 17 64  1  0
 17 65  1  0
 18 66  1  0
 19 67  1  0
 19 68  1  0
 19 69  1  0
 20 70  1  0
 20 71  1  0
 20 72  1  0
 21 73  1  1
 22 74  1  0
 23 75  1  0
 23 76  1  0
 26 77  1  0
 27 78  1  6
 28 79  1  0
 28 80  1  0
 28 81  1  0
 31 82  1  0
 32 83  1  1
 33 84  1  0
 33 85  1  0
 34 86  1  0
 35 87  1  0
 35 88  1  0
 35 89  1  0
 36 90  1  0
 36 91  1  0
 36 92  1  0
 37 93  1  6
 38 94  1  0
 39 95  1  0
 39 96  1  0
 42 97  1  0
 43 98  1  0
 44 99  1  0
 44100  1  0
 44101  1  0
 45102  1  0
 45103  1  0
 45104  1  0
 46105  1  0
 47106  1  0
 47107  1  0
 47108  1  0
 48109  1  0
 48110  1  0
 48111  1  0
M  END
$$$$
