@<TRIPOS>MOLECULE
*****
 111 110 0 0 0
SMALL
GASTEIGER

@<TRIPOS>ATOM
      1 C          11.7910    1.4321    1.1770 C.3     1  UNL1       -0.0622
      2 C          11.8867   -0.0690    1.1300 C.3     1  UNL1       -0.0385
      3 C          12.3988   -0.5408   -0.2228 C.3     1  UNL1       -0.0622
      4 C          10.5757   -0.7387    1.4732 C.3     1  UNL1        0.0263
      5 C           9.4954   -0.3586    0.5446 C.2     1  UNL1        0.2139
      6 O           9.8072    0.4662   -0.3803 O.2     1  UNL1       -0.2758
      7 N           8.1761   -0.8170    0.5874 N.am    1  UNL1       -0.3037
      8 C           7.1931   -0.3567   -0.4092 C.3     1  UNL1        0.1017
      9 C           6.0441    0.2477    0.3333 C.2     1  UNL1        0.2342
     10 O           6.0243    0.2100    1.5984 O.2     1  UNL1       -0.2738
     11 N           4.9600    0.8693   -0.2961 N.am    1  UNL1       -0.3022
     12 C           3.8153    1.4639    0.4539 C.3     1  UNL1        0.1017
     13 C           2.5766    0.8017    0.0462 C.2     1  UNL1        0.2339
     14 O           2.6884   -0.0566   -0.8841 O.2     1  UNL1       -0.2738
     15 N           1.2985    1.0335    0.5912 N.am    1  UNL1       -0.3084
     16 C           0.0858    0.4049    0.1741 C.3     1  UNL1        0.0498
     17 C           0.0839   -0.1628   -1.2252 C.3     1  UNL1       -0.0297
     18 C           0.2668    0.9132   -2.2278 C.3     1  UNL1       -0.0450
     19 C          -0.8984    1.9212   -2.1348 C.3     1  UNL1       -0.0626
     20 C           0.1549    0.2669   -3.6036 C.3     1  UNL1       -0.0626
     21 C          -0.4893   -0.4777    1.2083 C.3     1  UNL1        0.0817
     22 O          -0.7943    0.2588    2.3523 O.3     1  UNL1       -0.3895
     23 C          -1.6621   -1.2933    0.8187 C.3     1  UNL1        0.0517
     24 C          -2.8552   -0.5683    0.3842 C.2     1  UNL1        0.2161
     25 O          -2.8795    0.6868    0.4672 O.2     1  UNL1       -0.2757
     26 N          -4.0119   -1.2014   -0.1379 N.am    1  UNL1       -0.3042
     27 C          -5.1705   -0.4840   -0.5621 C.3     1  UNL1        0.0966
     28 C          -5.4055   -0.6001   -2.0588 C.3     1  UNL1       -0.0381
     29 C          -6.3624   -1.0218    0.1271 C.2     1  UNL1        0.2334
     30 O          -6.2178   -1.9589    0.9487 O.2     1  UNL1       -0.2738
     31 N          -7.6697   -0.4744   -0.1453 N.am    1  UNL1       -0.3085
     32 C          -8.7968   -1.0369    0.5481 C.3     1  UNL1        0.0498
     33 C          -9.4212   -0.1541    1.5731 C.3     1  UNL1       -0.0297
     34 C          -9.9684    1.1457    1.1126 C.3     1  UNL1       -0.0450
     35 C         -10.5619    1.8202    2.3706 C.3     1  UNL1       -0.0626
     36 C          -8.9195    2.1272    0.6257 C.3     1  UNL1       -0.0626
     37 C          -9.8152   -1.6070   -0.4217 C.3     1  UNL1        0.0836
     38 O          -9.1860   -2.6089   -1.1563 O.3     1  UNL1       -0.3894
     39 C         -11.0491   -2.1284    0.2593 C.3     1  UNL1        0.0724
     40 C         -10.8380   -3.2117    1.2134 C.2     1  UNL1        0.3072
     41 O          -9.7357   -3.7503    1.4610 O.2     1  UNL1       -0.2509
     42 O         -11.9451   -3.6883    1.9070 O.3     1  UNL1       -0.4806
     43 C           3.9079    2.9340    0.1007 C.3     1  UNL1       -0.0197
     44 C           5.2876    3.4707    0.5458 C.3     1  UNL1       -0.0605
     45 C           2.9228    3.6932    0.9595 C.3     1  UNL1       -0.0605
     46 C           6.7697   -1.5447   -1.2551 C.3     1  UNL1       -0.0197
     47 C           6.1306   -2.6351   -0.4546 C.3     1  UNL1       -0.0605
     48 C           6.0325   -1.1607   -2.4980 C.3     1  UNL1       -0.0605
     49 H          10.7698    1.7696    1.4819 H       1  UNL1        0.0232
     50 H          12.0739    1.8553    0.1885 H       1  UNL1        0.0232
     51 H          12.4707    1.8935    1.9223 H       1  UNL1        0.0232
     52 H          12.6264   -0.3882    1.8897 H       1  UNL1        0.0300
     53 H          12.1291    0.1958   -1.0252 H       1  UNL1        0.0232
     54 H          11.9637   -1.5449   -0.4479 H       1  UNL1        0.0232
     55 H          13.4926   -0.6461   -0.2591 H       1  UNL1        0.0232
     56 H          10.7420   -1.8236    1.4484 H       1  UNL1        0.0361
     57 H          10.2918   -0.3937    2.4892 H       1  UNL1        0.0361
     58 H           7.8980   -1.4780    1.3192 H       1  UNL1        0.1495
     59 H           7.7155    0.3499   -1.0681 H       1  UNL1        0.0597
     60 H           4.9340    0.9359   -1.3341 H       1  UNL1        0.1495
     61 H           4.0187    1.2469    1.5097 H       1  UNL1        0.0597
     62 H           1.1825    1.7251    1.4036 H       1  UNL1        0.1491
     63 H          -0.6427    1.2937    0.0320 H       1  UNL1        0.0524
     64 H           0.6840   -1.0661   -1.3634 H       1  UNL1        0.0286
     65 H          -0.9856   -0.5352   -1.3622 H       1  UNL1        0.0286
     66 H           1.1635    1.5255   -2.1324 H       1  UNL1        0.0296
     67 H          -0.7269    2.7000   -1.4000 H       1  UNL1        0.0232
     68 H          -1.8406    1.3789   -1.9414 H       1  UNL1        0.0232
     69 H          -1.0283    2.3344   -3.1786 H       1  UNL1        0.0232
     70 H          -0.7457   -0.3884   -3.5703 H       1  UNL1        0.0232
     71 H           0.0915    1.0605   -4.3460 H       1  UNL1        0.0232
     72 H           1.0537   -0.3759   -3.7038 H       1  UNL1        0.0232
     73 H           0.3078   -1.2093    1.5674 H       1  UNL1        0.0616
     74 H          -0.6499   -0.2118    3.1862 H       1  UNL1        0.2099
     75 H          -1.9455   -1.9180    1.7176 H       1  UNL1        0.0384
     76 H          -1.3533   -2.0130    0.0323 H       1  UNL1        0.0384
     77 H          -3.9859   -2.2537   -0.2038 H       1  UNL1        0.1494
     78 H          -5.0623    0.5957   -0.3636 H       1  UNL1        0.0592
     79 H          -4.9489   -1.5243   -2.4527 H       1  UNL1        0.0252
     80 H          -5.0542    0.3030   -2.6095 H       1  UNL1        0.0252
     81 H          -6.5027   -0.6192   -2.2155 H       1  UNL1        0.0252
     82 H          -7.7212    0.2998   -0.8467 H       1  UNL1        0.1491
     83 H          -8.4069   -1.9287    1.1292 H       1  UNL1        0.0524
     84 H         -10.2235   -0.6831    2.1290 H       1  UNL1        0.0286
     85 H          -8.6420    0.0787    2.3486 H       1  UNL1        0.0286
     86 H         -10.8176    1.0598    0.4022 H       1  UNL1        0.0296
     87 H         -11.1747    1.0889    2.9399 H       1  UNL1        0.0232
     88 H         -11.2032    2.6442    1.9974 H       1  UNL1        0.0232
     89 H          -9.7449    2.2757    2.9520 H       1  UNL1        0.0232
     90 H          -8.9193    2.2870   -0.4577 H       1  UNL1        0.0232
     91 H          -9.0937    3.1503    1.0704 H       1  UNL1        0.0232
     92 H          -7.8987    1.8377    0.9395 H       1  UNL1        0.0232
     93 H         -10.1288   -0.8482   -1.1718 H       1  UNL1        0.0617
     94 H          -8.6538   -2.2154   -1.8989 H       1  UNL1        0.2099
     95 H         -11.6212   -1.2666    0.7089 H       1  UNL1        0.0404
     96 H         -11.7546   -2.5160   -0.5250 H       1  UNL1        0.0404
     97 H         -11.8668   -4.5497    2.4364 H       1  UNL1        0.2951
     98 H           3.8395    3.1272   -0.9632 H       1  UNL1        0.0318
     99 H           5.1642    4.5675    0.6292 H       1  UNL1        0.0233
    100 H           5.5563    3.0749    1.5310 H       1  UNL1        0.0233
    101 H           6.0399    3.2805   -0.2329 H       1  UNL1        0.0233
    102 H           1.9146    3.7674    0.5456 H       1  UNL1        0.0233
    103 H           2.8591    3.2496    1.9718 H       1  UNL1        0.0233
    104 H           3.3475    4.7327    1.1652 H       1  UNL1        0.0233
    105 H           7.7576   -1.9831   -1.6134 H       1  UNL1        0.0318
    106 H           5.1769   -2.2460   -0.0339 H       1  UNL1        0.0233
    107 H           5.9971   -3.5121   -1.1040 H       1  UNL1        0.0233
    108 H           6.8063   -2.9079    0.3614 H       1  UNL1        0.0233
    109 H           4.9291   -1.1815   -2.4108 H       1  UNL1        0.0233
    110 H           6.3211   -0.1702   -2.8879 H       1  UNL1        0.0233
    111 H           6.3048   -1.8708   -3.3409 H       1  UNL1        0.0233
@<TRIPOS>BOND
     1     1     2    1
     2     2     3    1
     3     2     4    1
     4     4     5    1
     5     5     6    2
     6     5     7   am
     7     7     8    1
     8     8     9    1
     9     9    10    2
    10     9    11   am
    11    11    12    1
    12    12    13    1
    13    13    14    2
    14    13    15   am
    15    15    16    1
    16    16    17    1
    17    17    18    1
    18    18    19    1
    19    18    20    1
    20    16    21    1
    21    21    22    1
    22    21    23    1
    23    23    24    1
    24    24    25    2
    25    24    26   am
    26    26    27    1
    27    27    28    1
    28    27    29    1
    29    29    30    2
    30    29    31   am
    31    31    32    1
    32    32    33    1
    33    33    34    1
    34    34    35    1
    35    34    36    1
    36    32    37    1
    37    37    38    1
    38    37    39    1
    39    39    40    1
    40    40    41    2
    41    40    42    1
    42    12    43    1
    43    43    44    1
    44    43    45    1
    45     8    46    1
    46    46    47    1
    47    46    48    1
    48     1    49    1
    49     1    50    1
    50     1    51    1
    51     2    52    1
    52     3    53    1
    53     3    54    1
    54     3    55    1
    55     4    56    1
    56     4    57    1
    57     7    58    1
    58     8    59    1
    59    11    60    1
    60    12    61    1
    61    15    62    1
    62    16    63    1
    63    17    64    1
    64    17    65    1
    65    18    66    1
    66    19    67    1
    67    19    68    1
    68    19    69    1
    69    20    70    1
    70    20    71    1
    71    20    72    1
    72    21    73    1
    73    22    74    1
    74    23    75    1
    75    23    76    1
    76    26    77    1
    77    27    78    1
    78    28    79    1
    79    28    80    1
    80    28    81    1
    81    31    82    1
    82    32    83    1
    83    33    84    1
    84    33    85    1
    85    34    86    1
    86    35    87    1
    87    35    88    1
    88    35    89    1
    89    36    90    1
    90    36    91    1
    91    36    92    1
    92    37    93    1
    93    38    94    1
    94    39    95    1
    95    39    96    1
    96    42    97    1
    97    43    98    1
    98    44    99    1
    99    44   100    1
   100    44   101    1
   101    45   102    1
   102    45   103    1
   103    45   104    1
   104    46   105    1
   105    47   106    1
   106    47   107    1
   107    47   108    1
   108    48   109    1
   109    48   110    1
   110    48   111    1
