
     RDKit          3D

 55 58  0  0  0  0  0  0  0  0999 V2000
   -3.8775   -1.0476   -0.0317 C   0  0  2  0  0  0  0  0  0  0  0  0
   -3.1345   -1.9884    0.8845 C   0  0  0  0  0  0  0  0  0  0  0  0
   -1.6927   -1.4531    0.7955 C   0  0  0  0  0  0  0  0  0  0  0  0
   -1.7547   -0.2521    0.0541 N   0  0  0  0  0  0  0  0  0  0  0  0
   -0.7994    0.7621    0.2826 C   0  0  0  0  0  0  0  0  0  0  0  0
    0.6126    0.5310   -0.1828 C   0  0  1  0  0  0  0  0  0  0  0  0
    1.4908    1.7073    0.1343 C   0  0  0  0  0  0  0  0  0  0  0  0
    2.4684    1.5133    1.2174 C   0  0  0  0  0  0  0  0  0  0  0  0
    3.0726    0.1483    1.3130 C   0  0  2  0  0  0  0  0  0  0  0  0
    4.5336    0.1968    1.3219 N   0  0  0  0  0  0  0  0  0  0  0  0
    5.1099    0.6202    0.0887 C   0  0  1  0  0  0  0  0  0  0  0  0
    6.3611   -0.0992   -0.1906 N   0  0  0  0  0  0  0  0  0  0  0  0
    4.2345    0.5975   -1.0490 N   0  0  0  0  0  0  0  0  0  0  0  0
    3.3176   -0.5258   -1.0553 C   0  0  1  0  0  0  0  0  0  0  0  0
    4.0206   -1.7439   -1.4915 N   0  0  0  0  0  0  0  0  0  0  0  0
    2.6530   -0.7992    0.2432 C   0  0  2  0  0  0  0  0  0  0  0  0
    1.1350   -0.7839    0.1970 C   0  0  0  0  0  0  0  0  0  0  0  0
   -3.0906    0.2455    0.2382 C   0  0  1  0  0  0  0  0  0  0  0  0
   -3.5556    1.2355   -0.7753 C   0  0  0  0  0  0  0  0  0  0  0  0
   -5.0121    1.5502   -0.4393 C   0  0  0  0  0  0  0  0  0  0  0  0
   -5.8600    0.3121   -0.4379 C   0  0  0  0  0  0  0  0  0  0  0  0
   -5.2833   -0.7950    0.3975 C   0  0  0  0  0  0  0  0  0  0  0  0
   -3.8349   -1.3612   -1.0772 H   0  0  0  0  0  0  0  0  0  0  0  0
   -3.2056   -3.0211    0.4930 H   0  0  0  0  0  0  0  0  0  0  0  0
   -3.5288   -1.9972    1.8987 H   0  0  0  0  0  0  0  0  0  0  0  0
   -1.4338   -1.2272    1.8586 H   0  0  0  0  0  0  0  0  0  0  0  0
   -1.0878   -2.2662    0.3543 H   0  0  0  0  0  0  0  0  0  0  0  0
   -1.1491    1.6698   -0.3110 H   0  0  0  0  0  0  0  0  0  0  0  0
   -0.8161    1.1520    1.3400 H   0  0  0  0  0  0  0  0  0  0  0  0
    0.5264    0.5241   -1.3179 H   0  0  0  0  0  0  0  0  0  0  0  0
    0.7942    2.5273    0.4879 H   0  0  0  0  0  0  0  0  0  0  0  0
    1.9442    2.1494   -0.7751 H   0  0  0  0  0  0  0  0  0  0  0  0
    2.0210    1.7790    2.2176 H   0  0  0  0  0  0  0  0  0  0  0  0
    3.2994    2.2427    1.0870 H   0  0  0  0  0  0  0  0  0  0  0  0
    2.8139   -0.3198    2.2980 H   0  0  0  0  0  0  0  0  0  0  0  0
    4.8714   -0.7605    1.5477 H   0  0  0  0  0  0  0  0  0  0  0  0
    5.4197    1.7030    0.2007 H   0  0  0  0  0  0  0  0  0  0  0  0
    6.2453   -0.6415   -1.0964 H   0  0  0  0  0  0  0  0  0  0  0  0
    7.1547    0.5443   -0.3787 H   0  0  0  0  0  0  0  0  0  0  0  0
    4.8296    0.4975   -1.9070 H   0  0  0  0  0  0  0  0  0  0  0  0
    2.5819   -0.3303   -1.8673 H   0  0  0  0  0  0  0  0  0  0  0  0
    3.4088   -2.5450   -1.2226 H   0  0  0  0  0  0  0  0  0  0  0  0
    4.1104   -1.7319   -2.5161 H   0  0  0  0  0  0  0  0  0  0  0  0
    2.9341   -1.8277    0.6286 H   0  0  0  0  0  0  0  0  0  0  0  0
    0.8825   -1.5443   -0.6005 H   0  0  0  0  0  0  0  0  0  0  0  0
    0.8118   -1.0923    1.2008 H   0  0  0  0  0  0  0  0  0  0  0  0
   -3.2979    0.5434    1.2774 H   0  0  0  0  0  0  0  0  0  0  0  0
   -3.5511    0.7305   -1.7786 H   0  0  0  0  0  0  0  0  0  0  0  0
   -3.0262    2.1843   -0.8116 H   0  0  0  0  0  0  0  0  0  0  0  0
   -5.0664    2.0104    0.5701 H   0  0  0  0  0  0  0  0  0  0  0  0
   -5.3773    2.2459   -1.2009 H   0  0  0  0  0  0  0  0  0  0  0  0
   -6.1170   -0.0445   -1.4455 H   0  0  0  0  0  0  0  0  0  0  0  0
   -6.8288    0.6045    0.0517 H   0  0  0  0  0  0  0  0  0  0  0  0
   -5.3698   -0.6260    1.4762 H   0  0  0  0  0  0  0  0  0  0  0  0
   -5.9081   -1.7025    0.1732 H   0  0  0  0  0  0  0  0  0  0  0  0
  1  2  1  0
  2  3  1  0
  3  4  1  0
  4  5  1  0
  5  6  1  0
  6  7  1  0
  7  8  1  0
  8  9  1  0
  9 10  1  0
 10 11  1  0
 11 12  1  0
 11 13  1  0
 13 14  1  0
 14 15  1  0
 14 16  1  0
 16 17  1  0
  4 18  1  0
 18 19  1  0
 19 20  1  0
 20 21  1  0
 21 22  1  0
 18  1  1  0
 22  1  1  0
 17  6  1  0
 16  9  1  0
  1 23  1  6
  2 24  1  0
  2 25  1  0
  3 26  1  0
  3 27  1  0
  5 28  1  0
  5 29  1  0
  6 30  1  6
  7 31  1  0
  7 32  1  0
  8 33  1  0
  8 34  1  0
  9 35  1  1
 10 36  1  0
 11 37  1  1
 12 38  1  0
 12 39  1  0
 13 40  1  0
 14 41  1  6
 15 42  1  0
 15 43  1  0
 16 44  1  1
 17 45  1  0
 17 46  1  0
 18 47  1  1
 19 48  1  0
 19 49  1  0
 20 50  1  0
 20 51  1  0
 21 52  1  0
 21 53  1  0
 22 54  1  0
 22 55  1  0
M  END
$$$$
