
     RDKit          3D

 55 59  0  0  0  0  0  0  0  0999 V2000
    9.7099    0.3403   -1.4056 C   0  0  0  0  0  0  0  0  0  0  0  0
    8.5123    0.9271   -1.0851 C   0  0  0  0  0  0  0  0  0  0  0  0
    7.6427    0.4153   -0.1443 C   0  0  0  0  0  0  0  0  0  0  0  0
    6.3753    1.0599    0.1778 C   0  0  0  0  0  0  0  0  0  0  0  0
    6.1969    2.4140    0.3908 C   0  0  0  0  0  0  0  0  0  0  0  0
    4.8981    2.6630    0.6668 N   0  0  0  0  0  0  0  0  0  0  0  0
    4.2469    1.4885    0.6329 N   0  0  0  0  0  0  0  0  0  0  0  0
    2.9625    1.1403    0.8270 C   0  0  0  0  0  0  0  0  0  0  0  0
    2.5060   -0.1575    0.7403 C   0  0  0  0  0  0  0  0  0  0  0  0
    1.1128   -0.5283    0.9524 C   0  0  0  0  0  0  0  0  0  0  0  0
    0.0890    0.3284    0.6211 C   0  0  0  0  0  0  0  0  0  0  0  0
   -1.2484   -0.0040    0.8151 C   0  0  0  0  0  0  0  0  0  0  0  0
   -1.6031   -1.2160    1.3507 C   0  0  0  0  0  0  0  0  0  0  0  0
   -2.8736   -1.6334    1.5726 O   0  0  0  0  0  0  0  0  0  0  0  0
   -4.0739   -1.0180    1.3035 C   0  0  0  0  0  0  0  0  0  0  0  0
   -4.3091   -0.8618   -0.1564 C   0  0  0  0  0  0  0  0  0  0  0  0
   -5.5384   -0.2102   -0.4859 N   0  0  0  0  0  0  0  0  0  0  0  0
   -5.8510   -0.0198   -1.8314 C   0  0  0  0  0  0  0  0  0  0  0  0
   -6.6644    1.2517   -1.9778 C   0  0  0  0  0  0  0  0  0  0  0  0
   -7.9142    1.0748   -1.1887 C   0  0  0  0  0  0  0  0  0  0  0  0
   -7.7110    0.6884    0.2454 C   0  0  0  0  0  0  0  0  0  0  0  0
   -6.5462   -0.2231    0.4773 C   0  0  0  0  0  0  0  0  0  0  0  0
   -0.5658   -2.0986    1.6934 C   0  0  0  0  0  0  0  0  0  0  0  0
    0.7194   -1.7401    1.4908 C   0  0  0  0  0  0  0  0  0  0  0  0
    3.4281   -1.1378    0.4378 C   0  0  0  0  0  0  0  0  0  0  0  0
    4.7087   -0.7729    0.2466 N   0  0  0  0  0  0  0  0  0  0  0  0
    5.1234    0.5019    0.3380 C   0  0  0  0  0  0  0  0  0  0  0  0
    8.0420   -0.7624    0.4901 C   0  0  0  0  0  0  0  0  0  0  0  0
    9.2495   -1.3175    0.1394 C   0  0  0  0  0  0  0  0  0  0  0  0
   10.0771   -0.7954   -0.7823 N   0  0  0  0  0  0  0  0  0  0  0  0
   10.3212    0.8196   -2.1572 H   0  0  0  0  0  0  0  0  0  0  0  0
    8.2231    1.8390   -1.5892 H   0  0  0  0  0  0  0  0  0  0  0  0
    7.0090    3.1294    0.3337 H   0  0  0  0  0  0  0  0  0  0  0  0
    2.2210    1.9081    1.0675 H   0  0  0  0  0  0  0  0  0  0  0  0
    0.3099    1.2794    0.2020 H   0  0  0  0  0  0  0  0  0  0  0  0
   -2.0191    0.7090    0.5675 H   0  0  0  0  0  0  0  0  0  0  0  0
   -4.0816   -0.0097    1.7969 H   0  0  0  0  0  0  0  0  0  0  0  0
   -4.8770   -1.6599    1.7908 H   0  0  0  0  0  0  0  0  0  0  0  0
   -4.4042   -1.9196   -0.5932 H   0  0  0  0  0  0  0  0  0  0  0  0
   -3.4656   -0.4218   -0.6670 H   0  0  0  0  0  0  0  0  0  0  0  0
   -6.4115   -0.8641   -2.3186 H   0  0  0  0  0  0  0  0  0  0  0  0
   -4.9275    0.1146   -2.4256 H   0  0  0  0  0  0  0  0  0  0  0  0
   -6.9165    1.3536   -3.0371 H   0  0  0  0  0  0  0  0  0  0  0  0
   -6.0495    2.0931   -1.6009 H   0  0  0  0  0  0  0  0  0  0  0  0
   -8.4674    2.0600   -1.2267 H   0  0  0  0  0  0  0  0  0  0  0  0
   -8.5938    0.3624   -1.7080 H   0  0  0  0  0  0  0  0  0  0  0  0
   -8.6386    0.1559    0.5717 H   0  0  0  0  0  0  0  0  0  0  0  0
   -7.6789    1.6203    0.8474 H   0  0  0  0  0  0  0  0  0  0  0  0
   -6.1142    0.0508    1.4738 H   0  0  0  0  0  0  0  0  0  0  0  0
   -6.9036   -1.2862    0.6188 H   0  0  0  0  0  0  0  0  0  0  0  0
   -0.8421   -3.0653    2.1215 H   0  0  0  0  0  0  0  0  0  0  0  0
    1.5173   -2.4469    1.7666 H   0  0  0  0  0  0  0  0  0  0  0  0
    3.0806   -2.1640    0.3668 H   0  0  0  0  0  0  0  0  0  0  0  0
    7.4207   -1.2097    1.2240 H   0  0  0  0  0  0  0  0  0  0  0  0
    9.5867   -2.2445    0.6241 H   0  0  0  0  0  0  0  0  0  0  0  0
  1  2  2  0
  2  3  1  0
  3  4  1  0
  4  5  1  0
  5  6  2  0
  6  7  1  0
  7  8  1  0
  8  9  2  0
  9 10  1  0
 10 11  2  0
 11 12  1  0
 12 13  2  0
 13 14  1  0
 14 15  1  0
 15 16  1  0
 16 17  1  0
 17 18  1  0
 18 19  1  0
 19 20  1  0
 20 21  1  0
 21 22  1  0
 13 23  1  0
 23 24  2  0
  9 25  1  0
 25 26  2  0
 26 27  1  0
  3 28  2  0
 28 29  1  0
 29 30  2  0
 30  1  1  0
 27  4  2  0
 27  7  1  0
 24 10  1  0
 22 17  1  0
  1 31  1  0
  2 32  1  0
  5 33  1  0
  8 34  1  0
 11 35  1  0
 12 36  1  0
 15 37  1  0
 15 38  1  0
 16 39  1  0
 16 40  1  0
 18 41  1  0
 18 42  1  0
 19 43  1  0
 19 44  1  0
 20 45  1  0
 20 46  1  0
 21 47  1  0
 21 48  1  0
 22 49  1  0
 22 50  1  0
 23 51  1  0
 24 52  1  0
 25 53  1  0
 28 54  1  0
 29 55  1  0
M  END
$$$$
