@<TRIPOS>MOLECULE
*****
 55 59 0 0 0
SMALL
GASTEIGER

@<TRIPOS>ATOM
      1 C           9.7099    0.3403   -1.4056 C.ar    1  UNL1        0.0281
      2 C           8.5123    0.9271   -1.0851 C.ar    1  UNL1       -0.0357
      3 C           7.6427    0.4153   -0.1443 C.ar    1  UNL1       -0.0100
      4 C           6.3753    1.0599    0.1778 C.ar    1  UNL1        0.0461
      5 C           6.1969    2.4140    0.3908 C.ar    1  UNL1        0.0596
      6 N           4.8981    2.6630    0.6668 N.ar    1  UNL1       -0.1727
      7 N           4.2469    1.4885    0.6329 N.ar    1  UNL1       -0.2206
      8 C           2.9625    1.1403    0.8270 C.ar    1  UNL1        0.0406
      9 C           2.5060   -0.1575    0.7403 C.ar    1  UNL1        0.0184
     10 C           1.1128   -0.5283    0.9524 C.ar    1  UNL1       -0.0148
     11 C           0.0890    0.3284    0.6211 C.ar    1  UNL1       -0.0505
     12 C          -1.2484   -0.0040    0.8151 C.ar    1  UNL1       -0.0194
     13 C          -1.6031   -1.2160    1.3507 C.ar    1  UNL1        0.1206
     14 O          -2.8736   -1.6334    1.5726 O.3     1  UNL1       -0.4907
     15 C          -4.0739   -1.0180    1.3035 C.3     1  UNL1        0.1022
     16 C          -4.3091   -0.8618   -0.1564 C.3     1  UNL1        0.0331
     17 N          -5.5384   -0.2102   -0.4859 N.3     1  UNL1       -0.2991
     18 C          -5.8510   -0.0198   -1.8314 C.3     1  UNL1       -0.0010
     19 C          -6.6644    1.2517   -1.9778 C.3     1  UNL1       -0.0402
     20 C          -7.9142    1.0748   -1.1887 C.3     1  UNL1       -0.0507
     21 C          -7.7110    0.6884    0.2454 C.3     1  UNL1       -0.0402
     22 C          -6.5462   -0.2231    0.4773 C.3     1  UNL1       -0.0010
     23 C          -0.5658   -2.0986    1.6934 C.ar    1  UNL1       -0.0194
     24 C           0.7194   -1.7401    1.4908 C.ar    1  UNL1       -0.0505
     25 C           3.4281   -1.1378    0.4378 C.ar    1  UNL1        0.0391
     26 N           4.7087   -0.7729    0.2466 N.ar    1  UNL1       -0.2350
     27 C           5.1234    0.5019    0.3380 C.ar    1  UNL1        0.1632
     28 C           8.0420   -0.7624    0.4901 C.ar    1  UNL1       -0.0357
     29 C           9.2495   -1.3175    0.1394 C.ar    1  UNL1        0.0281
     30 N          10.0771   -0.7954   -0.7823 N.ar    1  UNL1       -0.2632
     31 H          10.3212    0.8196   -2.1572 H       1  UNL1        0.0830
     32 H           8.2231    1.8390   -1.5892 H       1  UNL1        0.0639
     33 H           7.0090    3.1294    0.3337 H       1  UNL1        0.0855
     34 H           2.2210    1.9081    1.0675 H       1  UNL1        0.0837
     35 H           0.3099    1.2794    0.2020 H       1  UNL1        0.0625
     36 H          -2.0191    0.7090    0.5675 H       1  UNL1        0.0654
     37 H          -4.0816   -0.0097    1.7969 H       1  UNL1        0.0709
     38 H          -4.8770   -1.6599    1.7908 H       1  UNL1        0.0709
     39 H          -4.4042   -1.9196   -0.5932 H       1  UNL1        0.0460
     40 H          -3.4656   -0.4218   -0.6670 H       1  UNL1        0.0460
     41 H          -6.4115   -0.8641   -2.3186 H       1  UNL1        0.0427
     42 H          -4.9275    0.1146   -2.4256 H       1  UNL1        0.0427
     43 H          -6.9165    1.3536   -3.0371 H       1  UNL1        0.0278
     44 H          -6.0495    2.0931   -1.6009 H       1  UNL1        0.0278
     45 H          -8.4674    2.0600   -1.2267 H       1  UNL1        0.0266
     46 H          -8.5938    0.3624   -1.7080 H       1  UNL1        0.0266
     47 H          -8.6386    0.1559    0.5717 H       1  UNL1        0.0278
     48 H          -7.6789    1.6203    0.8474 H       1  UNL1        0.0278
     49 H          -6.1142    0.0508    1.4738 H       1  UNL1        0.0427
     50 H          -6.9036   -1.2862    0.6188 H       1  UNL1        0.0427
     51 H          -0.8421   -3.0653    2.1215 H       1  UNL1        0.0654
     52 H           1.5173   -2.4469    1.7666 H       1  UNL1        0.0625
     53 H           3.0806   -2.1640    0.3668 H       1  UNL1        0.0837
     54 H           7.4207   -1.2097    1.2240 H       1  UNL1        0.0639
     55 H           9.5867   -2.2445    0.6241 H       1  UNL1        0.0830
@<TRIPOS>BOND
     1     1     2   ar
     2     2     3   ar
     3     3     4    1
     4     4     5   ar
     5     5     6   ar
     6     6     7   ar
     7     7     8   ar
     8     8     9   ar
     9     9    10    1
    10    10    11   ar
    11    11    12   ar
    12    12    13   ar
    13    13    14    1
    14    14    15    1
    15    15    16    1
    16    16    17    1
    17    17    18    1
    18    18    19    1
    19    19    20    1
    20    20    21    1
    21    21    22    1
    22    13    23   ar
    23    23    24   ar
    24     9    25   ar
    25    25    26   ar
    26    26    27   ar
    27     3    28   ar
    28    28    29   ar
    29    29    30   ar
    30    30     1   ar
    31    27     4   ar
    32    27     7   ar
    33    24    10   ar
    34    22    17    1
    35     1    31    1
    36     2    32    1
    37     5    33    1
    38     8    34    1
    39    11    35    1
    40    12    36    1
    41    15    37    1
    42    15    38    1
    43    16    39    1
    44    16    40    1
    45    18    41    1
    46    18    42    1
    47    19    43    1
    48    19    44    1
    49    20    45    1
    50    20    46    1
    51    21    47    1
    52    21    48    1
    53    22    49    1
    54    22    50    1
    55    23    51    1
    56    24    52    1
    57    25    53    1
    58    28    54    1
    59    29    55    1
