@<TRIPOS>MOLECULE
*****
 63 69 0 0 0
SMALL
GASTEIGER

@<TRIPOS>ATOM
      1 N          -0.8848    0.6167   -4.6645 N.pl3   1  UNL1       -0.3414
      2 C           0.4192    0.9794   -4.2156 C.ar    1  UNL1        0.1424
      3 N           1.2405    1.6169   -5.1067 N.ar    1  UNL1       -0.2371
      4 C           2.4432    1.9699   -4.6665 C.ar    1  UNL1        0.0463
      5 C           2.8493    1.7108   -3.3810 C.ar    1  UNL1        0.0297
      6 N           2.0406    1.0852   -2.5108 N.ar    1  UNL1       -0.2982
      7 C           0.8155    0.7114   -2.9187 C.ar    1  UNL1        0.1135
      8 C           0.1970    0.1075   -1.8485 C.ar    1  UNL1        0.1002
      9 C          -1.1496   -0.4438   -1.7808 C.ar    1  UNL1        0.0046
     10 C          -1.6271   -1.3719   -2.6688 C.ar    1  UNL1       -0.0518
     11 C          -2.9179   -1.8839   -2.6277 C.ar    1  UNL1       -0.0519
     12 C          -3.7752   -1.4317   -1.6295 C.ar    1  UNL1        0.0005
     13 C          -5.0604   -1.8885   -1.5229 C.ar    1  UNL1       -0.0505
     14 C          -5.8654   -1.4024   -0.5086 C.ar    1  UNL1       -0.0351
     15 C          -5.4414   -0.4748    0.4094 C.ar    1  UNL1        0.0717
     16 C          -6.2677    0.0539    1.4927 C.ar    1  UNL1        0.0004
     17 C          -7.5595   -0.3332    1.6878 C.ar    1  UNL1       -0.0526
     18 C          -8.3531    0.1711    2.7278 C.ar    1  UNL1       -0.0611
     19 C          -7.8269    1.0968    3.6004 C.ar    1  UNL1       -0.0617
     20 C          -6.5034    1.5040    3.4136 C.ar    1  UNL1       -0.0611
     21 C          -5.7580    0.9861    2.3820 C.ar    1  UNL1       -0.0526
     22 N          -4.1663   -0.0453    0.2740 N.ar    1  UNL1       -0.2467
     23 C          -3.3434   -0.4985   -0.7094 C.ar    1  UNL1        0.0723
     24 C          -2.0502   -0.0274   -0.8032 C.ar    1  UNL1       -0.0265
     25 N           1.1000    0.1476   -0.8180 N.ar    1  UNL1       -0.2309
     26 C           2.2262    0.7395   -1.2066 C.ar    1  UNL1        0.1181
     27 C           3.4710    1.0241   -0.4758 C.3     1  UNL1        0.0182
     28 C           3.3409    1.4391    0.9495 C.3     1  UNL1       -0.0393
     29 C           4.5048    0.4863    1.2688 C.3     1  UNL1       -0.0270
     30 C           4.2210   -0.1919    2.5748 C.3     1  UNL1        0.0018
     31 N           5.2060   -1.1122    3.0258 N.3     1  UNL1       -0.3020
     32 C           6.4873   -0.5459    3.4292 C.3     1  UNL1        0.0001
     33 C           7.1056   -1.8870    3.0087 C.3     1  UNL1       -0.0274
     34 C           5.9544   -1.8278    1.9932 C.3     1  UNL1        0.0001
     35 C           4.0573   -0.3001    0.0392 C.3     1  UNL1       -0.0393
     36 H          -1.6963    1.1012   -4.2574 H       1  UNL1        0.1438
     37 H          -1.0433   -0.1125   -5.3817 H       1  UNL1        0.1438
     38 H           3.1146    2.4812   -5.3615 H       1  UNL1        0.0845
     39 H           3.8602    2.0300   -3.0764 H       1  UNL1        0.0829
     40 H          -0.9858   -1.7720   -3.4515 H       1  UNL1        0.0624
     41 H          -3.2767   -2.6142   -3.3355 H       1  UNL1        0.0624
     42 H          -5.3997   -2.6172   -2.2419 H       1  UNL1        0.0625
     43 H          -6.8846   -1.7862   -0.4496 H       1  UNL1        0.0639
     44 H          -8.0239   -1.0629    1.0242 H       1  UNL1        0.0624
     45 H          -9.3776   -0.1477    2.8683 H       1  UNL1        0.0618
     46 H          -8.4266    1.5014    4.4163 H       1  UNL1        0.0618
     47 H          -6.1063    2.2318    4.1085 H       1  UNL1        0.0618
     48 H          -4.7412    1.3081    2.2510 H       1  UNL1        0.0624
     49 H          -1.7190    0.7001   -0.0824 H       1  UNL1        0.0645
     50 H           4.2315    1.5954   -1.0136 H       1  UNL1        0.0379
     51 H           3.6007    2.4828    1.1709 H       1  UNL1        0.0275
     52 H           2.3778    1.0898    1.4229 H       1  UNL1        0.0275
     53 H           5.4801    0.9643    1.1999 H       1  UNL1        0.0313
     54 H           3.2455   -0.6971    2.5401 H       1  UNL1        0.0429
     55 H           4.1040    0.6270    3.3440 H       1  UNL1        0.0429
     56 H           6.5881   -0.3531    4.5089 H       1  UNL1        0.0427
     57 H           6.8792    0.2424    2.7466 H       1  UNL1        0.0427
     58 H           6.9682   -2.6939    3.7424 H       1  UNL1        0.0290
     59 H           8.1083   -1.7905    2.5487 H       1  UNL1        0.0290
     60 H           6.3157   -1.1679    1.1572 H       1  UNL1        0.0427
     61 H           5.5515   -2.8000    1.6985 H       1  UNL1        0.0427
     62 H           4.8383   -0.6305   -0.6428 H       1  UNL1        0.0275
     63 H           3.2881   -1.0443    0.3327 H       1  UNL1        0.0275
@<TRIPOS>BOND
     1     1     2    1
     2     2     3   ar
     3     3     4   ar
     4     4     5   ar
     5     5     6   ar
     6     6     7   ar
     7     7     8   ar
     8     8     9    1
     9     9    10   ar
    10    10    11   ar
    11    11    12   ar
    12    12    13   ar
    13    13    14   ar
    14    14    15   ar
    15    15    16    1
    16    16    17   ar
    17    17    18   ar
    18    18    19   ar
    19    19    20   ar
    20    20    21   ar
    21    15    22   ar
    22    22    23   ar
    23    23    24   ar
    24     8    25   ar
    25    25    26   ar
    26    26    27    1
    27    27    28    1
    28    28    29    1
    29    29    30    1
    30    30    31    1
    31    31    32    1
    32    32    33    1
    33    33    34    1
    34    29    35    1
    35     7     2   ar
    36    24     9   ar
    37    35    27    1
    38    26     6   ar
    39    34    31    1
    40    23    12   ar
    41    21    16   ar
    42     1    36    1
    43     1    37    1
    44     4    38    1
    45     5    39    1
    46    10    40    1
    47    11    41    1
    48    13    42    1
    49    14    43    1
    50    17    44    1
    51    18    45    1
    52    19    46    1
    53    20    47    1
    54    21    48    1
    55    24    49    1
    56    27    50    1
    57    28    51    1
    58    28    52    1
    59    29    53    1
    60    30    54    1
    61    30    55    1
    62    32    56    1
    63    32    57    1
    64    33    58    1
    65    33    59    1
    66    34    60    1
    67    34    61    1
    68    35    62    1
    69    35    63    1
