@<TRIPOS>MOLECULE
*****
 42 44 0 0 0
SMALL
GASTEIGER

@<TRIPOS>ATOM
      1 O           3.8948   -3.9622    1.5264 O.2     1  UNL1       -0.1498
      2 S           3.9257   -2.4478    1.3969 S.O2    1  UNL1        0.0766
      3 O           4.3640   -1.8955    2.7512 O.2     1  UNL1       -0.1498
      4 N           5.1257   -2.0285    0.2837 N.pl3   1  UNL1       -0.1937
      5 C           5.5163   -0.6532   -0.0192 C.ar    1  UNL1        0.1774
      6 N           5.3893    0.4424    0.1574 N.ar    1  UNL1       -0.2321
      7 C           5.9489    1.5352   -0.3212 C.ar    1  UNL1        0.0369
      8 C           6.8980    1.2806   -1.2394 C.ar    1  UNL1       -0.0030
      9 S           6.9240   -0.5436   -1.3563 S.2     1  UNL1       -0.0594
     10 C           2.3734   -1.8457    0.9627 C.ar    1  UNL1        0.1450
     11 C           1.4187   -2.7477    0.4476 C.ar    1  UNL1       -0.0121
     12 C           0.1852   -2.3072    0.0434 C.ar    1  UNL1        0.0638
     13 CL         -0.9660   -3.4700   -0.5899 Cl      1  UNL1       -0.0816
     14 C          -0.1745   -0.9821    0.1204 C.ar    1  UNL1        0.0485
     15 N          -1.4635   -0.5427   -0.3063 N.pl3   1  UNL1       -0.3423
     16 C          -1.8431    0.8268   -0.2298 C.3     1  UNL1        0.0141
     17 C          -3.2621    0.9805   -0.7369 C.3     1  UNL1       -0.0020
     18 C          -4.1649    0.1542    0.1206 C.3     1  UNL1       -0.0446
     19 C          -5.6161    0.5137   -0.1575 C.3     1  UNL1       -0.0291
     20 C          -5.7328    2.0176   -0.0659 C.3     1  UNL1        0.0477
     21 O          -4.9687    2.5900   -1.0809 O.3     1  UNL1       -0.3794
     22 C          -3.6380    2.4478   -0.7723 C.3     1  UNL1        0.0519
     23 C           0.7645   -0.1196    0.6241 C.ar    1  UNL1       -0.0022
     24 C           2.0346   -0.5324    1.0478 C.ar    1  UNL1        0.1517
     25 F           2.8659    0.4042    1.5759 F       1  UNL1       -0.2034
     26 H           5.6284   -2.8222   -0.2301 H       1  UNL1        0.1758
     27 H           5.6688    2.5751   -0.0015 H       1  UNL1        0.0835
     28 H           7.5993    1.9544   -1.8743 H       1  UNL1        0.0710
     29 H           1.7134   -3.7908    0.3915 H       1  UNL1        0.0653
     30 H          -2.1266   -1.2468   -0.6796 H       1  UNL1        0.1461
     31 H          -1.1511    1.5081   -0.7666 H       1  UNL1        0.0465
     32 H          -1.7683    1.1295    0.8450 H       1  UNL1        0.0465
     33 H          -3.3624    0.6055   -1.7760 H       1  UNL1        0.0338
     34 H          -3.9204    0.2894    1.1952 H       1  UNL1        0.0270
     35 H          -4.0408   -0.9111   -0.1228 H       1  UNL1        0.0270
     36 H          -5.8660    0.1222   -1.1495 H       1  UNL1        0.0287
     37 H          -6.2495    0.0733    0.6401 H       1  UNL1        0.0287
     38 H          -5.2525    2.3230    0.8932 H       1  UNL1        0.0560
     39 H          -6.7979    2.2758   -0.1259 H       1  UNL1        0.0560
     40 H          -3.0535    2.8973   -1.6242 H       1  UNL1        0.0563
     41 H          -3.3205    2.9769    0.1272 H       1  UNL1        0.0563
     42 H           0.5000    0.9254    0.6922 H       1  UNL1        0.0666
@<TRIPOS>BOND
     1     1     2    2
     2     2     3    2
     3     2     4    1
     4     4     5    1
     5     5     6   ar
     6     6     7   ar
     7     7     8   ar
     8     8     9   ar
     9     2    10    1
    10    10    11   ar
    11    11    12   ar
    12    12    13    1
    13    12    14   ar
    14    14    15    1
    15    15    16    1
    16    16    17    1
    17    17    18    1
    18    18    19    1
    19    19    20    1
    20    20    21    1
    21    21    22    1
    22    14    23   ar
    23    23    24   ar
    24    24    25    1
    25     9     5   ar
    26    24    10   ar
    27    22    17    1
    28     4    26    1
    29     7    27    1
    30     8    28    1
    31    11    29    1
    32    15    30    1
    33    16    31    1
    34    16    32    1
    35    17    33    1
    36    18    34    1
    37    18    35    1
    38    19    36    1
    39    19    37    1
    40    20    38    1
    41    20    39    1
    42    22    40    1
    43    22    41    1
    44    23    42    1
