@<TRIPOS>MOLECULE
*****
 41 44 0 0 0
SMALL
GASTEIGER

@<TRIPOS>ATOM
      1 N          -2.9736   -2.4523   -2.0210 N.pl3   1  UNL1       -0.3134
      2 C          -3.1600   -1.4589   -1.0338 C.2     1  UNL1        0.2764
      3 N          -2.2501   -0.5899   -0.7554 N.2     1  UNL1       -0.2194
      4 C          -2.5607    0.3896    0.2864 C.3     1  UNL1        0.1603
      5 C          -1.2707    1.0147    0.7296 C.ar    1  UNL1        0.0228
      6 C          -0.0791    0.6530    0.1204 C.ar    1  UNL1       -0.0321
      7 C           1.1163    1.2146    0.4831 C.ar    1  UNL1        0.0343
      8 N           2.3475    0.8178   -0.1706 N.am    1  UNL1       -0.2789
      9 C           3.1316   -0.2557    0.3249 C.2     1  UNL1        0.2855
     10 O           2.7029   -0.8388    1.3539 O.2     1  UNL1       -0.2664
     11 C           4.3766   -0.6763   -0.3145 C.ar    1  UNL1        0.2160
     12 N           4.8644   -0.0782   -1.4128 N.ar    1  UNL1       -0.2307
     13 C           5.9955   -0.4361   -2.0205 C.ar    1  UNL1        0.0455
     14 C           6.7162   -1.4856   -1.4950 C.ar    1  UNL1        0.0541
     15 BR          8.3408   -2.0181   -2.3474 Br      1  UNL1       -0.0472
     16 C           6.2414   -2.1205   -0.3673 C.ar    1  UNL1        0.0455
     17 N           5.0816   -1.7000    0.1964 N.ar    1  UNL1       -0.2307
     18 C           1.1289    2.1623    1.4791 C.ar    1  UNL1       -0.0377
     19 C          -0.0319    2.5351    2.0946 C.ar    1  UNL1       -0.0243
     20 C          -1.2435    1.9504    1.7112 C.ar    1  UNL1        0.1292
     21 F          -2.3681    2.3589    2.3878 F       1  UNL1       -0.2051
     22 C          -3.3801    1.4484   -0.3980 C.3     1  UNL1        0.2686
     23 F          -2.6278    2.0146   -1.4197 F       1  UNL1       -0.2062
     24 F          -3.8204    2.4490    0.4129 F       1  UNL1       -0.2062
     25 C          -3.2604   -0.2403    1.4314 C.3     1  UNL1        0.0344
     26 C          -4.6852    0.0822    1.7375 C.3     1  UNL1       -0.0064
     27 C          -4.3408   -1.1891    1.0986 C.3     1  UNL1        0.1091
     28 O          -4.3560   -1.3746   -0.3060 O.2     1  UNL1       -0.4622
     29 H          -2.0389   -2.8741   -2.1741 H       1  UNL1        0.1466
     30 H          -3.7720   -2.7639   -2.5970 H       1  UNL1        0.1466
     31 H          -0.1198   -0.0946   -0.6594 H       1  UNL1        0.0640
     32 H           2.6905    1.3137   -1.0264 H       1  UNL1        0.1552
     33 H           6.3817    0.0611   -2.9164 H       1  UNL1        0.0842
     34 H           6.8271   -2.9403    0.0230 H       1  UNL1        0.0842
     35 H           2.0550    2.6083    1.7712 H       1  UNL1        0.0637
     36 H          -0.0597    3.2894    2.8947 H       1  UNL1        0.0647
     37 H          -4.2836    1.0071   -0.8955 H       1  UNL1        0.1047
     38 H          -2.6012   -0.5009    2.3035 H       1  UNL1        0.0366
     39 H          -5.2460    0.8201    1.1632 H       1  UNL1        0.0306
     40 H          -4.9796    0.0274    2.8095 H       1  UNL1        0.0306
     41 H          -4.4885   -2.1294    1.6601 H       1  UNL1        0.0737
@<TRIPOS>BOND
     1     1     2    1
     2     2     3    2
     3     3     4    1
     4     4     5    1
     5     5     6   ar
     6     6     7   ar
     7     7     8    1
     8     8     9   am
     9     9    10    2
    10     9    11    1
    11    11    12   ar
    12    12    13   ar
    13    13    14   ar
    14    14    15    1
    15    14    16   ar
    16    16    17   ar
    17     7    18   ar
    18    18    19   ar
    19    19    20   ar
    20    20    21    1
    21     4    22    1
    22    22    23    1
    23    22    24    1
    24     4    25    1
    25    25    26    1
    26    26    27    1
    27    27    28    1
    28    28     2    1
    29    20     5   ar
    30    27    25    1
    31    17    11   ar
    32     1    29    1
    33     1    30    1
    34     6    31    1
    35     8    32    1
    36    13    33    1
    37    16    34    1
    38    18    35    1
    39    19    36    1
    40    22    37    1
    41    25    38    1
    42    26    39    1
    43    26    40    1
    44    27    41    1
