
     RDKit          3D

 41 44  0  0  0  0  0  0  0  0999 V2000
   -2.9736   -2.4523   -2.0210 N   0  0  0  0  0  0  0  0  0  0  0  0
   -3.1600   -1.4589   -1.0338 C   0  0  0  0  0  0  0  0  0  0  0  0
   -2.2501   -0.5899   -0.7554 N   0  0  0  0  0  0  0  0  0  0  0  0
   -2.5607    0.3896    0.2864 C   0  0  1  0  0  0  0  0  0  0  0  0
   -1.2707    1.0147    0.7296 C   0  0  0  0  0  0  0  0  0  0  0  0
   -0.0791    0.6530    0.1204 C   0  0  0  0  0  0  0  0  0  0  0  0
    1.1163    1.2146    0.4831 C   0  0  0  0  0  0  0  0  0  0  0  0
    2.3475    0.8178   -0.1706 N   0  0  0  0  0  0  0  0  0  0  0  0
    3.1316   -0.2557    0.3249 C   0  0  0  0  0  0  0  0  0  0  0  0
    2.7029   -0.8388    1.3539 O   0  0  0  0  0  0  0  0  0  0  0  0
    4.3766   -0.6763   -0.3145 C   0  0  0  0  0  0  0  0  0  0  0  0
    4.8644   -0.0782   -1.4128 N   0  0  0  0  0  0  0  0  0  0  0  0
    5.9955   -0.4361   -2.0205 C   0  0  0  0  0  0  0  0  0  0  0  0
    6.7162   -1.4856   -1.4950 C   0  0  0  0  0  0  0  0  0  0  0  0
    8.3408   -2.0181   -2.3474 Br  0  0  0  0  0  0  0  0  0  0  0  0
    6.2414   -2.1205   -0.3673 C   0  0  0  0  0  0  0  0  0  0  0  0
    5.0816   -1.7000    0.1964 N   0  0  0  0  0  0  0  0  0  0  0  0
    1.1289    2.1623    1.4791 C   0  0  0  0  0  0  0  0  0  0  0  0
   -0.0319    2.5351    2.0946 C   0  0  0  0  0  0  0  0  0  0  0  0
   -1.2435    1.9504    1.7112 C   0  0  0  0  0  0  0  0  0  0  0  0
   -2.3681    2.3589    2.3878 F   0  0  0  0  0  0  0  0  0  0  0  0
   -3.3801    1.4484   -0.3980 C   0  0  0  0  0  0  0  0  0  0  0  0
   -2.6278    2.0146   -1.4197 F   0  0  0  0  0  0  0  0  0  0  0  0
   -3.8204    2.4490    0.4129 F   0  0  0  0  0  0  0  0  0  0  0  0
   -3.2604   -0.2403    1.4314 C   0  0  1  0  0  0  0  0  0  0  0  0
   -4.6852    0.0822    1.7375 C   0  0  0  0  0  0  0  0  0  0  0  0
   -4.3408   -1.1891    1.0986 C   0  0  1  0  0  0  0  0  0  0  0  0
   -4.3560   -1.3746   -0.3060 O   0  0  0  0  0  0  0  0  0  0  0  0
   -2.0389   -2.8741   -2.1741 H   0  0  0  0  0  0  0  0  0  0  0  0
   -3.7720   -2.7639   -2.5970 H   0  0  0  0  0  0  0  0  0  0  0  0
   -0.1198   -0.0946   -0.6594 H   0  0  0  0  0  0  0  0  0  0  0  0
    2.6905    1.3137   -1.0264 H   0  0  0  0  0  0  0  0  0  0  0  0
    6.3817    0.0611   -2.9164 H   0  0  0  0  0  0  0  0  0  0  0  0
    6.8271   -2.9403    0.0230 H   0  0  0  0  0  0  0  0  0  0  0  0
    2.0550    2.6083    1.7712 H   0  0  0  0  0  0  0  0  0  0  0  0
   -0.0597    3.2894    2.8947 H   0  0  0  0  0  0  0  0  0  0  0  0
   -4.2836    1.0071   -0.8955 H   0  0  0  0  0  0  0  0  0  0  0  0
   -2.6012   -0.5009    2.3035 H   0  0  0  0  0  0  0  0  0  0  0  0
   -5.2460    0.8201    1.1632 H   0  0  0  0  0  0  0  0  0  0  0  0
   -4.9796    0.0274    2.8095 H   0  0  0  0  0  0  0  0  0  0  0  0
   -4.4885   -2.1294    1.6601 H   0  0  0  0  0  0  0  0  0  0  0  0
  1  2  1  0
  2  3  2  0
  3  4  1  0
  4  5  1  0
  5  6  2  0
  6  7  1  0
  7  8  1  0
  8  9  1  0
  9 10  2  0
  9 11  1  0
 11 12  2  0
 12 13  1  0
 13 14  2  0
 14 15  1  0
 14 16  1  0
 16 17  2  0
  7 18  2  0
 18 19  1  0
 19 20  2  0
 20 21  1  0
  4 22  1  6
 22 23  1  0
 22 24  1  0
  4 25  1  0
 25 26  1  0
 26 27  1  0
 27 28  1  0
 28  2  1  0
 20  5  1  0
 27 25  1  0
 17 11  1  0
  1 29  1  0
  1 30  1  0
  6 31  1  0
  8 32  1  0
 13 33  1  0
 16 34  1  0
 18 35  1  0
 19 36  1  0
 22 37  1  0
 25 38  1  1
 26 39  1  0
 26 40  1  0
 27 41  1  1
M  END
$$$$
