@<TRIPOS>MOLECULE
*****
 60 63 0 0 0
SMALL
GASTEIGER

@<TRIPOS>ATOM
      1 C           7.9031    1.5359    2.5274 C.3     1  UNL1       -0.0063
      2 C           6.7753    1.2295    1.5805 C.ar    1  UNL1        0.1033
      3 C           6.3265   -0.0642    1.3154 C.ar    1  UNL1       -0.0131
      4 C           5.2822    0.0789    0.4093 C.ar    1  UNL1        0.0238
      5 C           4.4553   -0.7836   -0.2216 C.ar    1  UNL1       -0.0089
      6 C           3.4594   -0.3656   -1.1303 C.ar    1  UNL1        0.1428
      7 N           2.7187   -1.3400   -1.7011 N.pl3   1  UNL1       -0.0721
      8 C           1.7238   -1.9416   -1.8940 C.cat   1  UNL1        0.4013
      9 N           1.8475   -3.0835   -2.8407 N.pl3   1  UNL1       -0.1773
     10 C           2.6734   -2.7827   -3.9838 C.1     1  UNL1        0.2552
     11 N           3.3497   -2.5581   -4.9143 N.1     1  UNL1       -0.1538
     12 N           0.4364   -1.7051   -1.3447 N.pl3   1  UNL1       -0.2634
     13 C           0.0220   -1.3135   -0.0496 C.3     1  UNL1        0.1516
     14 C           0.6245   -0.0771    0.5589 C.3     1  UNL1       -0.0106
     15 C          -0.2381    0.4176    1.6988 C.3     1  UNL1       -0.0480
     16 C          -1.1978    1.4735    1.3469 C.3     1  UNL1       -0.0370
     17 C          -1.5561    1.5614   -0.1071 C.3     1  UNL1        0.0153
     18 N          -1.9508    0.2682   -0.6115 N.am    1  UNL1       -0.2898
     19 C          -2.9594    0.3126   -1.6806 C.3     1  UNL1        0.0913
     20 C          -4.3385    0.3055   -1.3879 C.2     1  UNL1        0.2330
     21 O          -5.0984    0.3313   -2.5221 O.2     1  UNL1       -0.2739
     22 N          -5.1811    0.2796   -0.2844 N.am    1  UNL1       -0.3002
     23 C          -4.9079    0.2095    1.1573 C.3     1  UNL1        0.0148
     24 C          -5.9905   -0.7084    1.6881 C.3     1  UNL1       -0.0357
     25 C          -7.0021   -0.8034    0.5700 C.3     1  UNL1       -0.0357
     26 C          -6.6711    0.3639   -0.3060 C.3     1  UNL1        0.0148
     27 C          -1.4846   -1.0047   -0.2505 C.2     1  UNL1        0.2530
     28 O          -2.2164   -1.9510   -0.0829 O.2     1  UNL1       -0.2718
     29 C           3.3456    1.0067   -1.3604 C.ar    1  UNL1       -0.0161
     30 C           4.1898    1.8603   -0.7133 C.ar    1  UNL1       -0.0154
     31 C           5.1552    1.4515    0.1637 C.ar    1  UNL1        0.1354
     32 O           6.0592    2.0273    0.8851 O.2     1  UNL1       -0.4600
     33 H           8.3852    2.4754    2.1826 H       1  UNL1        0.0308
     34 H           8.6779    0.7357    2.4459 H       1  UNL1        0.0308
     35 H           7.5266    1.6084    3.5511 H       1  UNL1        0.0308
     36 H           6.6941   -0.9711    1.7192 H       1  UNL1        0.0658
     37 H           4.5725   -1.8570   -0.0009 H       1  UNL1        0.0660
     38 H           1.3768   -3.9324   -2.6637 H       1  UNL1        0.2780
     39 H          -0.3374   -1.8973   -2.1030 H       1  UNL1        0.2587
     40 H          -0.0048   -2.1519    0.6998 H       1  UNL1        0.0790
     41 H           1.5836   -0.3533    1.0007 H       1  UNL1        0.0303
     42 H           0.7822    0.6831   -0.2020 H       1  UNL1        0.0303
     43 H           0.4265    0.7986    2.4794 H       1  UNL1        0.0267
     44 H          -0.7075   -0.5150    2.1251 H       1  UNL1        0.0267
     45 H          -0.8803    2.4712    1.7336 H       1  UNL1        0.0280
     46 H          -2.1714    1.2604    1.8880 H       1  UNL1        0.0280
     47 H          -0.7166    1.9834   -0.7045 H       1  UNL1        0.0465
     48 H          -2.3948    2.3112   -0.2032 H       1  UNL1        0.0465
     49 H          -2.7375   -0.5566   -2.4038 H       1  UNL1        0.0560
     50 H          -2.6273    1.1837   -2.3217 H       1  UNL1        0.0560
     51 H          -3.9140   -0.2518    1.2748 H       1  UNL1        0.0464
     52 H          -4.9320    1.2068    1.6128 H       1  UNL1        0.0464
     53 H          -5.5617   -1.6836    1.9700 H       1  UNL1        0.0281
     54 H          -6.4412   -0.1836    2.5630 H       1  UNL1        0.0281
     55 H          -8.0351   -0.7491    0.9633 H       1  UNL1        0.0281
     56 H          -6.8413   -1.7410   -0.0502 H       1  UNL1        0.0281
     57 H          -6.9123    1.2960    0.2246 H       1  UNL1        0.0464
     58 H          -7.0395    0.3083   -1.3279 H       1  UNL1        0.0464
     59 H           2.5854    1.3528   -2.0447 H       1  UNL1        0.0654
     60 H           4.0888    2.9381   -0.9225 H       1  UNL1        0.0655
@<TRIPOS>BOND
     1     1     2    1
     2     2     3   ar
     3     3     4   ar
     4     4     5   ar
     5     5     6   ar
     6     6     7    1
     7     7     8    2
     8     8     9    1
     9     9    10    1
    10    10    11    3
    11     8    12    1
    12    12    13    1
    13    13    14    1
    14    14    15    1
    15    15    16    1
    16    16    17    1
    17    17    18    1
    18    18    19    1
    19    19    20    1
    20    20    21    2
    21    20    22   am
    22    22    23    1
    23    23    24    1
    24    24    25    1
    25    25    26    1
    26    18    27   am
    27    27    28    2
    28     6    29   ar
    29    29    30   ar
    30    30    31   ar
    31    31    32   ar
    32    32     2   ar
    33    31     4   ar
    34    27    13    1
    35    26    22    1
    36     1    33    1
    37     1    34    1
    38     1    35    1
    39     3    36    1
    40     5    37    1
    41     9    38    1
    42    12    39    1
    43    13    40    1
    44    14    41    1
    45    14    42    1
    46    15    43    1
    47    15    44    1
    48    16    45    1
    49    16    46    1
    50    17    47    1
    51    17    48    1
    52    19    49    1
    53    19    50    1
    54    23    51    1
    55    23    52    1
    56    24    53    1
    57    24    54    1
    58    25    55    1
    59    25    56    1
    60    26    57    1
    61    26    58    1
    62    29    59    1
    63    30    60    1
