
     RDKit          3D

 60 63  0  0  0  0  0  0  0  0999 V2000
    7.9031    1.5359    2.5274 C   0  0  0  0  0  0  0  0  0  0  0  0
    6.7753    1.2295    1.5805 C   0  0  0  0  0  0  0  0  0  0  0  0
    6.3265   -0.0642    1.3154 C   0  0  0  0  0  0  0  0  0  0  0  0
    5.2822    0.0789    0.4093 C   0  0  0  0  0  0  0  0  0  0  0  0
    4.4553   -0.7836   -0.2216 C   0  0  0  0  0  0  0  0  0  0  0  0
    3.4594   -0.3656   -1.1303 C   0  0  0  0  0  0  0  0  0  0  0  0
    2.7187   -1.3400   -1.7011 N   0  0  0  0  0  0  0  0  0  0  0  0
    1.7238   -1.9416   -1.8940 C   0  0  0  0  0  0  0  0  0  0  0  0
    1.8475   -3.0835   -2.8407 N   0  0  0  0  0  0  0  0  0  0  0  0
    2.6734   -2.7827   -3.9838 C   0  0  0  0  0  0  0  0  0  0  0  0
    3.3497   -2.5581   -4.9143 N   0  0  0  0  0  0  0  0  0  0  0  0
    0.4364   -1.7051   -1.3447 N   0  0  0  0  0  0  0  0  0  0  0  0
    0.0220   -1.3135   -0.0496 C   0  0  1  0  0  0  0  0  0  0  0  0
    0.6245   -0.0771    0.5589 C   0  0  0  0  0  0  0  0  0  0  0  0
   -0.2381    0.4176    1.6988 C   0  0  0  0  0  0  0  0  0  0  0  0
   -1.1978    1.4735    1.3469 C   0  0  0  0  0  0  0  0  0  0  0  0
   -1.5561    1.5614   -0.1071 C   0  0  0  0  0  0  0  0  0  0  0  0
   -1.9508    0.2682   -0.6115 N   0  0  0  0  0  0  0  0  0  0  0  0
   -2.9594    0.3126   -1.6806 C   0  0  0  0  0  0  0  0  0  0  0  0
   -4.3385    0.3055   -1.3879 C   0  0  0  0  0  0  0  0  0  0  0  0
   -5.0984    0.3313   -2.5221 O   0  0  0  0  0  0  0  0  0  0  0  0
   -5.1811    0.2796   -0.2844 N   0  0  0  0  0  0  0  0  0  0  0  0
   -4.9079    0.2095    1.1573 C   0  0  0  0  0  0  0  0  0  0  0  0
   -5.9905   -0.7084    1.6881 C   0  0  0  0  0  0  0  0  0  0  0  0
   -7.0021   -0.8034    0.5700 C   0  0  0  0  0  0  0  0  0  0  0  0
   -6.6711    0.3639   -0.3060 C   0  0  0  0  0  0  0  0  0  0  0  0
   -1.4846   -1.0047   -0.2505 C   0  0  0  0  0  0  0  0  0  0  0  0
   -2.2164   -1.9510   -0.0829 O   0  0  0  0  0  0  0  0  0  0  0  0
    3.3456    1.0067   -1.3604 C   0  0  0  0  0  0  0  0  0  0  0  0
    4.1898    1.8603   -0.7133 C   0  0  0  0  0  0  0  0  0  0  0  0
    5.1552    1.4515    0.1637 C   0  0  0  0  0  0  0  0  0  0  0  0
    6.0592    2.0273    0.8851 O   0  0  0  0  0  0  0  0  0  0  0  0
    8.3852    2.4754    2.1826 H   0  0  0  0  0  0  0  0  0  0  0  0
    8.6779    0.7357    2.4459 H   0  0  0  0  0  0  0  0  0  0  0  0
    7.5266    1.6084    3.5511 H   0  0  0  0  0  0  0  0  0  0  0  0
    6.6941   -0.9711    1.7192 H   0  0  0  0  0  0  0  0  0  0  0  0
    4.5725   -1.8570   -0.0009 H   0  0  0  0  0  0  0  0  0  0  0  0
    1.3768   -3.9324   -2.6637 H   0  0  0  0  0  0  0  0  0  0  0  0
   -0.3374   -1.8973   -2.1030 H   0  0  0  0  0  0  0  0  0  0  0  0
   -0.0048   -2.1519    0.6998 H   0  0  0  0  0  0  0  0  0  0  0  0
    1.5836   -0.3533    1.0007 H   0  0  0  0  0  0  0  0  0  0  0  0
    0.7822    0.6831   -0.2020 H   0  0  0  0  0  0  0  0  0  0  0  0
    0.4265    0.7986    2.4794 H   0  0  0  0  0  0  0  0  0  0  0  0
   -0.7075   -0.5150    2.1251 H   0  0  0  0  0  0  0  0  0  0  0  0
   -0.8803    2.4712    1.7336 H   0  0  0  0  0  0  0  0  0  0  0  0
   -2.1714    1.2604    1.8880 H   0  0  0  0  0  0  0  0  0  0  0  0
   -0.7166    1.9834   -0.7045 H   0  0  0  0  0  0  0  0  0  0  0  0
   -2.3948    2.3112   -0.2032 H   0  0  0  0  0  0  0  0  0  0  0  0
   -2.7375   -0.5566   -2.4038 H   0  0  0  0  0  0  0  0  0  0  0  0
   -2.6273    1.1837   -2.3217 H   0  0  0  0  0  0  0  0  0  0  0  0
   -3.9140   -0.2518    1.2748 H   0  0  0  0  0  0  0  0  0  0  0  0
   -4.9320    1.2068    1.6128 H   0  0  0  0  0  0  0  0  0  0  0  0
   -5.5617   -1.6836    1.9700 H   0  0  0  0  0  0  0  0  0  0  0  0
   -6.4412   -0.1836    2.5630 H   0  0  0  0  0  0  0  0  0  0  0  0
   -8.0351   -0.7491    0.9633 H   0  0  0  0  0  0  0  0  0  0  0  0
   -6.8413   -1.7410   -0.0502 H   0  0  0  0  0  0  0  0  0  0  0  0
   -6.9123    1.2960    0.2246 H   0  0  0  0  0  0  0  0  0  0  0  0
   -7.0395    0.3083   -1.3279 H   0  0  0  0  0  0  0  0  0  0  0  0
    2.5854    1.3528   -2.0447 H   0  0  0  0  0  0  0  0  0  0  0  0
    4.0888    2.9381   -0.9225 H   0  0  0  0  0  0  0  0  0  0  0  0
  1  2  1  0
  2  3  2  0
  3  4  1  0
  4  5  2  0
  5  6  1  0
  6  7  1  0
  7  8  2  3
  8  9  1  0
  9 10  1  0
 10 11  3  0
  8 12  1  0
 12 13  1  0
 13 14  1  0
 14 15  1  0
 15 16  1  0
 16 17  1  0
 17 18  1  0
 18 19  1  0
 19 20  1  0
 20 21  2  0
 20 22  1  0
 22 23  1  0
 23 24  1  0
 24 25  1  0
 25 26  1  0
 18 27  1  0
 27 28  2  0
  6 29  2  0
 29 30  1  0
 30 31  2  0
 31 32  1  0
 32  2  1  0
 31  4  1  0
 27 13  1  0
 26 22  1  0
  1 33  1  0
  1 34  1  0
  1 35  1  0
  3 36  1  0
  5 37  1  0
  9 38  1  0
 12 39  1  0
 13 40  1  1
 14 41  1  0
 14 42  1  0
 15 43  1  0
 15 44  1  0
 16 45  1  0
 16 46  1  0
 17 47  1  0
 17 48  1  0
 19 49  1  0
 19 50  1  0
 23 51  1  0
 23 52  1  0
 24 53  1  0
 24 54  1  0
 25 55  1  0
 25 56  1  0
 26 57  1  0
 26 58  1  0
 29 59  1  0
 30 60  1  0
M  END
$$$$
