@<TRIPOS>MOLECULE
*****
 85 88 0 0 0
SMALL
GASTEIGER

@<TRIPOS>ATOM
      1 C          -5.3222    4.6922    0.6315 C.3     1  UNL1        0.0122
      2 C          -5.5224    3.2420    0.3772 C.2     1  UNL1        0.2104
      3 O          -6.2798    2.9041   -0.5455 O.2     1  UNL1       -0.2761
      4 N          -4.8902    2.2165    1.1374 N.am    1  UNL1       -0.3053
      5 C          -5.0888    0.8290    0.8850 C.3     1  UNL1        0.1023
      6 C          -3.9058   -0.0006    0.6588 C.3     1  UNL1        0.1808
      7 O          -3.0603    0.4957   -0.3393 O.3     1  UNL1       -0.3408
      8 C          -1.7441    0.2873   -0.0647 C.3     1  UNL1        0.1177
      9 C          -1.2341   -0.9366   -0.8745 C.3     1  UNL1        0.1069
     10 O          -1.6375   -0.7479   -2.1761 O.3     1  UNL1       -0.3871
     11 C           0.2338   -1.0872   -0.7997 C.3     1  UNL1        0.1023
     12 N           0.6538   -1.9485   -1.8802 N.am    1  UNL1       -0.3053
     13 C           1.2478   -3.2123   -1.7183 C.2     1  UNL1        0.2104
     14 C           1.6755   -4.0901   -2.8177 C.3     1  UNL1        0.0122
     15 O           1.4180   -3.6046   -0.5361 O.2     1  UNL1       -0.2761
     16 C           1.0147    0.1912   -0.7344 C.3     1  UNL1        0.1807
     17 O           2.2985    0.0013   -0.2262 O.3     1  UNL1       -0.3430
     18 C           3.1996    0.6076   -1.1297 C.3     1  UNL1        0.0980
     19 C           4.1490   -0.4014   -1.7315 C.3     1  UNL1        0.0502
     20 C           4.1990   -0.3071   -3.2397 C.3     1  UNL1        0.0529
     21 O           2.9514   -0.5341   -3.8136 O.3     1  UNL1       -0.3945
     22 C           5.4836   -0.2013   -1.0989 C.3     1  UNL1        0.1351
     23 O           5.6197   -0.8487    0.1612 O.2     1  UNL1       -0.4596
     24 C           6.3216    0.0336    0.9982 C.2     1  UNL1        0.2807
     25 N           6.9901   -0.3519    2.1879 N.pl3   1  UNL1       -0.2918
     26 C           6.5978   -1.5730    2.8663 C.3     1  UNL1        0.0044
     27 C           8.0668    0.4237    2.7758 C.3     1  UNL1        0.0044
     28 N           6.2693    1.2306    0.5311 N.2     1  UNL1       -0.2270
     29 C           5.5021    1.2359   -0.6941 C.3     1  UNL1        0.1212
     30 C           4.0631    1.6295   -0.4376 C.3     1  UNL1        0.1076
     31 O           3.8348    2.9183   -0.8728 O.3     1  UNL1       -0.3870
     32 O           0.3942    1.0447    0.2073 O.3     1  UNL1       -0.3412
     33 C          -0.8662    1.4449   -0.3285 C.3     1  UNL1        0.1133
     34 C          -1.2120    2.6991    0.4091 C.3     1  UNL1        0.0730
     35 O          -2.3619    3.2859   -0.0626 O.3     1  UNL1       -0.3924
     36 O          -4.4086   -1.1920   -0.0021 O.3     1  UNL1       -0.3412
     37 C          -5.2014   -1.9270    0.8218 C.3     1  UNL1        0.1130
     38 C          -6.4125   -2.4739    0.0518 C.3     1  UNL1        0.0730
     39 O          -5.9036   -3.2621   -0.9628 O.3     1  UNL1       -0.3924
     40 C          -5.6078   -1.2636    2.0879 C.3     1  UNL1        0.1112
     41 O          -4.6431   -1.5661    3.0787 O.3     1  UNL1       -0.3865
     42 C          -5.9021    0.1865    2.0156 C.3     1  UNL1        0.1065
     43 O          -5.4693    0.7941    3.1985 O.3     1  UNL1       -0.3871
     44 H          -4.4624    4.8950    1.2680 H       1  UNL1        0.0322
     45 H          -6.2645    5.1761    0.9712 H       1  UNL1        0.0322
     46 H          -5.1091    5.1471   -0.3782 H       1  UNL1        0.0322
     47 H          -4.2576    2.5174    1.9089 H       1  UNL1        0.1492
     48 H          -5.7168    0.7759   -0.0687 H       1  UNL1        0.0575
     49 H          -3.3770   -0.3539    1.5550 H       1  UNL1        0.0930
     50 H          -1.6496   -0.0929    0.9860 H       1  UNL1        0.0650
     51 H          -1.7618   -1.8079   -0.4531 H       1  UNL1        0.0640
     52 H          -0.9854   -0.2128   -2.6567 H       1  UNL1        0.2100
     53 H           0.4780   -1.6504    0.1503 H       1  UNL1        0.0575
     54 H           0.5042   -1.6043   -2.8590 H       1  UNL1        0.1492
     55 H           2.7676   -3.9350   -2.9984 H       1  UNL1        0.0322
     56 H           1.4890   -5.1554   -2.6417 H       1  UNL1        0.0322
     57 H           1.1697   -3.7091   -3.7512 H       1  UNL1        0.0322
     58 H           1.0017    0.7451   -1.6848 H       1  UNL1        0.0930
     59 H           2.6569    1.0675   -1.9846 H       1  UNL1        0.0628
     60 H           3.7739   -1.4090   -1.4641 H       1  UNL1        0.0386
     61 H           4.8567   -1.1403   -3.5878 H       1  UNL1        0.0562
     62 H           4.6596    0.6469   -3.5789 H       1  UNL1        0.0562
     63 H           2.4772    0.3311   -3.8896 H       1  UNL1        0.2094
     64 H           6.3174   -0.4763   -1.7684 H       1  UNL1        0.0761
     65 H           5.5974   -1.9231    2.5415 H       1  UNL1        0.0429
     66 H           6.6276   -1.4320    3.9772 H       1  UNL1        0.0429
     67 H           7.3365   -2.3539    2.5787 H       1  UNL1        0.0429
     68 H           9.0485    0.1001    2.4168 H       1  UNL1        0.0429
     69 H           8.0598    0.2760    3.8862 H       1  UNL1        0.0429
     70 H           7.9175    1.5213    2.6142 H       1  UNL1        0.0429
     71 H           5.9893    1.8828   -1.4482 H       1  UNL1        0.0610
     72 H           3.9113    1.5958    0.6785 H       1  UNL1        0.0642
     73 H           4.2694    3.5261   -0.1995 H       1  UNL1        0.2100
     74 H          -0.7191    1.6412   -1.4148 H       1  UNL1        0.0647
     75 H          -0.4077    3.4763    0.3175 H       1  UNL1        0.0584
     76 H          -1.2746    2.5007    1.5104 H       1  UNL1        0.0584
     77 H          -2.7088    2.8539   -0.8897 H       1  UNL1        0.2095
     78 H          -4.6197   -2.8551    1.1007 H       1  UNL1        0.0647
     79 H          -7.0299   -3.1312    0.6999 H       1  UNL1        0.0584
     80 H          -7.0667   -1.6595   -0.3039 H       1  UNL1        0.0584
     81 H          -5.5176   -2.7677   -1.7092 H       1  UNL1        0.2095
     82 H          -6.5201   -1.8338    2.4520 H       1  UNL1        0.0646
     83 H          -4.3975   -2.5271    2.9219 H       1  UNL1        0.2100
     84 H          -6.9846    0.3317    1.8359 H       1  UNL1        0.0640
     85 H          -5.5894    0.1590    3.9686 H       1  UNL1        0.2100
@<TRIPOS>BOND
     1     1     2    1
     2     2     3    2
     3     2     4   am
     4     4     5    1
     5     5     6    1
     6     6     7    1
     7     7     8    1
     8     8     9    1
     9     9    10    1
    10     9    11    1
    11    11    12    1
    12    12    13   am
    13    13    14    1
    14    13    15    2
    15    11    16    1
    16    16    17    1
    17    17    18    1
    18    18    19    1
    19    19    20    1
    20    20    21    1
    21    19    22    1
    22    22    23    1
    23    23    24    1
    24    24    25    1
    25    25    26    1
    26    25    27    1
    27    24    28    2
    28    28    29    1
    29    29    30    1
    30    30    31    1
    31    16    32    1
    32    32    33    1
    33    33    34    1
    34    34    35    1
    35     6    36    1
    36    36    37    1
    37    37    38    1
    38    38    39    1
    39    37    40    1
    40    40    41    1
    41    40    42    1
    42    42    43    1
    43    42     5    1
    44    33     8    1
    45    30    18    1
    46    29    22    1
    47     1    44    1
    48     1    45    1
    49     1    46    1
    50     4    47    1
    51     5    48    1
    52     6    49    1
    53     8    50    1
    54     9    51    1
    55    10    52    1
    56    11    53    1
    57    12    54    1
    58    14    55    1
    59    14    56    1
    60    14    57    1
    61    16    58    1
    62    18    59    1
    63    19    60    1
    64    20    61    1
    65    20    62    1
    66    21    63    1
    67    22    64    1
    68    26    65    1
    69    26    66    1
    70    26    67    1
    71    27    68    1
    72    27    69    1
    73    27    70    1
    74    29    71    1
    75    30    72    1
    76    31    73    1
    77    33    74    1
    78    34    75    1
    79    34    76    1
    80    35    77    1
    81    37    78    1
    82    38    79    1
    83    38    80    1
    84    39    81    1
    85    40    82    1
    86    41    83    1
    87    42    84    1
    88    43    85    1
