
     RDKit          3D

 85 88  0  0  0  0  0  0  0  0999 V2000
   -5.3222    4.6922    0.6315 C   0  0  0  0  0  0  0  0  0  0  0  0
   -5.5224    3.2420    0.3772 C   0  0  0  0  0  0  0  0  0  0  0  0
   -6.2798    2.9041   -0.5455 O   0  0  0  0  0  0  0  0  0  0  0  0
   -4.8902    2.2165    1.1374 N   0  0  0  0  0  0  0  0  0  0  0  0
   -5.0888    0.8290    0.8850 C   0  0  1  0  0  0  0  0  0  0  0  0
   -3.9058   -0.0006    0.6588 C   0  0  2  0  0  0  0  0  0  0  0  0
   -3.0603    0.4957   -0.3393 O   0  0  0  0  0  0  0  0  0  0  0  0
   -1.7441    0.2873   -0.0647 C   0  0  1  0  0  0  0  0  0  0  0  0
   -1.2341   -0.9366   -0.8745 C   0  0  1  0  0  0  0  0  0  0  0  0
   -1.6375   -0.7479   -2.1761 O   0  0  0  0  0  0  0  0  0  0  0  0
    0.2338   -1.0872   -0.7997 C   0  0  1  0  0  0  0  0  0  0  0  0
    0.6538   -1.9485   -1.8802 N   0  0  0  0  0  0  0  0  0  0  0  0
    1.2478   -3.2123   -1.7183 C   0  0  0  0  0  0  0  0  0  0  0  0
    1.6755   -4.0901   -2.8177 C   0  0  0  0  0  0  0  0  0  0  0  0
    1.4180   -3.6046   -0.5361 O   0  0  0  0  0  0  0  0  0  0  0  0
    1.0147    0.1912   -0.7344 C   0  0  2  0  0  0  0  0  0  0  0  0
    2.2985    0.0013   -0.2262 O   0  0  0  0  0  0  0  0  0  0  0  0
    3.1996    0.6076   -1.1297 C   0  0  2  0  0  0  0  0  0  0  0  0
    4.1490   -0.4014   -1.7315 C   0  0  1  0  0  0  0  0  0  0  0  0
    4.1990   -0.3071   -3.2397 C   0  0  0  0  0  0  0  0  0  0  0  0
    2.9514   -0.5341   -3.8136 O   0  0  0  0  0  0  0  0  0  0  0  0
    5.4836   -0.2013   -1.0989 C   0  0  2  0  0  0  0  0  0  0  0  0
    5.6197   -0.8487    0.1612 O   0  0  0  0  0  0  0  0  0  0  0  0
    6.3216    0.0336    0.9982 C   0  0  0  0  0  0  0  0  0  0  0  0
    6.9901   -0.3519    2.1879 N   0  0  0  0  0  0  0  0  0  0  0  0
    6.5978   -1.5730    2.8663 C   0  0  0  0  0  0  0  0  0  0  0  0
    8.0668    0.4237    2.7758 C   0  0  0  0  0  0  0  0  0  0  0  0
    6.2693    1.2306    0.5311 N   0  0  0  0  0  0  0  0  0  0  0  0
    5.5021    1.2359   -0.6941 C   0  0  2  0  0  0  0  0  0  0  0  0
    4.0631    1.6295   -0.4376 C   0  0  1  0  0  0  0  0  0  0  0  0
    3.8348    2.9183   -0.8728 O   0  0  0  0  0  0  0  0  0  0  0  0
    0.3942    1.0447    0.2073 O   0  0  0  0  0  0  0  0  0  0  0  0
   -0.8662    1.4449   -0.3285 C   0  0  2  0  0  0  0  0  0  0  0  0
   -1.2120    2.6991    0.4091 C   0  0  0  0  0  0  0  0  0  0  0  0
   -2.3619    3.2859   -0.0626 O   0  0  0  0  0  0  0  0  0  0  0  0
   -4.4086   -1.1920   -0.0021 O   0  0  0  0  0  0  0  0  0  0  0  0
   -5.2014   -1.9270    0.8218 C   0  0  2  0  0  0  0  0  0  0  0  0
   -6.4125   -2.4739    0.0518 C   0  0  0  0  0  0  0  0  0  0  0  0
   -5.9036   -3.2621   -0.9628 O   0  0  0  0  0  0  0  0  0  0  0  0
   -5.6078   -1.2636    2.0879 C   0  0  1  0  0  0  0  0  0  0  0  0
   -4.6431   -1.5661    3.0787 O   0  0  0  0  0  0  0  0  0  0  0  0
   -5.9021    0.1865    2.0156 C   0  0  1  0  0  0  0  0  0  0  0  0
   -5.4693    0.7941    3.1985 O   0  0  0  0  0  0  0  0  0  0  0  0
   -4.4624    4.8950    1.2680 H   0  0  0  0  0  0  0  0  0  0  0  0
   -6.2645    5.1761    0.9712 H   0  0  0  0  0  0  0  0  0  0  0  0
   -5.1091    5.1471   -0.3782 H   0  0  0  0  0  0  0  0  0  0  0  0
   -4.2576    2.5174    1.9089 H   0  0  0  0  0  0  0  0  0  0  0  0
   -5.7168    0.7759   -0.0687 H   0  0  0  0  0  0  0  0  0  0  0  0
   -3.3770   -0.3539    1.5550 H   0  0  0  0  0  0  0  0  0  0  0  0
   -1.6496   -0.0929    0.9860 H   0  0  0  0  0  0  0  0  0  0  0  0
   -1.7618   -1.8079   -0.4531 H   0  0  0  0  0  0  0  0  0  0  0  0
   -0.9854   -0.2128   -2.6567 H   0  0  0  0  0  0  0  0  0  0  0  0
    0.4780   -1.6504    0.1503 H   0  0  0  0  0  0  0  0  0  0  0  0
    0.5042   -1.6043   -2.8590 H   0  0  0  0  0  0  0  0  0  0  0  0
    2.7676   -3.9350   -2.9984 H   0  0  0  0  0  0  0  0  0  0  0  0
    1.4890   -5.1554   -2.6417 H   0  0  0  0  0  0  0  0  0  0  0  0
    1.1697   -3.7091   -3.7512 H   0  0  0  0  0  0  0  0  0  0  0  0
    1.0017    0.7451   -1.6848 H   0  0  0  0  0  0  0  0  0  0  0  0
    2.6569    1.0675   -1.9846 H   0  0  0  0  0  0  0  0  0  0  0  0
    3.7739   -1.4090   -1.4641 H   0  0  0  0  0  0  0  0  0  0  0  0
    4.8567   -1.1403   -3.5878 H   0  0  0  0  0  0  0  0  0  0  0  0
    4.6596    0.6469   -3.5789 H   0  0  0  0  0  0  0  0  0  0  0  0
    2.4772    0.3311   -3.8896 H   0  0  0  0  0  0  0  0  0  0  0  0
    6.3174   -0.4763   -1.7684 H   0  0  0  0  0  0  0  0  0  0  0  0
    5.5974   -1.9231    2.5415 H   0  0  0  0  0  0  0  0  0  0  0  0
    6.6276   -1.4320    3.9772 H   0  0  0  0  0  0  0  0  0  0  0  0
    7.3365   -2.3539    2.5787 H   0  0  0  0  0  0  0  0  0  0  0  0
    9.0485    0.1001    2.4168 H   0  0  0  0  0  0  0  0  0  0  0  0
    8.0598    0.2760    3.8862 H   0  0  0  0  0  0  0  0  0  0  0  0
    7.9175    1.5213    2.6142 H   0  0  0  0  0  0  0  0  0  0  0  0
    5.9893    1.8828   -1.4482 H   0  0  0  0  0  0  0  0  0  0  0  0
    3.9113    1.5958    0.6785 H   0  0  0  0  0  0  0  0  0  0  0  0
    4.2694    3.5261   -0.1995 H   0  0  0  0  0  0  0  0  0  0  0  0
   -0.7191    1.6412   -1.4148 H   0  0  0  0  0  0  0  0  0  0  0  0
   -0.4077    3.4763    0.3175 H   0  0  0  0  0  0  0  0  0  0  0  0
   -1.2746    2.5007    1.5104 H   0  0  0  0  0  0  0  0  0  0  0  0
   -2.7088    2.8539   -0.8897 H   0  0  0  0  0  0  0  0  0  0  0  0
   -4.6197   -2.8551    1.1007 H   0  0  0  0  0  0  0  0  0  0  0  0
   -7.0299   -3.1312    0.6999 H   0  0  0  0  0  0  0  0  0  0  0  0
   -7.0667   -1.6595   -0.3039 H   0  0  0  0  0  0  0  0  0  0  0  0
   -5.5176   -2.7677   -1.7092 H   0  0  0  0  0  0  0  0  0  0  0  0
   -6.5201   -1.8338    2.4520 H   0  0  0  0  0  0  0  0  0  0  0  0
   -4.3975   -2.5271    2.9219 H   0  0  0  0  0  0  0  0  0  0  0  0
   -6.9846    0.3317    1.8359 H   0  0  0  0  0  0  0  0  0  0  0  0
   -5.5894    0.1590    3.9686 H   0  0  0  0  0  0  0  0  0  0  0  0
  1  2  1  0
  2  3  2  0
  2  4  1  0
  4  5  1  0
  5  6  1  0
  6  7  1  0
  7  8  1  0
  8  9  1  0
  9 10  1  0
  9 11  1  0
 11 12  1  0
 12 13  1  0
 13 14  1  0
 13 15  2  0
 11 16  1  0
 16 17  1  0
 17 18  1  0
 18 19  1  0
 19 20  1  0
 20 21  1  0
 19 22  1  0
 22 23  1  0
 23 24  1  0
 24 25  1  0
 25 26  1  0
 25 27  1  0
 24 28  2  0
 28 29  1  0
 29 30  1  0
 30 31  1  0
 16 32  1  0
 32 33  1  0
 33 34  1  0
 34 35  1  0
  6 36  1  0
 36 37  1  0
 37 38  1  0
 38 39  1  0
 37 40  1  0
 40 41  1  0
 40 42  1  0
 42 43  1  0
 42  5  1  0
 33  8  1  0
 30 18  1  0
 29 22  1  0
  1 44  1  0
  1 45  1  0
  1 46  1  0
  4 47  1  0
  5 48  1  6
  6 49  1  1
  8 50  1  1
  9 51  1  1
 10 52  1  0
 11 53  1  1
 12 54  1  0
 14 55  1  0
 14 56  1  0
 14 57  1  0
 16 58  1  6
 18 59  1  6
 19 60  1  6
 20 61  1  0
 20 62  1  0
 21 63  1  0
 22 64  1  6
 26 65  1  0
 26 66  1  0
 26 67  1  0
 27 68  1  0
 27 69  1  0
 27 70  1  0
 29 71  1  6
 30 72  1  1
 31 73  1  0
 33 74  1  6
 34 75  1  0
 34 76  1  0
 35 77  1  0
 37 78  1  1
 38 79  1  0
 38 80  1  0
 39 81  1  0
 40 82  1  1
 41 83  1  0
 42 84  1  6
 43 85  1  0
M  END
$$$$
