@<TRIPOS>MOLECULE
*****
 85 88 0 0 0
SMALL
GASTEIGER

@<TRIPOS>ATOM
      1 C          -3.3514    0.5991   -1.8653 C.3     1  UNL1       -0.0352
      2 C          -4.1752    0.3985   -3.1140 C.3     1  UNL1       -0.0499
      3 C          -3.8167    1.5386   -4.0611 C.3     1  UNL1       -0.0528
      4 C          -2.3766    1.3961   -4.4521 C.3     1  UNL1       -0.0527
      5 C          -1.6730    0.2990   -3.7016 C.3     1  UNL1       -0.0488
      6 C          -1.8956    0.3783   -2.2115 C.3     1  UNL1       -0.0253
      7 C          -1.3704   -0.9109   -1.6212 C.3     1  UNL1        0.0028
      8 N          -1.4672   -0.9509   -0.1980 N.3     1  UNL1       -0.2887
      9 C          -0.2465   -0.8308    0.5087 C.3     1  UNL1        0.0274
     10 C           0.4442    0.4879    0.4472 C.3     1  UNL1        0.0869
     11 O          -0.2820    1.5280    0.9747 O.3     1  UNL1       -0.3887
     12 C           1.7957    0.4338    1.1015 C.3     1  UNL1        0.0598
     13 C           2.4923    1.7935    1.0450 C.3     1  UNL1        0.0192
     14 S           2.7495    2.3742   -0.6189 S.3     1  UNL1       -0.1233
     15 C           3.6354    3.9129   -0.5915 C.ar    1  UNL1        0.0079
     16 C           3.9253    4.5326   -1.8131 C.ar    1  UNL1       -0.0483
     17 C           4.6204    5.7016   -1.7710 C.ar    1  UNL1       -0.0607
     18 C           5.0499    6.3010   -0.5951 C.ar    1  UNL1       -0.0617
     19 C           4.7692    5.7012    0.5917 C.ar    1  UNL1       -0.0607
     20 C           4.0663    4.5171    0.5801 C.ar    1  UNL1       -0.0483
     21 N           2.6306   -0.6072    0.6130 N.am    1  UNL1       -0.3052
     22 C           3.3819   -1.6035    1.2452 C.2     1  UNL1        0.2448
     23 O           3.0969   -1.3053    2.4628 O.2     1  UNL1       -0.2702
     24 C           4.2498   -2.6954    0.9147 C.ar    1  UNL1        0.0431
     25 C           4.6293   -3.2037   -0.2991 C.ar    1  UNL1        0.0030
     26 C           4.0786   -2.5657   -1.5060 C.3     1  UNL1       -0.0355
     27 C           5.4801   -4.2620   -0.4907 C.ar    1  UNL1        0.1205
     28 O           5.8102   -4.7106   -1.7566 O.3     1  UNL1       -0.5065
     29 C           5.9738   -4.8370    0.6387 C.ar    1  UNL1       -0.0199
     30 C           5.6393   -4.3833    1.8894 C.ar    1  UNL1       -0.0576
     31 C           4.7844   -3.3220    2.0138 C.ar    1  UNL1       -0.0492
     32 C          -2.6015   -0.2639    0.2784 C.3     1  UNL1        0.0876
     33 C          -3.7047   -0.3617   -0.7753 C.3     1  UNL1       -0.0257
     34 C          -3.2208   -0.8448    1.5151 C.2     1  UNL1        0.2307
     35 O          -2.6346   -1.8727    1.9669 O.2     1  UNL1       -0.2741
     36 N          -4.3761   -0.1977    2.0414 N.am    1  UNL1       -0.3093
     37 C          -4.8537   -0.8788    3.2297 C.3     1  UNL1        0.0262
     38 C          -5.2222   -2.3252    2.9338 C.3     1  UNL1       -0.0442
     39 C          -6.1079   -0.1857    3.7014 C.3     1  UNL1       -0.0442
     40 C          -3.8555   -0.8859    4.3510 C.3     1  UNL1       -0.0442
     41 H          -3.5617    1.6261   -1.4988 H       1  UNL1        0.0304
     42 H          -5.2446    0.4226   -2.8777 H       1  UNL1        0.0268
     43 H          -3.8803   -0.5914   -3.5548 H       1  UNL1        0.0268
     44 H          -4.4983    1.6047   -4.9327 H       1  UNL1        0.0265
     45 H          -3.9337    2.4784   -3.4847 H       1  UNL1        0.0265
     46 H          -2.3632    1.1169   -5.5279 H       1  UNL1        0.0265
     47 H          -1.8215    2.3514   -4.3841 H       1  UNL1        0.0265
     48 H          -0.5627    0.4644   -3.8457 H       1  UNL1        0.0268
     49 H          -1.8797   -0.6848   -4.1303 H       1  UNL1        0.0268
     50 H          -1.3503    1.2421   -1.7892 H       1  UNL1        0.0316
     51 H          -0.3577   -1.0579   -2.0180 H       1  UNL1        0.0430
     52 H          -1.9821   -1.7349   -2.0343 H       1  UNL1        0.0430
     53 H          -0.3643   -1.1142    1.5782 H       1  UNL1        0.0453
     54 H           0.4750   -1.5786    0.0741 H       1  UNL1        0.0453
     55 H           0.6614    0.6434   -0.6472 H       1  UNL1        0.0625
     56 H          -0.4200    2.3020    0.3798 H       1  UNL1        0.2099
     57 H           1.6416    0.2986    2.1886 H       1  UNL1        0.0532
     58 H           3.4181    1.6704    1.6122 H       1  UNL1        0.0399
     59 H           1.8468    2.5039    1.5975 H       1  UNL1        0.0399
     60 H           3.6193    4.1157   -2.7635 H       1  UNL1        0.0629
     61 H           4.8843    6.2408   -2.6653 H       1  UNL1        0.0618
     62 H           5.6089    7.2298   -0.5000 H       1  UNL1        0.0618
     63 H           5.0203    6.0114    1.6022 H       1  UNL1        0.0618
     64 H           3.7891    3.9503    1.4750 H       1  UNL1        0.0629
     65 H           2.7078   -0.6471   -0.4205 H       1  UNL1        0.1494
     66 H           4.4360   -3.1209   -2.4156 H       1  UNL1        0.0279
     67 H           2.9770   -2.6309   -1.4493 H       1  UNL1        0.0279
     68 H           4.4421   -1.5231   -1.5550 H       1  UNL1        0.0279
     69 H           5.1828   -5.1872   -2.3908 H       1  UNL1        0.2921
     70 H           6.6486   -5.6745    0.5850 H       1  UNL1        0.0654
     71 H           6.0522   -4.8707    2.7566 H       1  UNL1        0.0619
     72 H           4.5811   -3.0348    3.0446 H       1  UNL1        0.0625
     73 H          -2.4045    0.8008    0.4277 H       1  UNL1        0.0559
     74 H          -3.7738   -1.3926   -1.1737 H       1  UNL1        0.0288
     75 H          -4.6814   -0.0596   -0.3410 H       1  UNL1        0.0288
     76 H          -4.7434    0.6602    1.5451 H       1  UNL1        0.1492
     77 H          -6.0468   -2.5953    3.6228 H       1  UNL1        0.0250
     78 H          -4.3714   -3.0039    3.1312 H       1  UNL1        0.0250
     79 H          -5.6264   -2.4291    1.9000 H       1  UNL1        0.0250
     80 H          -6.6624   -0.7437    4.4608 H       1  UNL1        0.0250
     81 H          -5.8904    0.8529    4.0346 H       1  UNL1        0.0250
     82 H          -6.7550   -0.0343    2.7848 H       1  UNL1        0.0250
     83 H          -3.3166   -1.8711    4.3559 H       1  UNL1        0.0250
     84 H          -4.4299   -0.8531    5.3079 H       1  UNL1        0.0250
     85 H          -3.1415   -0.0416    4.3333 H       1  UNL1        0.0250
@<TRIPOS>BOND
     1     1     2    1
     2     2     3    1
     3     3     4    1
     4     4     5    1
     5     5     6    1
     6     6     7    1
     7     7     8    1
     8     8     9    1
     9     9    10    1
    10    10    11    1
    11    10    12    1
    12    12    13    1
    13    13    14    1
    14    14    15    1
    15    15    16   ar
    16    16    17   ar
    17    17    18   ar
    18    18    19   ar
    19    19    20   ar
    20    12    21    1
    21    21    22   am
    22    22    23    2
    23    22    24    1
    24    24    25   ar
    25    25    26    1
    26    25    27   ar
    27    27    28    1
    28    27    29   ar
    29    29    30   ar
    30    30    31   ar
    31     8    32    1
    32    32    33    1
    33    32    34    1
    34    34    35    2
    35    34    36   am
    36    36    37    1
    37    37    38    1
    38    37    39    1
    39    37    40    1
    40     6     1    1
    41    20    15   ar
    42    31    24   ar
    43    33     1    1
    44     1    41    1
    45     2    42    1
    46     2    43    1
    47     3    44    1
    48     3    45    1
    49     4    46    1
    50     4    47    1
    51     5    48    1
    52     5    49    1
    53     6    50    1
    54     7    51    1
    55     7    52    1
    56     9    53    1
    57     9    54    1
    58    10    55    1
    59    11    56    1
    60    12    57    1
    61    13    58    1
    62    13    59    1
    63    16    60    1
    64    17    61    1
    65    18    62    1
    66    19    63    1
    67    20    64    1
    68    21    65    1
    69    26    66    1
    70    26    67    1
    71    26    68    1
    72    28    69    1
    73    29    70    1
    74    30    71    1
    75    31    72    1
    76    32    73    1
    77    33    74    1
    78    33    75    1
    79    36    76    1
    80    38    77    1
    81    38    78    1
    82    38    79    1
    83    39    80    1
    84    39    81    1
    85    39    82    1
    86    40    83    1
    87    40    84    1
    88    40    85    1
