@<TRIPOS>MOLECULE
*****
 62 66 0 0 0
SMALL
GASTEIGER

@<TRIPOS>ATOM
      1 O          -2.8886   -1.6092    1.0667 O.2     1  UNL1       -0.2684
      2 C          -2.7264   -0.9937   -0.0204 C.2     1  UNL1        0.2637
      3 C          -1.3455   -0.6412   -0.3234 C.ar    1  UNL1        0.1052
      4 C          -0.2848   -0.6937    0.5634 C.ar    1  UNL1       -0.0225
      5 C           0.8269   -0.2776   -0.1334 C.ar    1  UNL1        0.0187
      6 C           2.1947   -0.1540    0.3500 C.ar    1  UNL1        0.0775
      7 C           2.4599   -0.4830    1.6624 C.ar    1  UNL1       -0.0174
      8 C           3.7576   -0.3779    2.1635 C.ar    1  UNL1        0.0332
      9 N           4.7064    0.0490    1.3210 N.ar    1  UNL1       -0.2229
     10 C           4.4847    0.3798    0.0314 C.ar    1  UNL1        0.2159
     11 N           5.5159    0.8281   -0.8300 N.pl3   1  UNL1       -0.3104
     12 C           6.8645    0.9646   -0.4035 C.3     1  UNL1        0.0284
     13 C           7.4816   -0.3262    0.0839 C.3     1  UNL1       -0.0055
     14 C           8.4754    0.0674    1.1627 C.3     1  UNL1        0.0879
     15 O           7.9618   -0.3435    2.3914 O.3     1  UNL1       -0.3889
     16 C           8.4984    1.5805    1.1657 C.3     1  UNL1        0.1284
     17 F           9.3399    2.0665    0.1736 F       1  UNL1       -0.2428
     18 C           7.0524    1.8911    0.7719 C.3     1  UNL1       -0.0007
     19 N           3.2070    0.2590   -0.4019 N.ar    1  UNL1       -0.2145
     20 C           0.4131    0.0165   -1.4239 C.ar    1  UNL1        0.0145
     21 N          -0.8910   -0.2052   -1.5263 N.ar    1  UNL1       -0.3424
     22 C          -1.6116    0.0137   -2.7685 C.3     1  UNL1        0.0249
     23 C          -2.8377   -0.8785   -2.8478 C.3     1  UNL1       -0.0191
     24 C          -4.0241   -0.2889   -2.0919 C.3     1  UNL1        0.0173
     25 N          -3.9582   -0.7681   -0.7380 N.am    1  UNL1       -0.2870
     26 C          -5.1632   -1.0995   -0.0080 C.3     1  UNL1        0.0745
     27 C          -5.9787   -2.1549   -0.6879 C.3     1  UNL1        0.0669
     28 O          -7.1111   -2.4122    0.0743 O.3     1  UNL1       -0.3928
     29 C          -6.0157    0.0431    0.3512 C.ar    1  UNL1       -0.0248
     30 C          -6.4962    0.1071    1.6592 C.ar    1  UNL1       -0.0567
     31 C          -7.3034    1.1000    2.1420 C.ar    1  UNL1       -0.0614
     32 C          -7.6914    2.1261    1.3117 C.ar    1  UNL1       -0.0617
     33 C          -7.2362    2.0941    0.0165 C.ar    1  UNL1       -0.0614
     34 C          -6.4077    1.0688   -0.4676 C.ar    1  UNL1       -0.0567
     35 H          -0.3222   -0.9952    1.5785 H       1  UNL1        0.0647
     36 H           1.6663   -0.8230    2.3082 H       1  UNL1        0.0654
     37 H           3.9786   -0.6356    3.2002 H       1  UNL1        0.0831
     38 H           5.2622    1.0632   -1.8109 H       1  UNL1        0.1492
     39 H           7.5113    1.3407   -1.2177 H       1  UNL1        0.0500
     40 H           6.7132   -1.0314    0.4622 H       1  UNL1        0.0309
     41 H           8.0459   -0.7997   -0.7414 H       1  UNL1        0.0309
     42 H           9.4827   -0.3715    0.9806 H       1  UNL1        0.0622
     43 H           8.1718   -1.2961    2.5254 H       1  UNL1        0.2099
     44 H           8.7588    2.0150    2.1306 H       1  UNL1        0.0678
     45 H           7.0387    2.9490    0.4654 H       1  UNL1        0.0312
     46 H           6.4341    1.6552    1.6355 H       1  UNL1        0.0312
     47 H           1.0807    0.3697   -2.1991 H       1  UNL1        0.0816
     48 H          -1.8683    1.0613   -2.9345 H       1  UNL1        0.0492
     49 H          -0.9364   -0.3132   -3.5898 H       1  UNL1        0.0492
     50 H          -3.1308   -0.9278   -3.9101 H       1  UNL1        0.0298
     51 H          -2.5820   -1.8879   -2.5145 H       1  UNL1        0.0298
     52 H          -3.8511    0.8008   -2.0846 H       1  UNL1        0.0465
     53 H          -4.9729   -0.5598   -2.6034 H       1  UNL1        0.0465
     54 H          -4.8371   -1.5428    0.9828 H       1  UNL1        0.0573
     55 H          -5.4377   -3.1237   -0.7838 H       1  UNL1        0.0579
     56 H          -6.3342   -1.8446   -1.6912 H       1  UNL1        0.0579
     57 H          -7.3016   -3.3776    0.1648 H       1  UNL1        0.2095
     58 H          -6.2336   -0.6736    2.3838 H       1  UNL1        0.0621
     59 H          -7.6459    1.0871    3.1876 H       1  UNL1        0.0618
     60 H          -8.3363    2.9270    1.6831 H       1  UNL1        0.0618
     61 H          -7.5319    2.8925   -0.6482 H       1  UNL1        0.0618
     62 H          -6.0907    1.0938   -1.4806 H       1  UNL1        0.0621
@<TRIPOS>BOND
     1     1     2    2
     2     2     3    1
     3     3     4   ar
     4     4     5   ar
     5     5     6    1
     6     6     7   ar
     7     7     8   ar
     8     8     9   ar
     9     9    10   ar
    10    10    11    1
    11    11    12    1
    12    12    13    1
    13    13    14    1
    14    14    15    1
    15    14    16    1
    16    16    17    1
    17    16    18    1
    18    10    19   ar
    19     5    20   ar
    20    20    21   ar
    21    21    22    1
    22    22    23    1
    23    23    24    1
    24    24    25    1
    25    25    26    1
    26    26    27    1
    27    27    28    1
    28    26    29    1
    29    29    30   ar
    30    30    31   ar
    31    31    32   ar
    32    32    33   ar
    33    33    34   ar
    34    25     2   am
    35    34    29   ar
    36    21     3   ar
    37    19     6   ar
    38    18    12    1
    39     4    35    1
    40     7    36    1
    41     8    37    1
    42    11    38    1
    43    12    39    1
    44    13    40    1
    45    13    41    1
    46    14    42    1
    47    15    43    1
    48    16    44    1
    49    18    45    1
    50    18    46    1
    51    20    47    1
    52    22    48    1
    53    22    49    1
    54    23    50    1
    55    23    51    1
    56    24    52    1
    57    24    53    1
    58    26    54    1
    59    27    55    1
    60    27    56    1
    61    28    57    1
    62    30    58    1
    63    31    59    1
    64    32    60    1
    65    33    61    1
    66    34    62    1
