@<TRIPOS>MOLECULE
*****
 52 55 0 0 0
SMALL
GASTEIGER

@<TRIPOS>ATOM
      1 C          -5.8412    0.4066   -2.2154 C.3     1  UNL1       -0.0443
      2 C          -5.5724    1.5954   -1.3152 C.3     1  UNL1        0.0789
      3 S          -4.9146    1.0437    0.2561 S.O2    1  UNL1        0.0294
      4 O          -5.9471    0.1887    0.9214 O.2     1  UNL1       -0.1582
      5 O          -4.7074    2.2599    1.1028 O.2     1  UNL1       -0.1582
      6 N          -3.4371    0.1802    0.0181 N.3     1  UNL1       -0.1886
      7 C          -2.4600    1.0359   -0.5817 C.3     1  UNL1        0.0605
      8 C          -1.9708    0.5018   -1.9263 C.3     1  UNL1       -0.0035
      9 C          -0.4714    0.6535   -1.7646 C.3     1  UNL1        0.0810
     10 C           0.2539    0.9398   -3.0149 C.3     1  UNL1       -0.0350
     11 O          -0.3312    1.6754   -0.7938 O.3     1  UNL1       -0.3643
     12 C          -1.1770    1.1269    0.1882 C.3     1  UNL1        0.0962
     13 C          -1.2447    1.9439    1.4365 C.3     1  UNL1       -0.0335
     14 C          -0.5145   -0.2183    0.4012 C.3     1  UNL1        0.0804
     15 C           0.7018   -0.0071    1.2172 C.2     1  UNL1        0.2329
     16 O           0.7704    0.4527    2.4109 O.2     1  UNL1       -0.2744
     17 N           1.8708   -0.3883    0.5027 N.am    1  UNL1       -0.2098
     18 C           3.1710   -0.6745    1.0157 C.ar    1  UNL1        0.0445
     19 C           4.1640    0.2640    1.1584 C.ar    1  UNL1       -0.0386
     20 C           5.4245    0.0351    1.6456 C.ar    1  UNL1       -0.0420
     21 C           5.7296   -1.2757    2.0347 C.ar    1  UNL1        0.0635
     22 C           7.0231   -1.5173    2.5308 C.1     1  UNL1        0.0997
     23 N           8.1247   -1.7351    2.9725 N.1     1  UNL1       -0.1909
     24 C           4.7662   -2.2634    1.9136 C.ar    1  UNL1        0.0739
     25 C           5.0979   -3.6404    2.3254 C.3     1  UNL1        0.4187
     26 F           5.4530   -3.7075    3.6708 F       1  UNL1       -0.1659
     27 F           3.9812   -4.4434    2.1871 F       1  UNL1       -0.1659
     28 F           6.1127   -4.1087    1.5451 F       1  UNL1       -0.1659
     29 C           3.5001   -1.9774    1.4116 C.ar    1  UNL1       -0.0270
     30 C           1.4984   -0.4319   -0.8815 C.2     1  UNL1        0.2329
     31 O           2.2788   -0.3969   -1.8592 O.2     1  UNL1       -0.2744
     32 C           0.0376   -0.5242   -0.9770 C.3     1  UNL1        0.0790
     33 H          -6.8118    0.5091   -2.7585 H       1  UNL1        0.0246
     34 H          -5.9399   -0.5180   -1.6142 H       1  UNL1        0.0246
     35 H          -5.0592    0.3241   -3.0007 H       1  UNL1        0.0246
     36 H          -6.5252    2.1371   -1.1767 H       1  UNL1        0.0513
     37 H          -4.8759    2.2835   -1.8332 H       1  UNL1        0.0513
     38 H          -3.5677   -0.7407   -0.3980 H       1  UNL1        0.1480
     39 H          -2.8483    2.0453   -0.7449 H       1  UNL1        0.0506
     40 H          -2.2873   -0.5552   -1.9672 H       1  UNL1        0.0310
     41 H          -2.2930    1.1210   -2.7606 H       1  UNL1        0.0310
     42 H          -0.3583    1.6254   -3.6440 H       1  UNL1        0.0258
     43 H           1.2058    1.4935   -2.7668 H       1  UNL1        0.0258
     44 H           0.4511    0.0236   -3.5827 H       1  UNL1        0.0258
     45 H          -0.2699    2.4067    1.6567 H       1  UNL1        0.0258
     46 H          -2.0155    2.7106    1.4361 H       1  UNL1        0.0258
     47 H          -1.4670    1.2699    2.3116 H       1  UNL1        0.0258
     48 H          -1.1840   -0.9858    0.7788 H       1  UNL1        0.0432
     49 H           3.8809    1.2836    0.8412 H       1  UNL1        0.0637
     50 H           6.1807    0.8055    1.7426 H       1  UNL1        0.0631
     51 H           2.7377   -2.7401    1.3107 H       1  UNL1        0.0642
     52 H          -0.3233   -1.4924   -1.3670 H       1  UNL1        0.0431
@<TRIPOS>BOND
     1     1     2    1
     2     2     3    1
     3     3     4    2
     4     3     5    2
     5     3     6    1
     6     6     7    1
     7     7     8    1
     8     8     9    1
     9     9    10    1
    10     9    11    1
    11    11    12    1
    12    12    13    1
    13    12    14    1
    14    14    15    1
    15    15    16    2
    16    15    17   am
    17    17    18    1
    18    18    19   ar
    19    19    20   ar
    20    20    21   ar
    21    21    22    1
    22    22    23    3
    23    21    24   ar
    24    24    25    1
    25    25    26    1
    26    25    27    1
    27    25    28    1
    28    24    29   ar
    29    17    30   am
    30    30    31    2
    31    30    32    1
    32    12     7    1
    33    32    14    1
    34    32     9    1
    35    29    18   ar
    36     1    33    1
    37     1    34    1
    38     1    35    1
    39     2    36    1
    40     2    37    1
    41     6    38    1
    42     7    39    1
    43     8    40    1
    44     8    41    1
    45    10    42    1
    46    10    43    1
    47    10    44    1
    48    13    45    1
    49    13    46    1
    50    13    47    1
    51    14    48    1
    52    19    49    1
    53    20    50    1
    54    29    51    1
    55    32    52    1
