@<TRIPOS>MOLECULE
*****
 42 44 0 0 0
SMALL
GASTEIGER

@<TRIPOS>ATOM
      1 C          -0.9905   -3.6690    1.2562 C.3     1  UNL1        0.0329
      2 N          -0.2411   -2.4500    0.8550 N.ar    1  UNL1       -0.2435
      3 N           0.9911   -2.3119    1.0236 N.ar    1  UNL1       -0.1620
      4 C           1.7164   -1.3360    0.7259 C.ar    1  UNL1        0.1318
      5 C           3.0772   -0.8740    0.7747 C.ar    1  UNL1        0.0097
      6 C           4.0356   -1.7050    1.3227 C.ar    1  UNL1       -0.0520
      7 C           5.3606   -1.3441    1.4098 C.ar    1  UNL1       -0.0604
      8 C           5.7329   -0.1044    0.9287 C.ar    1  UNL1       -0.0496
      9 C           4.7966    0.7370    0.3803 C.ar    1  UNL1        0.0371
     10 C           5.1946    2.0624   -0.1339 C.2     1  UNL1        0.2416
     11 N           4.2376    2.9277   -0.6970 N.am    1  UNL1       -0.3253
     12 O           6.3979    2.4127   -0.0646 O.2     1  UNL1       -0.2704
     13 C           3.4781    0.3572    0.3029 C.ar    1  UNL1       -0.0399
     14 S           0.3756   -0.2444   -0.0088 S.2     1  UNL1       -0.0286
     15 C          -0.9571   -1.4399    0.2731 C.ar    1  UNL1        0.1869
     16 N          -2.1211   -1.2779   -0.0160 N.2     1  UNL1       -0.2564
     17 C          -2.6301   -0.0847   -0.6406 C.3     1  UNL1        0.0536
     18 C          -2.9385    1.0044    0.3613 C.3     1  UNL1       -0.0305
     19 C          -3.2766    2.2443   -0.4753 C.3     1  UNL1       -0.0511
     20 C          -4.5328    2.0023   -1.2870 C.3     1  UNL1       -0.0529
     21 C          -4.9745    0.5758   -1.2553 C.3     1  UNL1       -0.0511
     22 C          -3.8529   -0.4128   -1.4296 C.3     1  UNL1       -0.0305
     23 H          -1.5811   -3.3676    2.1375 H       1  UNL1        0.0473
     24 H          -1.7048   -3.9348    0.4589 H       1  UNL1        0.0473
     25 H          -0.3253   -4.5170    1.4073 H       1  UNL1        0.0473
     26 H           3.7638   -2.6937    1.7110 H       1  UNL1        0.0624
     27 H           6.0845   -2.0003    1.8363 H       1  UNL1        0.0618
     28 H           6.7753    0.2122    0.9827 H       1  UNL1        0.0625
     29 H           3.3343    3.0646   -0.2254 H       1  UNL1        0.1453
     30 H           4.4668    3.4156   -1.5877 H       1  UNL1        0.1453
     31 H           2.7208    0.9941   -0.1214 H       1  UNL1        0.0632
     32 H          -1.8735    0.3632   -1.3502 H       1  UNL1        0.0545
     33 H          -2.0498    1.2669    0.9662 H       1  UNL1        0.0286
     34 H          -3.8028    0.7968    0.9933 H       1  UNL1        0.0286
     35 H          -2.4473    2.3466   -1.2065 H       1  UNL1        0.0266
     36 H          -3.3543    3.1378    0.1572 H       1  UNL1        0.0266
     37 H          -4.4672    2.4218   -2.3109 H       1  UNL1        0.0265
     38 H          -5.3402    2.6031   -0.7748 H       1  UNL1        0.0265
     39 H          -5.5878    0.3413   -0.3570 H       1  UNL1        0.0266
     40 H          -5.6681    0.4264   -2.1313 H       1  UNL1        0.0266
     41 H          -3.5808   -0.5434   -2.5131 H       1  UNL1        0.0286
     42 H          -4.2415   -1.4033   -1.1117 H       1  UNL1        0.0286
@<TRIPOS>BOND
     1     1     2    1
     2     2     3   ar
     3     3     4   ar
     4     4     5    1
     5     5     6   ar
     6     6     7   ar
     7     7     8   ar
     8     8     9   ar
     9     9    10    1
    10    10    11   am
    11    10    12    2
    12     9    13   ar
    13     4    14   ar
    14    14    15   ar
    15    15    16    2
    16    16    17    1
    17    17    18    1
    18    18    19    1
    19    19    20    1
    20    20    21    1
    21    21    22    1
    22    15     2   ar
    23    22    17    1
    24    13     5   ar
    25     1    23    1
    26     1    24    1
    27     1    25    1
    28     6    26    1
    29     7    27    1
    30     8    28    1
    31    11    29    1
    32    11    30    1
    33    13    31    1
    34    17    32    1
    35    18    33    1
    36    18    34    1
    37    19    35    1
    38    19    36    1
    39    20    37    1
    40    20    38    1
    41    21    39    1
    42    21    40    1
    43    22    41    1
    44    22    42    1
