
     RDKit          3D

 55 58  0  0  0  0  0  0  0  0999 V2000
   -6.1129    3.3490    1.3381 C   0  0  0  0  0  0  0  0  0  0  0  0
   -6.2812    1.9279    0.8755 C   0  0  0  0  0  0  0  0  0  0  0  0
   -7.5323    1.3590    1.0555 C   0  0  0  0  0  0  0  0  0  0  0  0
   -7.7368    0.0533    0.6483 C   0  0  0  0  0  0  0  0  0  0  0  0
   -6.6909   -0.6205    0.0839 C   0  0  0  0  0  0  0  0  0  0  0  0
   -5.4415   -0.0686   -0.1016 C   0  0  0  0  0  0  0  0  0  0  0  0
   -4.3279   -0.7944   -0.7017 C   0  0  0  0  0  0  0  0  0  0  0  0
   -3.3578   -0.1592   -1.4442 C   0  0  0  0  0  0  0  0  0  0  0  0
   -2.3017   -0.8728   -2.0057 C   0  0  0  0  0  0  0  0  0  0  0  0
   -2.1632   -2.2325   -1.8563 C   0  0  0  0  0  0  0  0  0  0  0  0
   -1.0483   -3.0295   -2.4389 C   0  0  0  0  0  0  0  0  0  0  0  0
    0.0352   -3.1648   -1.5247 N   0  0  0  0  0  0  0  0  0  0  0  0
    0.9823   -2.1561   -1.2834 C   0  0  0  0  0  0  0  0  0  0  0  0
    0.9215   -1.0590   -1.8781 O   0  0  0  0  0  0  0  0  0  0  0  0
    2.0796   -2.4319   -0.2853 C   0  0  0  0  0  0  0  0  0  0  0  0
    2.9870   -1.2108   -0.2479 C   0  0  0  0  0  0  0  0  0  0  0  0
    4.1036   -1.4937    0.7662 C   0  0  0  0  0  0  0  0  0  0  0  0
    5.0251   -0.3014    0.8191 C   0  0  0  0  0  0  0  0  0  0  0  0
    6.1194   -0.2787    1.6521 C   0  0  0  0  0  0  0  0  0  0  0  0
    6.9616    0.8328    1.6882 C   0  0  0  0  0  0  0  0  0  0  0  0
    6.7150    1.9330    0.8892 C   0  0  0  0  0  0  0  0  0  0  0  0
    7.5257    3.0607    0.8901 C   0  0  0  0  0  0  0  0  0  0  0  0
    7.2573    4.1481    0.0794 C   0  0  0  0  0  0  0  0  0  0  0  0
    6.1328    4.0401   -0.7297 C   0  0  0  0  0  0  0  0  0  0  0  0
    5.3540    2.9364   -0.7192 N   0  0  0  0  0  0  0  0  0  0  0  0
    5.6104    1.8710    0.0701 C   0  0  0  0  0  0  0  0  0  0  0  0
    4.7990    0.7786    0.0472 N   0  0  0  0  0  0  0  0  0  0  0  0
   -3.1558   -2.8714   -1.0985 C   0  0  0  0  0  0  0  0  0  0  0  0
   -4.1937   -2.1564   -0.5494 C   0  0  0  0  0  0  0  0  0  0  0  0
   -5.2311    1.2417    0.3054 C   0  0  0  0  0  0  0  0  0  0  0  0
   -6.6558    4.0530    0.6823 H   0  0  0  0  0  0  0  0  0  0  0  0
   -6.6478    3.4033    2.3320 H   0  0  0  0  0  0  0  0  0  0  0  0
   -5.0739    3.6178    1.5214 H   0  0  0  0  0  0  0  0  0  0  0  0
   -8.3195    1.9457    1.5083 H   0  0  0  0  0  0  0  0  0  0  0  0
   -8.7243   -0.4009    0.7876 H   0  0  0  0  0  0  0  0  0  0  0  0
   -6.8289   -1.6580   -0.2475 H   0  0  0  0  0  0  0  0  0  0  0  0
   -3.4359    0.9096   -1.5808 H   0  0  0  0  0  0  0  0  0  0  0  0
   -1.5604   -0.3334   -2.5948 H   0  0  0  0  0  0  0  0  0  0  0  0
   -1.4839   -4.0238   -2.7352 H   0  0  0  0  0  0  0  0  0  0  0  0
   -0.7588   -2.5471   -3.3990 H   0  0  0  0  0  0  0  0  0  0  0  0
    0.0990   -4.0916   -1.0160 H   0  0  0  0  0  0  0  0  0  0  0  0
    1.6327   -2.6326    0.7068 H   0  0  0  0  0  0  0  0  0  0  0  0
    2.6218   -3.3209   -0.6156 H   0  0  0  0  0  0  0  0  0  0  0  0
    3.4624   -1.0228   -1.2110 H   0  0  0  0  0  0  0  0  0  0  0  0
    2.4291   -0.3199    0.0699 H   0  0  0  0  0  0  0  0  0  0  0  0
    4.6463   -2.4138    0.4659 H   0  0  0  0  0  0  0  0  0  0  0  0
    3.6170   -1.6837    1.7254 H   0  0  0  0  0  0  0  0  0  0  0  0
    6.3279   -1.1369    2.2875 H   0  0  0  0  0  0  0  0  0  0  0  0
    7.8252    0.8665    2.3371 H   0  0  0  0  0  0  0  0  0  0  0  0
    8.4037    3.0855    1.5543 H   0  0  0  0  0  0  0  0  0  0  0  0
    7.8758    5.0339    0.0655 H   0  0  0  0  0  0  0  0  0  0  0  0
    5.8785    4.8801   -1.3930 H   0  0  0  0  0  0  0  0  0  0  0  0
   -3.0921   -3.9408   -0.9520 H   0  0  0  0  0  0  0  0  0  0  0  0
   -4.9812   -2.6405    0.0473 H   0  0  0  0  0  0  0  0  0  0  0  0
   -4.2914    1.7416    0.1967 H   0  0  0  0  0  0  0  0  0  0  0  0
  1  2  1  0
  2  3  2  0
  3  4  1  0
  4  5  2  0
  5  6  1  0
  6  7  1  0
  7  8  2  0
  8  9  1  0
  9 10  2  0
 10 11  1  0
 11 12  1  0
 12 13  1  0
 13 14  2  0
 13 15  1  0
 15 16  1  0
 16 17  1  0
 17 18  1  0
 18 19  2  0
 19 20  1  0
 20 21  2  0
 21 22  1  0
 22 23  2  0
 23 24  1  0
 24 25  2  0
 25 26  1  0
 26 27  2  0
 10 28  1  0
 28 29  2  0
  6 30  2  0
 30  2  1  0
 29  7  1  0
 27 18  1  0
 26 21  1  0
  1 31  1  0
  1 32  1  0
  1 33  1  0
  3 34  1  0
  4 35  1  0
  5 36  1  0
  8 37  1  0
  9 38  1  0
 11 39  1  0
 11 40  1  0
 12 41  1  0
 15 42  1  0
 15 43  1  0
 16 44  1  0
 16 45  1  0
 17 46  1  0
 17 47  1  0
 19 48  1  0
 20 49  1  0
 22 50  1  0
 23 51  1  0
 24 52  1  0
 28 53  1  0
 29 54  1  0
 30 55  1  0
M  END
$$$$
