@<TRIPOS>MOLECULE
*****
 55 58 0 0 0
SMALL
GASTEIGER

@<TRIPOS>ATOM
      1 C          -6.1129    3.3490    1.3381 C.3     1  UNL1       -0.0397
      2 C          -6.2812    1.9279    0.8755 C.ar    1  UNL1       -0.0499
      3 C          -7.5323    1.3590    1.0555 C.ar    1  UNL1       -0.0588
      4 C          -7.7368    0.0533    0.6483 C.ar    1  UNL1       -0.0609
      5 C          -6.6909   -0.6205    0.0839 C.ar    1  UNL1       -0.0540
      6 C          -5.4415   -0.0686   -0.1016 C.ar    1  UNL1       -0.0176
      7 C          -4.3279   -0.7944   -0.7017 C.ar    1  UNL1       -0.0179
      8 C          -3.3578   -0.1592   -1.4442 C.ar    1  UNL1       -0.0537
      9 C          -2.3017   -0.8728   -2.0057 C.ar    1  UNL1       -0.0565
     10 C          -2.1632   -2.2325   -1.8563 C.ar    1  UNL1       -0.0303
     11 C          -1.0483   -3.0295   -2.4389 C.3     1  UNL1        0.0368
     12 N           0.0352   -3.1648   -1.5247 N.am    1  UNL1       -0.3112
     13 C           0.9823   -2.1561   -1.2834 C.2     1  UNL1        0.2133
     14 O           0.9215   -1.0590   -1.8781 O.2     1  UNL1       -0.2758
     15 C           2.0796   -2.4319   -0.2853 C.3     1  UNL1        0.0243
     16 C           2.9870   -1.2108   -0.2479 C.3     1  UNL1       -0.0394
     17 C           4.1036   -1.4937    0.7662 C.3     1  UNL1       -0.0099
     18 C           5.0251   -0.3014    0.8191 C.ar    1  UNL1        0.0437
     19 C           6.1194   -0.2787    1.6521 C.ar    1  UNL1       -0.0397
     20 C           6.9616    0.8328    1.6882 C.ar    1  UNL1       -0.0494
     21 C           6.7150    1.9330    0.8892 C.ar    1  UNL1        0.0192
     22 C           7.5257    3.0607    0.8901 C.ar    1  UNL1       -0.0496
     23 C           7.2573    4.1481    0.0794 C.ar    1  UNL1       -0.0429
     24 C           6.1328    4.0401   -0.7297 C.ar    1  UNL1        0.0300
     25 N           5.3540    2.9364   -0.7192 N.ar    1  UNL1       -0.2357
     26 C           5.6104    1.8710    0.0701 C.ar    1  UNL1        0.1599
     27 N           4.7990    0.7786    0.0472 N.ar    1  UNL1       -0.2323
     28 C          -3.1558   -2.8714   -1.0985 C.ar    1  UNL1       -0.0565
     29 C          -4.1937   -2.1564   -0.5494 C.ar    1  UNL1       -0.0537
     30 C          -5.2311    1.2417    0.3054 C.ar    1  UNL1       -0.0511
     31 H          -6.6558    4.0530    0.6823 H       1  UNL1        0.0278
     32 H          -6.6478    3.4033    2.3320 H       1  UNL1        0.0278
     33 H          -5.0739    3.6178    1.5214 H       1  UNL1        0.0278
     34 H          -8.3195    1.9457    1.5083 H       1  UNL1        0.0620
     35 H          -8.7243   -0.4009    0.7876 H       1  UNL1        0.0618
     36 H          -6.8289   -1.6580   -0.2475 H       1  UNL1        0.0624
     37 H          -3.4359    0.9096   -1.5808 H       1  UNL1        0.0624
     38 H          -1.5604   -0.3334   -2.5948 H       1  UNL1        0.0621
     39 H          -1.4839   -4.0238   -2.7352 H       1  UNL1        0.0512
     40 H          -0.7588   -2.5471   -3.3990 H       1  UNL1        0.0512
     41 H           0.0990   -4.0916   -1.0160 H       1  UNL1        0.1490
     42 H           1.6327   -2.6326    0.7068 H       1  UNL1        0.0358
     43 H           2.6218   -3.3209   -0.6156 H       1  UNL1        0.0358
     44 H           3.4624   -1.0228   -1.2110 H       1  UNL1        0.0273
     45 H           2.4291   -0.3199    0.0699 H       1  UNL1        0.0273
     46 H           4.6463   -2.4138    0.4659 H       1  UNL1        0.0328
     47 H           3.6170   -1.6837    1.7254 H       1  UNL1        0.0328
     48 H           6.3279   -1.1369    2.2875 H       1  UNL1        0.0636
     49 H           7.8252    0.8665    2.3371 H       1  UNL1        0.0625
     50 H           8.4037    3.0855    1.5543 H       1  UNL1        0.0625
     51 H           7.8758    5.0339    0.0655 H       1  UNL1        0.0633
     52 H           5.8785    4.8801   -1.3930 H       1  UNL1        0.0830
     53 H          -3.0921   -3.9408   -0.9520 H       1  UNL1        0.0621
     54 H          -4.9812   -2.6405    0.0473 H       1  UNL1        0.0624
     55 H          -4.2914    1.7416    0.1967 H       1  UNL1        0.0626
@<TRIPOS>BOND
     1     1     2    1
     2     2     3   ar
     3     3     4   ar
     4     4     5   ar
     5     5     6   ar
     6     6     7    1
     7     7     8   ar
     8     8     9   ar
     9     9    10   ar
    10    10    11    1
    11    11    12    1
    12    12    13   am
    13    13    14    2
    14    13    15    1
    15    15    16    1
    16    16    17    1
    17    17    18    1
    18    18    19   ar
    19    19    20   ar
    20    20    21   ar
    21    21    22   ar
    22    22    23   ar
    23    23    24   ar
    24    24    25   ar
    25    25    26   ar
    26    26    27   ar
    27    10    28   ar
    28    28    29   ar
    29     6    30   ar
    30    30     2   ar
    31    29     7   ar
    32    27    18   ar
    33    26    21   ar
    34     1    31    1
    35     1    32    1
    36     1    33    1
    37     3    34    1
    38     4    35    1
    39     5    36    1
    40     8    37    1
    41     9    38    1
    42    11    39    1
    43    11    40    1
    44    12    41    1
    45    15    42    1
    46    15    43    1
    47    16    44    1
    48    16    45    1
    49    17    46    1
    50    17    47    1
    51    19    48    1
    52    20    49    1
    53    22    50    1
    54    23    51    1
    55    24    52    1
    56    28    53    1
    57    29    54    1
    58    30    55    1
