
     RDKit          3D

 43 45  0  0  0  0  0  0  0  0999 V2000
    6.4895    1.8524   -0.3159 C   0  0  0  0  0  0  0  0  0  0  0  0
    5.8707    0.5029   -0.4680 C   0  0  0  0  0  0  0  0  0  0  0  0
    6.5374   -0.5383   -1.0793 C   0  0  0  0  0  0  0  0  0  0  0  0
    5.9778   -1.7920   -1.2272 C   0  0  0  0  0  0  0  0  0  0  0  0
    4.7076   -1.9775   -0.7366 C   0  0  0  0  0  0  0  0  0  0  0  0
    3.9786   -0.9793   -0.1117 C   0  0  0  0  0  0  0  0  0  0  0  0
    2.6259   -1.2532    0.3872 C   0  0  0  0  0  0  0  0  0  0  0  0
    2.1440   -2.3869    0.2430 O   0  0  0  0  0  0  0  0  0  0  0  0
    1.8389   -0.2702    1.0323 N   0  0  0  0  0  0  0  0  0  0  0  0
    0.5178   -0.6010    1.4999 C   0  0  0  0  0  0  0  0  0  0  0  0
    0.3610   -1.0852    2.7801 C   0  0  0  0  0  0  0  0  0  0  0  0
   -0.9018   -1.4203    3.2792 C   0  0  0  0  0  0  0  0  0  0  0  0
   -2.0017   -1.2589    2.4659 C   0  0  0  0  0  0  0  0  0  0  0  0
   -1.8244   -0.7730    1.1877 C   0  0  0  0  0  0  0  0  0  0  0  0
   -2.9941   -0.6118    0.3517 N   0  0  0  0  0  0  0  0  0  0  0  0
   -3.7008    0.6179    0.3652 C   0  0  0  0  0  0  0  0  0  0  0  0
   -3.2302    1.5183    1.1436 O   0  0  0  0  0  0  0  0  0  0  0  0
   -4.8802    0.9025   -0.4218 C   0  0  0  0  0  0  0  0  0  0  0  0
   -5.4222   -0.0282   -1.2697 C   0  0  0  0  0  0  0  0  0  0  0  0
   -6.5530    0.2307   -2.0306 C   0  0  0  0  0  0  0  0  0  0  0  0
   -7.1244    1.4721   -1.9066 C   0  0  0  0  0  0  0  0  0  0  0  0
   -6.5981    2.4188   -1.0637 C   0  0  0  0  0  0  0  0  0  0  0  0
   -7.3780    3.9868   -0.9522 Cl  0  0  0  0  0  0  0  0  0  0  0  0
   -5.4783    2.1387   -0.3209 C   0  0  0  0  0  0  0  0  0  0  0  0
   -0.5725   -0.4369    0.6823 C   0  0  0  0  0  0  0  0  0  0  0  0
    4.5895    0.2441    0.0046 C   0  0  0  0  0  0  0  0  0  0  0  0
    5.8108    2.6366   -0.6884 H   0  0  0  0  0  0  0  0  0  0  0  0
    6.7462    2.0768    0.7376 H   0  0  0  0  0  0  0  0  0  0  0  0
    7.4199    1.8558   -0.9287 H   0  0  0  0  0  0  0  0  0  0  0  0
    7.5450   -0.3391   -1.4524 H   0  0  0  0  0  0  0  0  0  0  0  0
    6.5142   -2.5924   -1.7075 H   0  0  0  0  0  0  0  0  0  0  0  0
    4.2233   -2.9586   -0.8322 H   0  0  0  0  0  0  0  0  0  0  0  0
    2.1988    0.6919    1.1758 H   0  0  0  0  0  0  0  0  0  0  0  0
    1.2205   -1.2088    3.4087 H   0  0  0  0  0  0  0  0  0  0  0  0
   -1.0159   -1.7995    4.2849 H   0  0  0  0  0  0  0  0  0  0  0  0
   -3.0149   -1.5001    2.7901 H   0  0  0  0  0  0  0  0  0  0  0  0
   -3.3232   -1.3805   -0.2563 H   0  0  0  0  0  0  0  0  0  0  0  0
   -4.9438   -0.9943   -1.3400 H   0  0  0  0  0  0  0  0  0  0  0  0
   -6.9245   -0.5521   -2.6781 H   0  0  0  0  0  0  0  0  0  0  0  0
   -8.0118    1.7009   -2.4921 H   0  0  0  0  0  0  0  0  0  0  0  0
   -5.0515    2.8839    0.3523 H   0  0  0  0  0  0  0  0  0  0  0  0
   -0.4440   -0.0570   -0.3203 H   0  0  0  0  0  0  0  0  0  0  0  0
    4.0717    1.0640    0.4829 H   0  0  0  0  0  0  0  0  0  0  0  0
  1  2  1  0
  2  3  2  0
  3  4  1  0
  4  5  2  0
  5  6  1  0
  6  7  1  0
  7  8  2  0
  7  9  1  0
  9 10  1  0
 10 11  2  0
 11 12  1  0
 12 13  2  0
 13 14  1  0
 14 15  1  0
 15 16  1  0
 16 17  2  0
 16 18  1  0
 18 19  2  0
 19 20  1  0
 20 21  2  0
 21 22  1  0
 22 23  1  0
 22 24  2  0
 14 25  2  0
  6 26  2  0
 26  2  1  0
 25 10  1  0
 24 18  1  0
  1 27  1  0
  1 28  1  0
  1 29  1  0
  3 30  1  0
  4 31  1  0
  5 32  1  0
  9 33  1  0
 11 34  1  0
 12 35  1  0
 13 36  1  0
 15 37  1  0
 19 38  1  0
 20 39  1  0
 21 40  1  0
 24 41  1  0
 25 42  1  0
 26 43  1  0
M  END
$$$$
