@<TRIPOS>MOLECULE
*****
 43 45 0 0 0
SMALL
GASTEIGER

@<TRIPOS>ATOM
      1 C           6.4895    1.8524   -0.3159 C.3     1  UNL1       -0.0397
      2 C           5.8707    0.5029   -0.4680 C.ar    1  UNL1       -0.0497
      3 C           6.5374   -0.5383   -1.0793 C.ar    1  UNL1       -0.0588
      4 C           5.9778   -1.7920   -1.2272 C.ar    1  UNL1       -0.0608
      5 C           4.7076   -1.9775   -0.7366 C.ar    1  UNL1       -0.0496
      6 C           3.9786   -0.9793   -0.1117 C.ar    1  UNL1        0.0373
      7 C           2.6259   -1.2532    0.3872 C.2     1  UNL1        0.2483
      8 O           2.1440   -2.3869    0.2430 O.2     1  UNL1       -0.2699
      9 N           1.8389   -0.2702    1.0323 N.am    1  UNL1       -0.2814
     10 C           0.5178   -0.6010    1.4999 C.ar    1  UNL1        0.0354
     11 C           0.3610   -1.0852    2.7801 C.ar    1  UNL1       -0.0404
     12 C          -0.9018   -1.4203    3.2792 C.ar    1  UNL1       -0.0583
     13 C          -2.0017   -1.2589    2.4659 C.ar    1  UNL1       -0.0404
     14 C          -1.8244   -0.7730    1.1877 C.ar    1  UNL1        0.0354
     15 N          -2.9941   -0.6118    0.3517 N.am    1  UNL1       -0.2814
     16 C          -3.7008    0.6179    0.3652 C.2     1  UNL1        0.2483
     17 O          -3.2302    1.5183    1.1436 O.2     1  UNL1       -0.2699
     18 C          -4.8802    0.9025   -0.4218 C.ar    1  UNL1        0.0384
     19 C          -5.4222   -0.0282   -1.2697 C.ar    1  UNL1       -0.0495
     20 C          -6.5530    0.2307   -2.0306 C.ar    1  UNL1       -0.0597
     21 C          -7.1244    1.4721   -1.9066 C.ar    1  UNL1       -0.0433
     22 C          -6.5981    2.4188   -1.0637 C.ar    1  UNL1        0.0417
     23 CL         -7.3780    3.9868   -0.9522 Cl      1  UNL1       -0.0835
     24 C          -5.4783    2.1387   -0.3209 C.ar    1  UNL1       -0.0313
     25 C          -0.5725   -0.4369    0.6823 C.ar    1  UNL1       -0.0192
     26 C           4.5895    0.2441    0.0046 C.ar    1  UNL1       -0.0467
     27 H           5.8108    2.6366   -0.6884 H       1  UNL1        0.0278
     28 H           6.7462    2.0768    0.7376 H       1  UNL1        0.0278
     29 H           7.4199    1.8558   -0.9287 H       1  UNL1        0.0278
     30 H           7.5450   -0.3391   -1.4524 H       1  UNL1        0.0620
     31 H           6.5142   -2.5924   -1.7075 H       1  UNL1        0.0618
     32 H           4.2233   -2.9586   -0.8322 H       1  UNL1        0.0625
     33 H           2.1988    0.6919    1.1758 H       1  UNL1        0.1551
     34 H           1.2205   -1.2088    3.4087 H       1  UNL1        0.0636
     35 H          -1.0159   -1.7995    4.2849 H       1  UNL1        0.0619
     36 H          -3.0149   -1.5001    2.7901 H       1  UNL1        0.0636
     37 H          -3.3232   -1.3805   -0.2563 H       1  UNL1        0.1551
     38 H          -4.9438   -0.9943   -1.3400 H       1  UNL1        0.0625
     39 H          -6.9245   -0.5521   -2.6781 H       1  UNL1        0.0618
     40 H          -8.0118    1.7009   -2.4921 H       1  UNL1        0.0632
     41 H          -5.0515    2.8839    0.3523 H       1  UNL1        0.0640
     42 H          -0.4440   -0.0570   -0.3203 H       1  UNL1        0.0655
     43 H           4.0717    1.0640    0.4829 H       1  UNL1        0.0628
@<TRIPOS>BOND
     1     1     2    1
     2     2     3   ar
     3     3     4   ar
     4     4     5   ar
     5     5     6   ar
     6     6     7    1
     7     7     8    2
     8     7     9   am
     9     9    10    1
    10    10    11   ar
    11    11    12   ar
    12    12    13   ar
    13    13    14   ar
    14    14    15    1
    15    15    16   am
    16    16    17    2
    17    16    18    1
    18    18    19   ar
    19    19    20   ar
    20    20    21   ar
    21    21    22   ar
    22    22    23    1
    23    22    24   ar
    24    14    25   ar
    25     6    26   ar
    26    26     2   ar
    27    25    10   ar
    28    24    18   ar
    29     1    27    1
    30     1    28    1
    31     1    29    1
    32     3    30    1
    33     4    31    1
    34     5    32    1
    35     9    33    1
    36    11    34    1
    37    12    35    1
    38    13    36    1
    39    15    37    1
    40    19    38    1
    41    20    39    1
    42    21    40    1
    43    24    41    1
    44    25    42    1
    45    26    43    1
