@<TRIPOS>MOLECULE
*****
 60 64 0 0 0
SMALL
GASTEIGER

@<TRIPOS>ATOM
      1 C          -7.3649    0.2841   -0.5334 C.3     1  UNL1       -0.0437
      2 C          -6.1343    1.1826   -0.4454 C.3     1  UNL1        0.0543
      3 C          -6.2758    2.1404    0.7300 C.3     1  UNL1        0.1206
      4 F          -7.5702    2.5992    0.8487 F       1  UNL1       -0.2435
      5 C          -5.8116    1.3481    1.9238 C.3     1  UNL1       -0.0041
      6 C          -5.1532    0.0874    1.3452 C.3     1  UNL1        0.0178
      7 N          -4.9691    0.4017   -0.0408 N.am    1  UNL1       -0.2947
      8 C          -3.9215    0.0606   -0.9087 C.2     1  UNL1        0.2327
      9 O          -3.8891    0.4310   -2.1184 O.2     1  UNL1       -0.2740
     10 C          -2.7739   -0.7665   -0.4576 C.3     1  UNL1        0.1054
     11 C          -1.9657   -0.1679    0.6579 C.3     1  UNL1       -0.0220
     12 C          -1.4227   -0.2669   -0.7109 C.3     1  UNL1        0.0134
     13 C          -0.3671   -1.1466   -1.1373 C.3     1  UNL1        0.0935
     14 C           0.3036   -0.4164   -2.3990 C.3     1  UNL1       -0.0351
     15 C           0.7768   -1.1788   -0.1818 C.ar    1  UNL1        0.0158
     16 C           1.8962   -0.3532   -0.3246 C.ar    1  UNL1       -0.0463
     17 C           2.9265   -0.3545    0.6027 C.ar    1  UNL1       -0.0217
     18 C           4.0764    0.5305    0.4581 C.2     1  UNL1       -0.0172
     19 C           5.3066    0.1098    0.6397 C.2     1  UNL1        0.1492
     20 F           5.4852   -1.1903    0.9696 F       1  UNL1       -0.2032
     21 C           6.4900    0.9638    0.5137 C.ar    1  UNL1        0.0990
     22 C           7.7484    0.4343    0.6601 C.ar    1  UNL1       -0.0322
     23 C           8.8536    1.2396    0.5448 C.ar    1  UNL1       -0.0408
     24 C           8.7333    2.6076    0.2772 C.ar    1  UNL1        0.0699
     25 C           9.9080    3.4282    0.1491 C.1     1  UNL1        0.1007
     26 N          10.8721    4.0866    0.0612 N.1     1  UNL1       -0.1908
     27 C           7.4465    3.0654    0.1445 C.ar    1  UNL1        0.0457
     28 N           6.3665    2.2701    0.2591 N.ar    1  UNL1       -0.2514
     29 C           2.8636   -1.1835    1.7007 C.ar    1  UNL1       -0.0518
     30 C           1.7673   -2.0097    1.8667 C.ar    1  UNL1       -0.0255
     31 C           0.7408   -2.0005    0.9294 C.ar    1  UNL1        0.1289
     32 F          -0.3049   -2.8562    1.0911 F       1  UNL1       -0.2051
     33 N          -0.6095   -2.4595   -1.6095 N.2     1  UNL1       -0.2521
     34 C          -1.6312   -3.2060   -1.5027 C.2     1  UNL1        0.1485
     35 N          -1.6918   -4.5248   -2.0535 N.pl3   1  UNL1       -0.3380
     36 S          -3.0330   -2.5119   -0.6299 S.3     1  UNL1       -0.0746
     37 H          -7.8175    0.4976   -1.5220 H       1  UNL1        0.0248
     38 H          -8.0833    0.5001    0.3000 H       1  UNL1        0.0248
     39 H          -7.0744   -0.7958   -0.5578 H       1  UNL1        0.0248
     40 H          -5.9328    1.7248   -1.3832 H       1  UNL1        0.0526
     41 H          -5.5713    2.9724    0.5144 H       1  UNL1        0.0670
     42 H          -6.6694    1.0708    2.5875 H       1  UNL1        0.0309
     43 H          -5.0744    1.9266    2.5035 H       1  UNL1        0.0309
     44 H          -4.2104   -0.1322    1.8917 H       1  UNL1        0.0465
     45 H          -5.9065   -0.7350    1.4971 H       1  UNL1        0.0465
     46 H          -1.6456   -0.7210    1.5287 H       1  UNL1        0.0287
     47 H          -2.2555    0.8968    0.9662 H       1  UNL1        0.0287
     48 H          -1.4455    0.7228   -1.3212 H       1  UNL1        0.0346
     49 H          -0.4085   -0.6547   -3.2319 H       1  UNL1        0.0256
     50 H           1.2847   -0.8464   -2.5731 H       1  UNL1        0.0256
     51 H           0.3498    0.6390   -2.2028 H       1  UNL1        0.0256
     52 H           1.9898    0.3083   -1.1522 H       1  UNL1        0.0628
     53 H           3.8881    1.5549    0.2005 H       1  UNL1        0.0653
     54 H           7.8460   -0.6445    0.8655 H       1  UNL1        0.0640
     55 H           9.8662    0.8600    0.6531 H       1  UNL1        0.0631
     56 H           7.3121    4.1228   -0.0642 H       1  UNL1        0.0843
     57 H           3.6401   -1.2182    2.4508 H       1  UNL1        0.0624
     58 H           1.6547   -2.6805    2.7040 H       1  UNL1        0.0646
     59 H          -1.2320   -5.3032   -1.5407 H       1  UNL1        0.1442
     60 H          -2.1763   -4.7432   -2.9425 H       1  UNL1        0.1442
@<TRIPOS>BOND
     1     1     2    1
     2     2     3    1
     3     3     4    1
     4     3     5    1
     5     5     6    1
     6     6     7    1
     7     7     8   am
     8     8     9    2
     9    10     8    1
    10    10    11    1
    11    11    12    1
    12    12    13    1
    13    13    14    1
    14    13    15    1
    15    15    16   ar
    16    16    17   ar
    17    17    18    1
    18    18    19    2
    19    19    20    1
    20    19    21    1
    21    21    22   ar
    22    22    23   ar
    23    23    24   ar
    24    24    25    1
    25    25    26    3
    26    24    27   ar
    27    27    28   ar
    28    17    29   ar
    29    29    30   ar
    30    30    31   ar
    31    31    32    1
    32    13    33    1
    33    33    34    2
    34    34    35    1
    35    34    36    1
    36     7     2    1
    37    12    10    1
    38    31    15   ar
    39    36    10    1
    40    28    21   ar
    41     1    37    1
    42     1    38    1
    43     1    39    1
    44     2    40    1
    45     3    41    1
    46     5    42    1
    47     5    43    1
    48     6    44    1
    49     6    45    1
    50    11    46    1
    51    11    47    1
    52    12    48    1
    53    14    49    1
    54    14    50    1
    55    14    51    1
    56    16    52    1
    57    18    53    1
    58    22    54    1
    59    23    55    1
    60    27    56    1
    61    29    57    1
    62    30    58    1
    63    35    59    1
    64    35    60    1
