
     RDKit          3D

 60 64  0  0  0  0  0  0  0  0999 V2000
   -7.3649    0.2841   -0.5334 C   0  0  0  0  0  0  0  0  0  0  0  0
   -6.1343    1.1826   -0.4454 C   0  0  1  0  0  0  0  0  0  0  0  0
   -6.2758    2.1404    0.7300 C   0  0  1  0  0  0  0  0  0  0  0  0
   -7.5702    2.5992    0.8487 F   0  0  0  0  0  0  0  0  0  0  0  0
   -5.8116    1.3481    1.9238 C   0  0  0  0  0  0  0  0  0  0  0  0
   -5.1532    0.0874    1.3452 C   0  0  0  0  0  0  0  0  0  0  0  0
   -4.9691    0.4017   -0.0408 N   0  0  0  0  0  0  0  0  0  0  0  0
   -3.9215    0.0606   -0.9087 C   0  0  0  0  0  0  0  0  0  0  0  0
   -3.8891    0.4310   -2.1184 O   0  0  0  0  0  0  0  0  0  0  0  0
   -2.7739   -0.7665   -0.4576 C   0  0  2  0  0  0  0  0  0  0  0  0
   -1.9657   -0.1679    0.6579 C   0  0  0  0  0  0  0  0  0  0  0  0
   -1.4227   -0.2669   -0.7109 C   0  0  1  0  0  0  0  0  0  0  0  0
   -0.3671   -1.1466   -1.1373 C   0  0  1  0  0  0  0  0  0  0  0  0
    0.3036   -0.4164   -2.3990 C   0  0  0  0  0  0  0  0  0  0  0  0
    0.7768   -1.1788   -0.1818 C   0  0  0  0  0  0  0  0  0  0  0  0
    1.8962   -0.3532   -0.3246 C   0  0  0  0  0  0  0  0  0  0  0  0
    2.9265   -0.3545    0.6027 C   0  0  0  0  0  0  0  0  0  0  0  0
    4.0764    0.5305    0.4581 C   0  0  0  0  0  0  0  0  0  0  0  0
    5.3066    0.1098    0.6397 C   0  0  0  0  0  0  0  0  0  0  0  0
    5.4852   -1.1903    0.9696 F   0  0  0  0  0  0  0  0  0  0  0  0
    6.4900    0.9638    0.5137 C   0  0  0  0  0  0  0  0  0  0  0  0
    7.7484    0.4343    0.6601 C   0  0  0  0  0  0  0  0  0  0  0  0
    8.8536    1.2396    0.5448 C   0  0  0  0  0  0  0  0  0  0  0  0
    8.7333    2.6076    0.2772 C   0  0  0  0  0  0  0  0  0  0  0  0
    9.9080    3.4282    0.1491 C   0  0  0  0  0  0  0  0  0  0  0  0
   10.8721    4.0866    0.0612 N   0  0  0  0  0  0  0  0  0  0  0  0
    7.4465    3.0654    0.1445 C   0  0  0  0  0  0  0  0  0  0  0  0
    6.3665    2.2701    0.2591 N   0  0  0  0  0  0  0  0  0  0  0  0
    2.8636   -1.1835    1.7007 C   0  0  0  0  0  0  0  0  0  0  0  0
    1.7673   -2.0097    1.8667 C   0  0  0  0  0  0  0  0  0  0  0  0
    0.7408   -2.0005    0.9294 C   0  0  0  0  0  0  0  0  0  0  0  0
   -0.3049   -2.8562    1.0911 F   0  0  0  0  0  0  0  0  0  0  0  0
   -0.6095   -2.4595   -1.6095 N   0  0  0  0  0  0  0  0  0  0  0  0
   -1.6312   -3.2060   -1.5027 C   0  0  0  0  0  0  0  0  0  0  0  0
   -1.6918   -4.5248   -2.0535 N   0  0  0  0  0  0  0  0  0  0  0  0
   -3.0330   -2.5119   -0.6299 S   0  0  0  0  0  0  0  0  0  0  0  0
   -7.8175    0.4976   -1.5220 H   0  0  0  0  0  0  0  0  0  0  0  0
   -8.0833    0.5001    0.3000 H   0  0  0  0  0  0  0  0  0  0  0  0
   -7.0744   -0.7958   -0.5578 H   0  0  0  0  0  0  0  0  0  0  0  0
   -5.9328    1.7248   -1.3832 H   0  0  0  0  0  0  0  0  0  0  0  0
   -5.5713    2.9724    0.5144 H   0  0  0  0  0  0  0  0  0  0  0  0
   -6.6694    1.0708    2.5875 H   0  0  0  0  0  0  0  0  0  0  0  0
   -5.0744    1.9266    2.5035 H   0  0  0  0  0  0  0  0  0  0  0  0
   -4.2104   -0.1322    1.8917 H   0  0  0  0  0  0  0  0  0  0  0  0
   -5.9065   -0.7350    1.4971 H   0  0  0  0  0  0  0  0  0  0  0  0
   -1.6456   -0.7210    1.5287 H   0  0  0  0  0  0  0  0  0  0  0  0
   -2.2555    0.8968    0.9662 H   0  0  0  0  0  0  0  0  0  0  0  0
   -1.4455    0.7228   -1.3212 H   0  0  0  0  0  0  0  0  0  0  0  0
   -0.4085   -0.6547   -3.2319 H   0  0  0  0  0  0  0  0  0  0  0  0
    1.2847   -0.8464   -2.5731 H   0  0  0  0  0  0  0  0  0  0  0  0
    0.3498    0.6390   -2.2028 H   0  0  0  0  0  0  0  0  0  0  0  0
    1.9898    0.3083   -1.1522 H   0  0  0  0  0  0  0  0  0  0  0  0
    3.8881    1.5549    0.2005 H   0  0  0  0  0  0  0  0  0  0  0  0
    7.8460   -0.6445    0.8655 H   0  0  0  0  0  0  0  0  0  0  0  0
    9.8662    0.8600    0.6531 H   0  0  0  0  0  0  0  0  0  0  0  0
    7.3121    4.1228   -0.0642 H   0  0  0  0  0  0  0  0  0  0  0  0
    3.6401   -1.2182    2.4508 H   0  0  0  0  0  0  0  0  0  0  0  0
    1.6547   -2.6805    2.7040 H   0  0  0  0  0  0  0  0  0  0  0  0
   -1.2320   -5.3032   -1.5407 H   0  0  0  0  0  0  0  0  0  0  0  0
   -2.1763   -4.7432   -2.9425 H   0  0  0  0  0  0  0  0  0  0  0  0
  1  2  1  0
  2  3  1  0
  3  4  1  0
  3  5  1  0
  5  6  1  0
  6  7  1  0
  7  8  1  0
  8  9  2  0
 10  8  1  6
 10 11  1  0
 11 12  1  0
 12 13  1  0
 13 14  1  6
 13 15  1  0
 15 16  2  0
 16 17  1  0
 17 18  1  0
 18 19  2  0
 19 20  1  0
 19 21  1  0
 21 22  2  0
 22 23  1  0
 23 24  2  0
 24 25  1  0
 25 26  3  0
 24 27  1  0
 27 28  2  0
 17 29  2  0
 29 30  1  0
 30 31  2  0
 31 32  1  0
 13 33  1  0
 33 34  2  0
 34 35  1  0
 34 36  1  0
  7  2  1  0
 12 10  1  0
 31 15  1  0
 36 10  1  0
 28 21  1  0
  1 37  1  0
  1 38  1  0
  1 39  1  0
  2 40  1  6
  3 41  1  6
  5 42  1  0
  5 43  1  0
  6 44  1  0
  6 45  1  0
 11 46  1  0
 11 47  1  0
 12 48  1  6
 14 49  1  0
 14 50  1  0
 14 51  1  0
 16 52  1  0
 18 53  1  0
 22 54  1  0
 23 55  1  0
 27 56  1  0
 29 57  1  0
 30 58  1  0
 35 59  1  0
 35 60  1  0
M  END
$$$$
