
     RDKit          3D

 48 53  0  0  0  0  0  0  0  0999 V2000
   -3.2017    1.0010   -2.5195 C   0  0  0  0  0  0  0  0  0  0  0  0
   -2.6517   -0.0710   -1.6774 C   0  0  0  0  0  0  0  0  0  0  0  0
   -3.3312   -1.2129   -1.3819 N   0  0  0  0  0  0  0  0  0  0  0  0
   -2.6146   -1.9872   -0.6219 N   0  0  0  0  0  0  0  0  0  0  0  0
   -2.9581   -3.2872   -0.0809 C   0  0  0  0  0  0  0  0  0  0  0  0
   -4.3510   -3.7833   -0.1050 C   0  0  0  0  0  0  0  0  0  0  0  0
   -3.8306   -3.2480    1.1830 C   0  0  0  0  0  0  0  0  0  0  0  0
   -1.4375   -1.3673   -0.3983 C   0  0  0  0  0  0  0  0  0  0  0  0
   -1.4308   -0.1699   -1.0433 C   0  0  0  0  0  0  0  0  0  0  0  0
   -0.1402    0.5650   -0.8230 C   0  0  0  0  0  0  0  0  0  0  0  0
   -0.5177    1.8628   -0.2357 C   0  0  0  0  0  0  0  0  0  0  0  0
   -0.3783    3.0433   -0.9793 C   0  0  0  0  0  0  0  0  0  0  0  0
   -0.7320    4.2644   -0.4449 C   0  0  0  0  0  0  0  0  0  0  0  0
   -1.2316    4.3570    0.8331 C   0  0  0  0  0  0  0  0  0  0  0  0
   -1.6556    5.9507    1.4316 Cl  0  0  0  0  0  0  0  0  0  0  0  0
   -1.3764    3.2193    1.5769 C   0  0  0  0  0  0  0  0  0  0  0  0
   -1.0237    2.0184    1.0389 C   0  0  0  0  0  0  0  0  0  0  0  0
    0.6431   -0.2869   -0.0034 N   0  0  0  0  0  0  0  0  0  0  0  0
    1.9514   -0.1546    0.5189 C   0  0  0  0  0  0  0  0  0  0  0  0
    2.1186    0.4102    1.7596 C   0  0  0  0  0  0  0  0  0  0  0  0
    3.3898    0.5606    2.3069 C   0  0  0  0  0  0  0  0  0  0  0  0
    4.4502    0.1168    1.5429 C   0  0  0  0  0  0  0  0  0  0  0  0
    5.7960    0.0970    1.7385 N   0  0  0  0  0  0  0  0  0  0  0  0
    6.3752   -0.4429    0.6835 N   0  0  0  0  0  0  0  0  0  0  0  0
    5.4840   -0.7942   -0.2271 N   0  0  0  0  0  0  0  0  0  0  0  0
    5.7296   -1.4192   -1.5235 C   0  0  0  0  0  0  0  0  0  0  0  0
    4.2811   -0.4506    0.2966 C   0  0  0  0  0  0  0  0  0  0  0  0
    3.0245   -0.5827   -0.2090 N   0  0  0  0  0  0  0  0  0  0  0  0
   -0.1505   -1.4647    0.2612 C   0  0  0  0  0  0  0  0  0  0  0  0
    0.1935   -2.4538    0.9597 O   0  0  0  0  0  0  0  0  0  0  0  0
   -4.3122    1.1041   -2.3531 H   0  0  0  0  0  0  0  0  0  0  0  0
   -3.0175    0.7452   -3.5960 H   0  0  0  0  0  0  0  0  0  0  0  0
   -2.7705    1.9884   -2.3528 H   0  0  0  0  0  0  0  0  0  0  0  0
   -2.1261   -4.0497   -0.0865 H   0  0  0  0  0  0  0  0  0  0  0  0
   -4.4686   -4.8960   -0.1814 H   0  0  0  0  0  0  0  0  0  0  0  0
   -5.1374   -3.2325   -0.6369 H   0  0  0  0  0  0  0  0  0  0  0  0
   -4.2227   -2.2627    1.5060 H   0  0  0  0  0  0  0  0  0  0  0  0
   -3.5165   -3.9670    1.9935 H   0  0  0  0  0  0  0  0  0  0  0  0
    0.3535    0.7543   -1.8038 H   0  0  0  0  0  0  0  0  0  0  0  0
    0.0209    2.9411   -1.9915 H   0  0  0  0  0  0  0  0  0  0  0  0
   -0.5949    5.1318   -1.0822 H   0  0  0  0  0  0  0  0  0  0  0  0
   -1.7714    3.3140    2.5804 H   0  0  0  0  0  0  0  0  0  0  0  0
   -1.1416    1.1329    1.6314 H   0  0  0  0  0  0  0  0  0  0  0  0
    1.2279    0.7252    2.2827 H   0  0  0  0  0  0  0  0  0  0  0  0
    3.5275    1.0039    3.2816 H   0  0  0  0  0  0  0  0  0  0  0  0
    4.8526   -1.9449   -1.8956 H   0  0  0  0  0  0  0  0  0  0  0  0
    6.6091   -2.0965   -1.3581 H   0  0  0  0  0  0  0  0  0  0  0  0
    6.0640   -0.6816   -2.2823 H   0  0  0  0  0  0  0  0  0  0  0  0
  1  2  1  0
  2  3  2  0
  3  4  1  0
  4  5  1  0
  5  6  1  0
  6  7  1  0
  4  8  1  0
  8  9  2  0
  9 10  1  0
 10 11  1  0
 11 12  2  0
 12 13  1  0
 13 14  2  0
 14 15  1  0
 14 16  1  0
 16 17  2  0
 10 18  1  0
 18 19  1  0
 19 20  2  0
 20 21  1  0
 21 22  2  0
 22 23  1  0
 23 24  2  0
 24 25  1  0
 25 26  1  0
 25 27  1  0
 27 28  2  0
 18 29  1  0
 29 30  2  0
  9  2  1  0
 17 11  1  0
 28 19  1  0
  7  5  1  0
 29  8  1  0
 27 22  1  0
  1 31  1  0
  1 32  1  0
  1 33  1  0
  5 34  1  0
  6 35  1  0
  6 36  1  0
  7 37  1  0
  7 38  1  0
 10 39  1  0
 12 40  1  0
 13 41  1  0
 16 42  1  0
 17 43  1  0
 20 44  1  0
 21 45  1  0
 26 46  1  0
 26 47  1  0
 26 48  1  0
M  END
$$$$
