@<TRIPOS>MOLECULE
*****
 48 53 0 0 0
SMALL
GASTEIGER

@<TRIPOS>ATOM
      1 C          -3.2017    1.0010   -2.5195 C.3     1  UNL1       -0.0203
      2 C          -2.6517   -0.0710   -1.6774 C.ar    1  UNL1        0.0660
      3 N          -3.3312   -1.2129   -1.3819 N.ar    1  UNL1       -0.1752
      4 N          -2.6146   -1.9872   -0.6219 N.ar    1  UNL1       -0.2556
      5 C          -2.9581   -3.2872   -0.0809 C.3     1  UNL1        0.0537
      6 C          -4.3510   -3.7833   -0.1050 C.3     1  UNL1       -0.0285
      7 C          -3.8306   -3.2480    1.1830 C.3     1  UNL1       -0.0285
      8 C          -1.4375   -1.3673   -0.3983 C.ar    1  UNL1        0.1297
      9 C          -1.4308   -0.1699   -1.0433 C.ar    1  UNL1        0.0305
     10 C          -0.1402    0.5650   -0.8230 C.3     1  UNL1        0.0867
     11 C          -0.5177    1.8628   -0.2357 C.ar    1  UNL1       -0.0220
     12 C          -0.3783    3.0433   -0.9793 C.ar    1  UNL1       -0.0551
     13 C          -0.7320    4.2644   -0.4449 C.ar    1  UNL1       -0.0431
     14 C          -1.2316    4.3570    0.8331 C.ar    1  UNL1        0.0410
     15 CL         -1.6556    5.9507    1.4316 Cl      1  UNL1       -0.0835
     16 C          -1.3764    3.2193    1.5769 C.ar    1  UNL1       -0.0431
     17 C          -1.0237    2.0184    1.0389 C.ar    1  UNL1       -0.0551
     18 N           0.6431   -0.2869   -0.0034 N.am    1  UNL1       -0.2389
     19 C           1.9514   -0.1546    0.5189 C.ar    1  UNL1        0.1311
     20 C           2.1186    0.4102    1.7596 C.ar    1  UNL1       -0.0191
     21 C           3.3898    0.5606    2.3069 C.ar    1  UNL1       -0.0276
     22 C           4.4502    0.1168    1.5429 C.ar    1  UNL1        0.1316
     23 N           5.7960    0.0970    1.7385 N.ar    1  UNL1       -0.1278
     24 N           6.3752   -0.4429    0.6835 N.ar    1  UNL1       -0.0635
     25 N           5.4840   -0.7942   -0.2271 N.ar    1  UNL1       -0.2297
     26 C           5.7296   -1.4192   -1.5235 C.3     1  UNL1        0.0341
     27 C           4.2811   -0.4506    0.2966 C.ar    1  UNL1        0.1800
     28 N           3.0245   -0.5827   -0.2090 N.ar    1  UNL1       -0.2109
     29 C          -0.1505   -1.4647    0.2612 C.2     1  UNL1        0.2711
     30 O           0.1935   -2.4538    0.9597 O.2     1  UNL1       -0.2679
     31 H          -4.3122    1.1041   -2.3531 H       1  UNL1        0.0293
     32 H          -3.0175    0.7452   -3.5960 H       1  UNL1        0.0293
     33 H          -2.7705    1.9884   -2.3528 H       1  UNL1        0.0293
     34 H          -2.1261   -4.0497   -0.0865 H       1  UNL1        0.0545
     35 H          -4.4686   -4.8960   -0.1814 H       1  UNL1        0.0286
     36 H          -5.1374   -3.2325   -0.6369 H       1  UNL1        0.0286
     37 H          -4.2227   -2.2627    1.5060 H       1  UNL1        0.0286
     38 H          -3.5165   -3.9670    1.9935 H       1  UNL1        0.0286
     39 H           0.3535    0.7543   -1.8038 H       1  UNL1        0.0606
     40 H           0.0209    2.9411   -1.9915 H       1  UNL1        0.0621
     41 H          -0.5949    5.1318   -1.0822 H       1  UNL1        0.0632
     42 H          -1.7714    3.3140    2.5804 H       1  UNL1        0.0632
     43 H          -1.1416    1.1329    1.6314 H       1  UNL1        0.0621
     44 H           1.2279    0.7252    2.2827 H       1  UNL1        0.0653
     45 H           3.5275    1.0039    3.2816 H       1  UNL1        0.0642
     46 H           4.8526   -1.9449   -1.8956 H       1  UNL1        0.0474
     47 H           6.6091   -2.0965   -1.3581 H       1  UNL1        0.0474
     48 H           6.0640   -0.6816   -2.2823 H       1  UNL1        0.0474
@<TRIPOS>BOND
     1     1     2    1
     2     2     3   ar
     3     3     4   ar
     4     4     5    1
     5     5     6    1
     6     6     7    1
     7     4     8   ar
     8     8     9   ar
     9     9    10    1
    10    10    11    1
    11    11    12   ar
    12    12    13   ar
    13    13    14   ar
    14    14    15    1
    15    14    16   ar
    16    16    17   ar
    17    10    18    1
    18    18    19    1
    19    19    20   ar
    20    20    21   ar
    21    21    22   ar
    22    22    23   ar
    23    23    24   ar
    24    24    25   ar
    25    25    26    1
    26    25    27   ar
    27    27    28   ar
    28    18    29   am
    29    29    30    2
    30     9     2   ar
    31    17    11   ar
    32    28    19   ar
    33     7     5    1
    34    29     8    1
    35    27    22   ar
    36     1    31    1
    37     1    32    1
    38     1    33    1
    39     5    34    1
    40     6    35    1
    41     6    36    1
    42     7    37    1
    43     7    38    1
    44    10    39    1
    45    12    40    1
    46    13    41    1
    47    16    42    1
    48    17    43    1
    49    20    44    1
    50    21    45    1
    51    26    46    1
    52    26    47    1
    53    26    48    1
