
     RDKit          3D

 64 67  0  0  0  0  0  0  0  0999 V2000
    9.1382   -0.8688   -3.1207 C   0  0  0  0  0  0  0  0  0  0  0  0
    7.8977   -0.7283   -2.3150 C   0  0  0  0  0  0  0  0  0  0  0  0
    6.6955   -1.0682   -2.8005 N   0  0  0  0  0  0  0  0  0  0  0  0
    5.5403   -0.9506   -2.0849 C   0  0  0  0  0  0  0  0  0  0  0  0
    5.5951   -0.4597   -0.7982 C   0  0  0  0  0  0  0  0  0  0  0  0
    4.3633   -0.3202    0.0124 C   0  0  0  0  0  0  0  0  0  0  0  0
    4.2773    0.6852    0.9478 C   0  0  0  0  0  0  0  0  0  0  0  0
    3.1325    0.8096    1.6959 C   0  0  0  0  0  0  0  0  0  0  0  0
    2.0314   -0.0346    1.5648 C   0  0  0  0  0  0  0  0  0  0  0  0
    0.8695    0.2116    2.4405 C   0  0  2  0  0  0  0  0  0  0  0  0
    0.8980   -0.7900    3.5734 C   0  0  0  0  0  0  0  0  0  0  0  0
   -0.4094    0.2154    1.7861 N   0  0  0  0  0  0  0  0  0  0  0  0
   -0.9842   -0.9515    1.1953 C   0  0  0  0  0  0  0  0  0  0  0  0
   -2.4982   -0.8685    1.4826 C   0  0  0  0  0  0  0  0  0  0  0  0
   -3.0407    0.2733    0.6095 C   0  0  2  0  0  0  0  0  0  0  0  0
   -4.3957    0.5979    1.1249 C   0  0  0  0  0  0  0  0  0  0  0  0
   -5.1305    1.6989    0.4616 C   0  0  0  0  0  0  0  0  0  0  0  0
   -5.4267    1.5552   -0.9866 C   0  0  0  0  0  0  0  0  0  0  0  0
   -6.4840    1.8634    1.1754 C   0  0  0  0  0  0  0  0  0  0  0  0
   -4.4924    2.9447    0.6227 O   0  0  0  0  0  0  0  0  0  0  0  0
   -2.9794   -0.2279   -0.7694 C   0  0  0  0  0  0  0  0  0  0  0  0
   -3.9404   -1.1296   -1.1890 C   0  0  0  0  0  0  0  0  0  0  0  0
   -3.9688   -1.6447   -2.4618 C   0  0  0  0  0  0  0  0  0  0  0  0
   -3.0073   -1.2534   -3.3617 C   0  0  0  0  0  0  0  0  0  0  0  0
   -2.0371   -0.3633   -2.9906 C   0  0  0  0  0  0  0  0  0  0  0  0
   -2.0355    0.1363   -1.7044 C   0  0  0  0  0  0  0  0  0  0  0  0
   -2.2225    1.4135    0.8119 O   0  0  0  0  0  0  0  0  0  0  0  0
   -1.1926    1.4165    1.7435 C   0  0  0  0  0  0  0  0  0  0  0  0
   -0.9488    2.4046    2.5098 O   0  0  0  0  0  0  0  0  0  0  0  0
    2.1598   -1.0204    0.6239 C   0  0  0  0  0  0  0  0  0  0  0  0
    3.3112   -1.1703   -0.1509 C   0  0  0  0  0  0  0  0  0  0  0  0
    6.8278   -0.1105   -0.2988 C   0  0  0  0  0  0  0  0  0  0  0  0
    7.9415   -0.2466   -1.0492 N   0  0  0  0  0  0  0  0  0  0  0  0
    9.1313   -1.7759   -3.7657 H   0  0  0  0  0  0  0  0  0  0  0  0
    9.2456    0.0113   -3.7664 H   0  0  0  0  0  0  0  0  0  0  0  0
   10.0418   -0.8958   -2.4757 H   0  0  0  0  0  0  0  0  0  0  0  0
    4.5803   -1.2217   -2.4744 H   0  0  0  0  0  0  0  0  0  0  0  0
    5.1233    1.3457    1.0593 H   0  0  0  0  0  0  0  0  0  0  0  0
    3.1281    1.6242    2.4181 H   0  0  0  0  0  0  0  0  0  0  0  0
    1.0398    1.2380    2.9146 H   0  0  0  0  0  0  0  0  0  0  0  0
    1.2727   -1.7958    3.2325 H   0  0  0  0  0  0  0  0  0  0  0  0
   -0.0619   -0.8673    4.1071 H   0  0  0  0  0  0  0  0  0  0  0  0
    1.6789   -0.4349    4.2862 H   0  0  0  0  0  0  0  0  0  0  0  0
   -0.8035   -0.9426    0.1133 H   0  0  0  0  0  0  0  0  0  0  0  0
   -0.5932   -1.9009    1.6294 H   0  0  0  0  0  0  0  0  0  0  0  0
   -2.5928   -0.6476    2.5443 H   0  0  0  0  0  0  0  0  0  0  0  0
   -2.9411   -1.8130    1.1602 H   0  0  0  0  0  0  0  0  0  0  0  0
   -5.0577   -0.3069    1.2046 H   0  0  0  0  0  0  0  0  0  0  0  0
   -4.2587    0.9081    2.2036 H   0  0  0  0  0  0  0  0  0  0  0  0
   -6.1150    0.7178   -1.2411 H   0  0  0  0  0  0  0  0  0  0  0  0
   -4.5426    1.6261   -1.6503 H   0  0  0  0  0  0  0  0  0  0  0  0
   -6.0271    2.4843   -1.2653 H   0  0  0  0  0  0  0  0  0  0  0  0
   -6.3357    1.9229    2.2737 H   0  0  0  0  0  0  0  0  0  0  0  0
   -7.1276    0.9901    0.9743 H   0  0  0  0  0  0  0  0  0  0  0  0
   -7.0003    2.7742    0.8276 H   0  0  0  0  0  0  0  0  0  0  0  0
   -3.8756    3.0319   -0.1335 H   0  0  0  0  0  0  0  0  0  0  0  0
   -4.7261   -1.4715   -0.5105 H   0  0  0  0  0  0  0  0  0  0  0  0
   -4.7187   -2.3452   -2.7789 H   0  0  0  0  0  0  0  0  0  0  0  0
   -3.0093   -1.6517   -4.3884 H   0  0  0  0  0  0  0  0  0  0  0  0
   -1.2799   -0.0540   -3.6980 H   0  0  0  0  0  0  0  0  0  0  0  0
   -1.2798    0.8438   -1.3892 H   0  0  0  0  0  0  0  0  0  0  0  0
    1.3720   -1.7118    0.4655 H   0  0  0  0  0  0  0  0  0  0  0  0
    3.3676   -1.9792   -0.8965 H   0  0  0  0  0  0  0  0  0  0  0  0
    6.8799    0.2786    0.7193 H   0  0  0  0  0  0  0  0  0  0  0  0
  1  2  1  0
  2  3  2  0
  3  4  1  0
  4  5  2  0
  5  6  1  0
  6  7  2  0
  7  8  1  0
  8  9  2  0
  9 10  1  0
 10 11  1  0
 10 12  1  0
 12 13  1  0
 13 14  1  0
 14 15  1  0
 15 16  1  1
 16 17  1  0
 17 18  1  0
 17 19  1  0
 17 20  1  0
 15 21  1  0
 21 22  2  0
 22 23  1  0
 23 24  2  0
 24 25  1  0
 25 26  2  0
 15 27  1  0
 27 28  1  0
 28 29  2  0
  9 30  1  0
 30 31  2  0
  5 32  1  0
 32 33  2  0
 33  2  1  0
 31  6  1  0
 28 12  1  0
 26 21  1  0
  1 34  1  0
  1 35  1  0
  1 36  1  0
  4 37  1  0
  7 38  1  0
  8 39  1  0
 10 40  1  1
 11 41  1  0
 11 42  1  0
 11 43  1  0
 13 44  1  0
 13 45  1  0
 14 46  1  0
 14 47  1  0
 16 48  1  0
 16 49  1  0
 18 50  1  0
 18 51  1  0
 18 52  1  0
 19 53  1  0
 19 54  1  0
 19 55  1  0
 20 56  1  0
 22 57  1  0
 23 58  1  0
 24 59  1  0
 25 60  1  0
 26 61  1  0
 30 62  1  0
 31 63  1  0
 32 64  1  0
M  END
$$$$
