@<TRIPOS>MOLECULE
*****
 64 67 0 0 0
SMALL
GASTEIGER

@<TRIPOS>ATOM
      1 C           9.1382   -0.8688   -3.1207 C.3     1  UNL1       -0.0046
      2 C           7.8977   -0.7283   -2.3150 C.ar    1  UNL1        0.1259
      3 N           6.6955   -1.0682   -2.8005 N.ar    1  UNL1       -0.2400
      4 C           5.5403   -0.9506   -2.0849 C.ar    1  UNL1        0.0388
      5 C           5.5951   -0.4597   -0.7982 C.ar    1  UNL1        0.0184
      6 C           4.3633   -0.3202    0.0124 C.ar    1  UNL1       -0.0150
      7 C           4.2773    0.6852    0.9478 C.ar    1  UNL1       -0.0536
      8 C           3.1325    0.8096    1.6959 C.ar    1  UNL1       -0.0562
      9 C           2.0314   -0.0346    1.5648 C.ar    1  UNL1       -0.0271
     10 C           0.8695    0.2116    2.4405 C.3     1  UNL1        0.0515
     11 C           0.8980   -0.7900    3.5734 C.3     1  UNL1       -0.0421
     12 N          -0.4094    0.2154    1.7861 N.am    1  UNL1       -0.2605
     13 C          -0.9842   -0.9515    1.1953 C.3     1  UNL1        0.0224
     14 C          -2.4982   -0.8685    1.4826 C.3     1  UNL1        0.0076
     15 C          -3.0407    0.2733    0.6095 C.3     1  UNL1        0.1440
     16 C          -4.3957    0.5979    1.1249 C.3     1  UNL1        0.0199
     17 C          -5.1305    1.6989    0.4616 C.3     1  UNL1        0.0645
     18 C          -5.4267    1.5552   -0.9866 C.3     1  UNL1       -0.0362
     19 C          -6.4840    1.8634    1.1754 C.3     1  UNL1       -0.0362
     20 O          -4.4924    2.9447    0.6227 O.3     1  UNL1       -0.3890
     21 C          -2.9794   -0.2279   -0.7694 C.ar    1  UNL1       -0.0040
     22 C          -3.9404   -1.1296   -1.1890 C.ar    1  UNL1       -0.0548
     23 C          -3.9688   -1.6447   -2.4618 C.ar    1  UNL1       -0.0614
     24 C          -3.0073   -1.2534   -3.3617 C.ar    1  UNL1       -0.0617
     25 C          -2.0371   -0.3633   -2.9906 C.ar    1  UNL1       -0.0614
     26 C          -2.0355    0.1363   -1.7044 C.ar    1  UNL1       -0.0548
     27 O          -2.2225    1.4135    0.8119 O.3     1  UNL1       -0.4387
     28 C          -1.1926    1.4165    1.7435 C.2     1  UNL1        0.4042
     29 O          -0.9488    2.4046    2.5098 O.2     1  UNL1       -0.2262
     30 C           2.1598   -1.0204    0.6239 C.ar    1  UNL1       -0.0562
     31 C           3.3112   -1.1703   -0.1509 C.ar    1  UNL1       -0.0536
     32 C           6.8278   -0.1105   -0.2988 C.ar    1  UNL1        0.0388
     33 N           7.9415   -0.2466   -1.0492 N.ar    1  UNL1       -0.2400
     34 H           9.1313   -1.7759   -3.7657 H       1  UNL1        0.0308
     35 H           9.2456    0.0113   -3.7664 H       1  UNL1        0.0308
     36 H          10.0418   -0.8958   -2.4757 H       1  UNL1        0.0308
     37 H           4.5803   -1.2217   -2.4744 H       1  UNL1        0.0837
     38 H           5.1233    1.3457    1.0593 H       1  UNL1        0.0624
     39 H           3.1281    1.6242    2.4181 H       1  UNL1        0.0621
     40 H           1.0398    1.2380    2.9146 H       1  UNL1        0.0549
     41 H           1.2727   -1.7958    3.2325 H       1  UNL1        0.0251
     42 H          -0.0619   -0.8673    4.1071 H       1  UNL1        0.0251
     43 H           1.6789   -0.4349    4.2862 H       1  UNL1        0.0251
     44 H          -0.8035   -0.9426    0.1133 H       1  UNL1        0.0467
     45 H          -0.5932   -1.9009    1.6294 H       1  UNL1        0.0467
     46 H          -2.5928   -0.6476    2.5443 H       1  UNL1        0.0322
     47 H          -2.9411   -1.8130    1.1602 H       1  UNL1        0.0322
     48 H          -5.0577   -0.3069    1.2046 H       1  UNL1        0.0335
     49 H          -4.2587    0.9081    2.2036 H       1  UNL1        0.0335
     50 H          -6.1150    0.7178   -1.2411 H       1  UNL1        0.0257
     51 H          -4.5426    1.6261   -1.6503 H       1  UNL1        0.0257
     52 H          -6.0271    2.4843   -1.2653 H       1  UNL1        0.0257
     53 H          -6.3357    1.9229    2.2737 H       1  UNL1        0.0257
     54 H          -7.1276    0.9901    0.9743 H       1  UNL1        0.0257
     55 H          -7.0003    2.7742    0.8276 H       1  UNL1        0.0257
     56 H          -3.8756    3.0319   -0.1335 H       1  UNL1        0.2101
     57 H          -4.7261   -1.4715   -0.5105 H       1  UNL1        0.0622
     58 H          -4.7187   -2.3452   -2.7789 H       1  UNL1        0.0618
     59 H          -3.0093   -1.6517   -4.3884 H       1  UNL1        0.0618
     60 H          -1.2799   -0.0540   -3.6980 H       1  UNL1        0.0618
     61 H          -1.2798    0.8438   -1.3892 H       1  UNL1        0.0622
     62 H           1.3720   -1.7118    0.4655 H       1  UNL1        0.0621
     63 H           3.3676   -1.9792   -0.8965 H       1  UNL1        0.0624
     64 H           6.8799    0.2786    0.7193 H       1  UNL1        0.0837
@<TRIPOS>BOND
     1     1     2    1
     2     2     3   ar
     3     3     4   ar
     4     4     5   ar
     5     5     6    1
     6     6     7   ar
     7     7     8   ar
     8     8     9   ar
     9     9    10    1
    10    10    11    1
    11    10    12    1
    12    12    13    1
    13    13    14    1
    14    14    15    1
    15    15    16    1
    16    16    17    1
    17    17    18    1
    18    17    19    1
    19    17    20    1
    20    15    21    1
    21    21    22   ar
    22    22    23   ar
    23    23    24   ar
    24    24    25   ar
    25    25    26   ar
    26    15    27    1
    27    27    28    1
    28    28    29    2
    29     9    30   ar
    30    30    31   ar
    31     5    32   ar
    32    32    33   ar
    33    33     2   ar
    34    31     6   ar
    35    28    12   am
    36    26    21   ar
    37     1    34    1
    38     1    35    1
    39     1    36    1
    40     4    37    1
    41     7    38    1
    42     8    39    1
    43    10    40    1
    44    11    41    1
    45    11    42    1
    46    11    43    1
    47    13    44    1
    48    13    45    1
    49    14    46    1
    50    14    47    1
    51    16    48    1
    52    16    49    1
    53    18    50    1
    54    18    51    1
    55    18    52    1
    56    19    53    1
    57    19    54    1
    58    19    55    1
    59    20    56    1
    60    22    57    1
    61    23    58    1
    62    24    59    1
    63    25    60    1
    64    26    61    1
    65    30    62    1
    66    31    63    1
    67    32    64    1
