@<TRIPOS>MOLECULE
*****
 27 29 0 0 0
SMALL
GASTEIGER

@<TRIPOS>ATOM
      1 O          -2.2864   -0.9722    2.9586 O.2     1  UNL1       -0.2701
      2 C          -2.4319   -0.6471    1.7533 C.2     1  UNL1        0.2458
      3 N          -3.7352   -0.5535    1.1981 N.am    1  UNL1       -0.3109
      4 C          -3.8859    0.2225   -0.0052 C.3     1  UNL1        0.0172
      5 C          -2.7700    0.0821   -0.9711 C.3     1  UNL1        0.0038
      6 C          -1.4374   -0.0149   -0.3813 C.ar    1  UNL1        0.0301
      7 N          -0.2324    0.1969   -0.9425 N.ar    1  UNL1       -0.3573
      8 C           0.7358   -0.0061   -0.0375 C.ar    1  UNL1        0.0475
      9 C           2.1791    0.1137   -0.2237 C.ar    1  UNL1        0.0012
     10 C           3.0372   -0.1342    0.8257 C.ar    1  UNL1       -0.0345
     11 C           4.4184   -0.0240    0.6635 C.ar    1  UNL1        0.0282
     12 N           4.9181    0.3313   -0.5418 N.ar    1  UNL1       -0.2632
     13 C           4.1047    0.5844   -1.6025 C.ar    1  UNL1        0.0282
     14 C           2.7421    0.4719   -1.4288 C.ar    1  UNL1       -0.0345
     15 C           0.1069   -0.3592    1.1367 C.ar    1  UNL1       -0.0240
     16 C          -1.2793   -0.3672    0.9262 C.ar    1  UNL1        0.0578
     17 H          -4.5706   -1.0212    1.6282 H       1  UNL1        0.1490
     18 H          -4.0442    1.3098    0.2518 H       1  UNL1        0.0466
     19 H          -4.8250   -0.0903   -0.5062 H       1  UNL1        0.0466
     20 H          -2.9048   -0.8338   -1.6203 H       1  UNL1        0.0343
     21 H          -2.8313    0.9314   -1.7146 H       1  UNL1        0.0343
     22 H          -0.0491    0.4763   -1.9260 H       1  UNL1        0.1656
     23 H           2.7027   -0.4184    1.8013 H       1  UNL1        0.0639
     24 H           5.1063   -0.2189    1.4908 H       1  UNL1        0.0830
     25 H           4.5669    0.8646   -2.5412 H       1  UNL1        0.0830
     26 H           2.1053    0.6760   -2.2807 H       1  UNL1        0.0639
     27 H           0.5601   -0.5999    2.0891 H       1  UNL1        0.0646
@<TRIPOS>BOND
     1     1     2    2
     2     2     3   am
     3     3     4    1
     4     4     5    1
     5     5     6    1
     6     6     7   ar
     7     7     8   ar
     8     8     9    1
     9     9    10   ar
    10    10    11   ar
    11    11    12   ar
    12    12    13   ar
    13    13    14   ar
    14     8    15   ar
    15    15    16   ar
    16    16     2    1
    17    16     6   ar
    18    14     9   ar
    19     3    17    1
    20     4    18    1
    21     4    19    1
    22     5    20    1
    23     5    21    1
    24     7    22    1
    25    10    23    1
    26    11    24    1
    27    13    25    1
    28    14    26    1
    29    15    27    1
