@<TRIPOS>MOLECULE
*****
 52 54 0 0 0
SMALL
GASTEIGER

@<TRIPOS>ATOM
      1 C          -6.4771    0.9130    2.6441 C.3     1  UNL1        0.0365
      2 O          -5.1756    0.6569    2.2054 O.3     1  UNL1       -0.3814
      3 C          -5.1304   -0.4507    1.3563 C.3     1  UNL1        0.0645
      4 C          -3.6750   -0.6281    0.9484 C.3     1  UNL1        0.0552
      5 C          -3.2458    0.5867    0.1958 C.3     1  UNL1       -0.0323
      6 C          -3.4358    0.2134   -1.2392 C.3     1  UNL1       -0.0370
      7 C          -3.8480   -1.2221   -1.2306 C.3     1  UNL1        0.0209
      8 N          -3.5863   -1.7504    0.0800 N.3     1  UNL1       -0.1713
      9 S          -2.1015   -2.5753    0.0723 S.O2    1  UNL1        0.0612
     10 O          -1.9060   -3.1779    1.4562 O.2     1  UNL1       -0.1528
     11 O          -2.2118   -3.7514   -0.8669 O.2     1  UNL1       -0.1528
     12 C          -0.7257   -1.5890   -0.3169 C.ar    1  UNL1        0.1063
     13 C          -0.0258   -0.9532    0.6864 C.ar    1  UNL1       -0.0335
     14 C           1.0706   -0.1613    0.4299 C.ar    1  UNL1       -0.0377
     15 C           1.5166    0.0278   -0.8668 C.ar    1  UNL1        0.0477
     16 C           0.8403   -0.5926   -1.8916 C.ar    1  UNL1        0.0502
     17 C          -0.2716   -1.3928   -1.6056 C.ar    1  UNL1       -0.0226
     18 C           1.5140   -0.2257   -3.1228 C.2     1  UNL1        0.2496
     19 O           1.1807   -0.6021   -4.2613 O.2     1  UNL1       -0.2817
     20 C           2.6214    0.6397   -2.7935 C.2     1  UNL1        0.2913
     21 O           3.4673    1.1858   -3.5741 O.2     1  UNL1       -0.2661
     22 N           2.6193    0.7954   -1.3843 N.am    1  UNL1       -0.2640
     23 C           3.5441    1.5764   -0.5874 C.3     1  UNL1        0.0226
     24 C           4.7017    0.6791   -0.2026 C.3     1  UNL1       -0.0084
     25 C           5.7102    1.4476    0.6393 C.3     1  UNL1        0.0797
     26 O           6.2181    2.5387   -0.0642 O.3     1  UNL1       -0.3895
     27 C           6.8570    0.5127    0.9222 C.3     1  UNL1        0.0702
     28 O           6.3429   -0.5910    1.6339 O.3     1  UNL1       -0.3925
     29 H          -6.4252    1.7986    3.3064 H       1  UNL1        0.0523
     30 H          -7.1670    1.1461    1.8116 H       1  UNL1        0.0523
     31 H          -6.9019    0.0438    3.2045 H       1  UNL1        0.0523
     32 H          -5.5279   -1.3445    1.8617 H       1  UNL1        0.0576
     33 H          -5.7699   -0.2290    0.4889 H       1  UNL1        0.0576
     34 H          -3.1034   -0.7830    1.8885 H       1  UNL1        0.0502
     35 H          -3.9066    1.4487    0.4988 H       1  UNL1        0.0282
     36 H          -2.2145    0.9186    0.3966 H       1  UNL1        0.0282
     37 H          -2.5269    0.4129   -1.8501 H       1  UNL1        0.0279
     38 H          -4.2934    0.8276   -1.6412 H       1  UNL1        0.0279
     39 H          -4.9010   -1.3881   -1.5573 H       1  UNL1        0.0444
     40 H          -3.2136   -1.7692   -1.9785 H       1  UNL1        0.0444
     41 H          -0.3813   -1.1051    1.7111 H       1  UNL1        0.0638
     42 H           1.5986    0.3241    1.2402 H       1  UNL1        0.0637
     43 H          -0.7966   -1.8754   -2.4093 H       1  UNL1        0.0645
     44 H           3.0806    2.0220    0.3048 H       1  UNL1        0.0469
     45 H           3.9422    2.3732   -1.2707 H       1  UNL1        0.0469
     46 H           4.2822   -0.1441    0.3966 H       1  UNL1        0.0306
     47 H           5.2285    0.3380   -1.1039 H       1  UNL1        0.0306
     48 H           5.2522    1.8460    1.5595 H       1  UNL1        0.0616
     49 H           6.0147    2.3956   -1.0247 H       1  UNL1        0.2099
     50 H           7.2398    0.1634   -0.0588 H       1  UNL1        0.0583
     51 H           7.6457    0.9520    1.5423 H       1  UNL1        0.0583
     52 H           6.4567   -0.4813    2.6102 H       1  UNL1        0.2095
@<TRIPOS>BOND
     1     1     2    1
     2     2     3    1
     3     3     4    1
     4     4     5    1
     5     5     6    1
     6     6     7    1
     7     7     8    1
     8     8     9    1
     9     9    10    2
    10     9    11    2
    11     9    12    1
    12    12    13   ar
    13    13    14   ar
    14    14    15   ar
    15    15    16   ar
    16    16    17   ar
    17    16    18    1
    18    18    19    2
    19    18    20    1
    20    20    21    2
    21    20    22   am
    22    22    23    1
    23    23    24    1
    24    24    25    1
    25    25    26    1
    26    25    27    1
    27    27    28    1
    28     8     4    1
    29    17    12   ar
    30    22    15    1
    31     1    29    1
    32     1    30    1
    33     1    31    1
    34     3    32    1
    35     3    33    1
    36     4    34    1
    37     5    35    1
    38     5    36    1
    39     6    37    1
    40     6    38    1
    41     7    39    1
    42     7    40    1
    43    13    41    1
    44    14    42    1
    45    17    43    1
    46    23    44    1
    47    23    45    1
    48    24    46    1
    49    24    47    1
    50    25    48    1
    51    26    49    1
    52    27    50    1
    53    27    51    1
    54    28    52    1
