@<TRIPOS>MOLECULE
*****
 64 64 0 0 0
SMALL
GASTEIGER

@<TRIPOS>ATOM
      1 O          -8.7514    0.9066   -0.4606 O.3     1  UNL1       -0.3925
      2 C          -8.1680    0.3779   -1.6050 C.3     1  UNL1        0.0701
      3 C          -6.6481    0.3506   -1.4375 C.3     1  UNL1        0.0782
      4 O          -6.0751   -0.1807   -2.5894 O.3     1  UNL1       -0.3895
      5 C          -6.2794   -0.5007   -0.2275 C.3     1  UNL1       -0.0247
      6 C          -4.7735   -0.4961   -0.1053 C.3     1  UNL1       -0.0506
      7 C          -4.3373   -1.3275    1.0828 C.3     1  UNL1       -0.0506
      8 C          -2.8438   -1.3432    1.2305 C.3     1  UNL1       -0.0268
      9 C          -2.3071    0.0415    1.4291 C.3     1  UNL1        0.0576
     10 O          -2.8441    0.6129    2.5663 O.3     1  UNL1       -0.3917
     11 C          -0.7618   -0.0628    1.5604 C.3     1  UNL1       -0.0007
     12 C          -0.1653    1.2663    1.7586 C.3     1  UNL1        0.0576
     13 O          -0.3901    2.1155    0.6446 O.3     1  UNL1       -0.3917
     14 C           1.1976    1.3846    2.2574 C.3     1  UNL1       -0.0267
     15 C           2.3191    0.7827    1.5070 C.3     1  UNL1       -0.0483
     16 C           2.3725   -0.6742    1.4063 C.3     1  UNL1       -0.0252
     17 C           3.6482   -1.1295    0.6798 C.3     1  UNL1        0.0730
     18 O           3.5594   -2.5751    0.6745 O.3     1  UNL1       -0.3902
     19 C           3.7406   -0.6692   -0.7413 C.3     1  UNL1        0.0627
     20 N           3.9094    0.7235   -0.9094 N.3     1  UNL1       -0.3016
     21 CA          5.3275    0.9959   -1.0248 C.3     1  UNL1        0.0598
     22 C           5.5993    2.2027   -1.8959 C.3     1  UNL1        0.0620
     23 O           6.9771    2.3858   -1.9480 O.3     1  UNL1       -0.3934
     24 C           5.8880   -0.2383   -1.6984 C.3     1  UNL1        0.1000
     25 O           7.1754   -0.4275   -1.1479 O.3     1  UNL1       -0.3876
     26 C           4.9610   -1.3501   -1.3379 C.3     1  UNL1        0.1002
     27 O           4.6064   -2.1407   -2.4351 O.3     1  UNL1       -0.3875
     28 H          -8.0631    1.4281    0.0518 H       1  UNL1        0.2095
     29 H          -8.4637   -0.6781   -1.7895 H       1  UNL1        0.0583
     30 H          -8.4272    1.0020   -2.4690 H       1  UNL1        0.0583
     31 H          -6.2672    1.3753   -1.2847 H       1  UNL1        0.0616
     32 H          -6.0461    0.5467   -3.2826 H       1  UNL1        0.2099
     33 H          -6.8003   -0.1541    0.6661 H       1  UNL1        0.0291
     34 H          -6.6236   -1.5393   -0.4474 H       1  UNL1        0.0291
     35 H          -4.3646   -0.9484   -1.0250 H       1  UNL1        0.0266
     36 H          -4.4571    0.5460   -0.0117 H       1  UNL1        0.0266
     37 H          -4.7011   -2.3618    0.9896 H       1  UNL1        0.0266
     38 H          -4.7715   -0.8776    2.0207 H       1  UNL1        0.0266
     39 H          -2.3584   -1.8824    0.4095 H       1  UNL1        0.0290
     40 H          -2.6115   -1.9171    2.1649 H       1  UNL1        0.0290
     41 H          -2.4968    0.6488    0.5304 H       1  UNL1        0.0594
     42 H          -2.9607   -0.1133    3.2559 H       1  UNL1        0.2098
     43 H          -0.4237   -0.4437    0.5369 H       1  UNL1        0.0315
     44 H          -0.5333   -0.8285    2.2845 H       1  UNL1        0.0315
     45 H          -0.8594    1.8085    2.5520 H       1  UNL1        0.0594
     46 H           0.3866    2.0786    0.0185 H       1  UNL1        0.2098
     47 H           1.2120    0.9987    3.3381 H       1  UNL1        0.0290
     48 H           1.3920    2.5147    2.4107 H       1  UNL1        0.0290
     49 H           3.2748    1.1748    1.9801 H       1  UNL1        0.0267
     50 H           2.2992    1.2112    0.4515 H       1  UNL1        0.0267
     51 H           2.4958   -1.1438    2.4322 H       1  UNL1        0.0291
     52 H           1.5202   -1.1407    0.9232 H       1  UNL1        0.0291
     53 H           4.5018   -0.8486    1.2905 H       1  UNL1        0.0610
     54 H           3.5464   -2.8576    1.6222 H       1  UNL1        0.2098
     55 H           2.8141   -0.9983   -1.3087 H       1  UNL1        0.0512
     56 H           3.3637    1.1428   -1.6947 H       1  UNL1        0.1228
     57 HA          5.7275    1.1300   -0.0090 H       1  UNL1        0.0509
     58 H1          5.2592    1.9544   -2.9293 H       1  UNL1        0.0573
     59 H2          5.1333    3.1145   -1.5207 H       1  UNL1        0.0573
     60 H           7.2978    2.4714   -1.0204 H       1  UNL1        0.2095
     61 H           5.9449   -0.0398   -2.7852 H       1  UNL1        0.0636
     62 H           7.7684    0.1975   -1.6655 H       1  UNL1        0.2100
     63 H           5.4752   -2.0226   -0.6219 H       1  UNL1        0.0636
     64 H           4.8794   -1.7396   -3.2975 H       1  UNL1        0.2100
@<TRIPOS>BOND
     1     1     2    1
     2     2     3    1
     3     3     4    1
     4     3     5    1
     5     5     6    1
     6     6     7    1
     7     7     8    1
     8     8     9    1
     9     9    10    1
    10     9    11    1
    11    11    12    1
    12    12    13    1
    13    12    14    1
    14    14    15    1
    15    15    16    1
    16    16    17    1
    17    17    18    1
    18    17    19    1
    19    19    20    1
    20    20    21    1
    21    21    22    1
    22    22    23    1
    23    21    24    1
    24    24    25    1
    25    24    26    1
    26    26    27    1
    27    26    19    1
    28     1    28    1
    29     2    29    1
    30     2    30    1
    31     3    31    1
    32     4    32    1
    33     5    33    1
    34     5    34    1
    35     6    35    1
    36     6    36    1
    37     7    37    1
    38     7    38    1
    39     8    39    1
    40     8    40    1
    41     9    41    1
    42    10    42    1
    43    11    43    1
    44    11    44    1
    45    12    45    1
    46    13    46    1
    47    14    47    1
    48    14    48    1
    49    15    49    1
    50    15    50    1
    51    16    51    1
    52    16    52    1
    53    17    53    1
    54    18    54    1
    55    19    55    1
    56    20    56    1
    57    21    57    1
    58    22    58    1
    59    22    59    1
    60    23    60    1
    61    24    61    1
    62    25    62    1
    63    26    63    1
    64    27    64    1
