
     RDKit          3D

 64 64  0  0  0  0  0  0  0  0999 V2000
   -8.7514    0.9066   -0.4606 O   0  0  0  0  0  0  0  0  0  0  0  0
   -8.1680    0.3779   -1.6050 C   0  0  0  0  0  0  0  0  0  0  0  0
   -6.6481    0.3506   -1.4375 C   0  0  0  0  0  0  0  0  0  0  0  0
   -6.0751   -0.1807   -2.5894 O   0  0  0  0  0  0  0  0  0  0  0  0
   -6.2794   -0.5007   -0.2275 C   0  0  0  0  0  0  0  0  0  0  0  0
   -4.7735   -0.4961   -0.1053 C   0  0  0  0  0  0  0  0  0  0  0  0
   -4.3373   -1.3275    1.0828 C   0  0  0  0  0  0  0  0  0  0  0  0
   -2.8438   -1.3432    1.2305 C   0  0  0  0  0  0  0  0  0  0  0  0
   -2.3071    0.0415    1.4291 C   0  0  0  0  0  0  0  0  0  0  0  0
   -2.8441    0.6129    2.5663 O   0  0  0  0  0  0  0  0  0  0  0  0
   -0.7618   -0.0628    1.5604 C   0  0  0  0  0  0  0  0  0  0  0  0
   -0.1653    1.2663    1.7586 C   0  0  0  0  0  0  0  0  0  0  0  0
   -0.3901    2.1155    0.6446 O   0  0  0  0  0  0  0  0  0  0  0  0
    1.1976    1.3846    2.2574 C   0  0  0  0  0  0  0  0  0  0  0  0
    2.3191    0.7827    1.5070 C   0  0  0  0  0  0  0  0  0  0  0  0
    2.3725   -0.6742    1.4063 C   0  0  0  0  0  0  0  0  0  0  0  0
    3.6482   -1.1295    0.6798 C   0  0  1  0  0  0  0  0  0  0  0  0
    3.5594   -2.5751    0.6745 O   0  0  0  0  0  0  0  0  0  0  0  0
    3.7406   -0.6692   -0.7413 C   0  0  1  0  0  0  0  0  0  0  0  0
    3.9094    0.7235   -0.9094 N   0  0  0  0  0  0  0  0  0  0  0  0
    5.3275    0.9959   -1.0248 C   0  0  2  0  0  0  0  0  0  0  0  0
    5.5993    2.2027   -1.8959 C   0  0  0  0  0  0  0  0  0  0  0  0
    6.9771    2.3858   -1.9480 O   0  0  0  0  0  0  0  0  0  0  0  0
    5.8880   -0.2383   -1.6984 C   0  0  1  0  0  0  0  0  0  0  0  0
    7.1754   -0.4275   -1.1479 O   0  0  0  0  0  0  0  0  0  0  0  0
    4.9610   -1.3501   -1.3379 C   0  0  2  0  0  0  0  0  0  0  0  0
    4.6064   -2.1407   -2.4351 O   0  0  0  0  0  0  0  0  0  0  0  0
   -8.0631    1.4281    0.0518 H   0  0  0  0  0  0  0  0  0  0  0  0
   -8.4637   -0.6781   -1.7895 H   0  0  0  0  0  0  0  0  0  0  0  0
   -8.4272    1.0020   -2.4690 H   0  0  0  0  0  0  0  0  0  0  0  0
   -6.2672    1.3753   -1.2847 H   0  0  0  0  0  0  0  0  0  0  0  0
   -6.0461    0.5467   -3.2826 H   0  0  0  0  0  0  0  0  0  0  0  0
   -6.8003   -0.1541    0.6661 H   0  0  0  0  0  0  0  0  0  0  0  0
   -6.6236   -1.5393   -0.4474 H   0  0  0  0  0  0  0  0  0  0  0  0
   -4.3646   -0.9484   -1.0250 H   0  0  0  0  0  0  0  0  0  0  0  0
   -4.4571    0.5460   -0.0117 H   0  0  0  0  0  0  0  0  0  0  0  0
   -4.7011   -2.3618    0.9896 H   0  0  0  0  0  0  0  0  0  0  0  0
   -4.7715   -0.8776    2.0207 H   0  0  0  0  0  0  0  0  0  0  0  0
   -2.3584   -1.8824    0.4095 H   0  0  0  0  0  0  0  0  0  0  0  0
   -2.6115   -1.9171    2.1649 H   0  0  0  0  0  0  0  0  0  0  0  0
   -2.4968    0.6488    0.5304 H   0  0  0  0  0  0  0  0  0  0  0  0
   -2.9607   -0.1133    3.2559 H   0  0  0  0  0  0  0  0  0  0  0  0
   -0.4237   -0.4437    0.5369 H   0  0  0  0  0  0  0  0  0  0  0  0
   -0.5333   -0.8285    2.2845 H   0  0  0  0  0  0  0  0  0  0  0  0
   -0.8594    1.8085    2.5520 H   0  0  0  0  0  0  0  0  0  0  0  0
    0.3866    2.0786    0.0185 H   0  0  0  0  0  0  0  0  0  0  0  0
    1.2120    0.9987    3.3381 H   0  0  0  0  0  0  0  0  0  0  0  0
    1.3920    2.5147    2.4107 H   0  0  0  0  0  0  0  0  0  0  0  0
    3.2748    1.1748    1.9801 H   0  0  0  0  0  0  0  0  0  0  0  0
    2.2992    1.2112    0.4515 H   0  0  0  0  0  0  0  0  0  0  0  0
    2.4958   -1.1438    2.4322 H   0  0  0  0  0  0  0  0  0  0  0  0
    1.5202   -1.1407    0.9232 H   0  0  0  0  0  0  0  0  0  0  0  0
    4.5018   -0.8486    1.2905 H   0  0  0  0  0  0  0  0  0  0  0  0
    3.5464   -2.8576    1.6222 H   0  0  0  0  0  0  0  0  0  0  0  0
    2.8141   -0.9983   -1.3087 H   0  0  0  0  0  0  0  0  0  0  0  0
    3.3637    1.1428   -1.6947 H   0  0  0  0  0  0  0  0  0  0  0  0
    5.7275    1.1300   -0.0090 H   0  0  0  0  0  0  0  0  0  0  0  0
    5.2592    1.9544   -2.9293 H   0  0  0  0  0  0  0  0  0  0  0  0
    5.1333    3.1145   -1.5207 H   0  0  0  0  0  0  0  0  0  0  0  0
    7.2978    2.4714   -1.0204 H   0  0  0  0  0  0  0  0  0  0  0  0
    5.9449   -0.0398   -2.7852 H   0  0  0  0  0  0  0  0  0  0  0  0
    7.7684    0.1975   -1.6655 H   0  0  0  0  0  0  0  0  0  0  0  0
    5.4752   -2.0226   -0.6219 H   0  0  0  0  0  0  0  0  0  0  0  0
    4.8794   -1.7396   -3.2975 H   0  0  0  0  0  0  0  0  0  0  0  0
  1  2  1  0
  2  3  1  0
  3  4  1  0
  3  5  1  0
  5  6  1  0
  6  7  1  0
  7  8  1  0
  8  9  1  0
  9 10  1  0
  9 11  1  0
 11 12  1  0
 12 13  1  0
 12 14  1  0
 14 15  1  0
 15 16  1  0
 16 17  1  0
 17 18  1  0
 17 19  1  0
 19 20  1  0
 20 21  1  0
 21 22  1  0
 22 23  1  0
 21 24  1  0
 24 25  1  0
 24 26  1  0
 26 27  1  0
 26 19  1  0
  1 28  1  0
  2 29  1  0
  2 30  1  0
  3 31  1  0
  4 32  1  0
  5 33  1  0
  5 34  1  0
  6 35  1  0
  6 36  1  0
  7 37  1  0
  7 38  1  0
  8 39  1  0
  8 40  1  0
  9 41  1  0
 10 42  1  0
 11 43  1  0
 11 44  1  0
 12 45  1  0
 13 46  1  0
 14 47  1  0
 14 48  1  0
 15 49  1  0
 15 50  1  0
 16 51  1  0
 16 52  1  0
 17 53  1  1
 18 54  1  0
 19 55  1  6
 20 56  1  0
 21 57  1  1
 22 58  1  0
 22 59  1  0
 23 60  1  0
 24 61  1  6
 25 62  1  0
 26 63  1  1
 27 64  1  0
M  END
$$$$
