
     RDKit          3D

 46 49  0  0  0  0  0  0  0  0999 V2000
   -2.9017    3.3422    1.5839 C   0  0  0  0  0  0  0  0  0  0  0  0
   -3.0471    1.9390    1.6910 O   0  0  0  0  0  0  0  0  0  0  0  0
   -2.2465    1.1404    0.8869 C   0  0  0  0  0  0  0  0  0  0  0  0
   -1.3250    1.6327   -0.0136 C   0  0  0  0  0  0  0  0  0  0  0  0
   -0.5401    0.8241   -0.7995 C   0  0  0  0  0  0  0  0  0  0  0  0
    0.4108    1.3646   -1.7609 C   0  0  0  0  0  0  0  0  0  0  0  0
    1.6408    0.9727   -1.9786 C   0  0  0  0  0  0  0  0  0  0  0  0
    2.3215   -0.1087   -1.2785 C   0  0  0  0  0  0  0  0  0  0  0  0
    2.9988   -1.1736   -1.8811 C   0  0  0  0  0  0  0  0  0  0  0  0
    3.5201   -1.9537   -0.9257 N   0  0  0  0  0  0  0  0  0  0  0  0
    3.2304   -1.4706    0.3106 C   0  0  0  0  0  0  0  0  0  0  0  0
    3.5315   -1.8862    1.5916 C   0  0  0  0  0  0  0  0  0  0  0  0
    3.0893   -1.1523    2.6631 C   0  0  0  0  0  0  0  0  0  0  0  0
    2.3503   -0.0087    2.4571 C   0  0  0  0  0  0  0  0  0  0  0  0
    2.0543    0.3981    1.1767 C   0  0  0  0  0  0  0  0  0  0  0  0
    2.4867   -0.3245    0.0755 C   0  0  0  0  0  0  0  0  0  0  0  0
    2.1975    1.8254   -3.0538 C   0  0  0  0  0  0  0  0  0  0  0  0
    3.3839    1.6855   -3.4895 O   0  0  0  0  0  0  0  0  0  0  0  0
    1.2138    2.7654   -3.4736 N   0  0  0  0  0  0  0  0  0  0  0  0
    0.0769    2.4904   -2.6683 C   0  0  0  0  0  0  0  0  0  0  0  0
   -1.0196    3.1009   -2.7227 O   0  0  0  0  0  0  0  0  0  0  0  0
   -0.7072   -0.5526   -0.6554 C   0  0  0  0  0  0  0  0  0  0  0  0
   -1.6130   -1.0910    0.2281 C   0  0  0  0  0  0  0  0  0  0  0  0
   -1.8093   -2.4545    0.3999 O   0  0  0  0  0  0  0  0  0  0  0  0
   -1.0244   -3.3304   -0.3882 C   0  0  0  0  0  0  0  0  0  0  0  0
   -2.3850   -0.2478    1.0014 C   0  0  0  0  0  0  0  0  0  0  0  0
   -3.2946   -0.7605    1.8890 O   0  0  0  0  0  0  0  0  0  0  0  0
   -4.6427   -1.0365    1.5491 C   0  0  0  0  0  0  0  0  0  0  0  0
   -3.7199    3.8840    2.1044 H   0  0  0  0  0  0  0  0  0  0  0  0
   -1.9495    3.6877    2.0533 H   0  0  0  0  0  0  0  0  0  0  0  0
   -2.8680    3.7063    0.5406 H   0  0  0  0  0  0  0  0  0  0  0  0
   -1.2140    2.7152   -0.1066 H   0  0  0  0  0  0  0  0  0  0  0  0
    3.0857   -1.3350   -2.9370 H   0  0  0  0  0  0  0  0  0  0  0  0
    4.0898   -2.8371   -1.0245 H   0  0  0  0  0  0  0  0  0  0  0  0
    4.1093   -2.7797    1.7494 H   0  0  0  0  0  0  0  0  0  0  0  0
    3.3182   -1.4681    3.6805 H   0  0  0  0  0  0  0  0  0  0  0  0
    2.0088    0.5602    3.3319 H   0  0  0  0  0  0  0  0  0  0  0  0
    1.4822    1.3142    1.0716 H   0  0  0  0  0  0  0  0  0  0  0  0
    1.3332    3.4877   -4.2167 H   0  0  0  0  0  0  0  0  0  0  0  0
   -0.1086   -1.2217   -1.2566 H   0  0  0  0  0  0  0  0  0  0  0  0
   -1.4737   -4.3641   -0.3610 H   0  0  0  0  0  0  0  0  0  0  0  0
   -1.0116   -3.0522   -1.4582 H   0  0  0  0  0  0  0  0  0  0  0  0
    0.0045   -3.4401    0.0423 H   0  0  0  0  0  0  0  0  0  0  0  0
   -4.8301   -0.9591    0.4526 H   0  0  0  0  0  0  0  0  0  0  0  0
   -4.8340   -2.0962    1.8216 H   0  0  0  0  0  0  0  0  0  0  0  0
   -5.3729   -0.4219    2.0981 H   0  0  0  0  0  0  0  0  0  0  0  0
  1  2  1  0
  2  3  1  0
  3  4  2  0
  4  5  1  0
  5  6  1  0
  6  7  2  0
  7  8  1  0
  8  9  2  0
  9 10  1  0
 10 11  1  0
 11 12  2  0
 12 13  1  0
 13 14  2  0
 14 15  1  0
 15 16  2  0
  7 17  1  0
 17 18  2  0
 17 19  1  0
 19 20  1  0
 20 21  2  0
  5 22  2  0
 22 23  1  0
 23 24  1  0
 24 25  1  0
 23 26  2  0
 26 27  1  0
 27 28  1  0
 26  3  1  0
 20  6  1  0
 16  8  1  0
 16 11  1  0
  1 29  1  0
  1 30  1  0
  1 31  1  0
  4 32  1  0
  9 33  1  0
 10 34  1  0
 12 35  1  0
 13 36  1  0
 14 37  1  0
 15 38  1  0
 19 39  1  0
 22 40  1  0
 25 41  1  0
 25 42  1  0
 25 43  1  0
 28 44  1  0
 28 45  1  0
 28 46  1  0
M  END
$$$$
