@<TRIPOS>MOLECULE
*****
 46 49 0 0 0
SMALL
GASTEIGER

@<TRIPOS>ATOM
      1 C          -2.9017    3.3422    1.5839 C.3     1  UNL1        0.0790
      2 O          -3.0471    1.9390    1.6910 O.3     1  UNL1       -0.4913
      3 C          -2.2465    1.1404    0.8869 C.ar    1  UNL1        0.1657
      4 C          -1.3250    1.6327   -0.0136 C.ar    1  UNL1       -0.0082
      5 C          -0.5401    0.8241   -0.7995 C.ar    1  UNL1       -0.0050
      6 C           0.4108    1.3646   -1.7609 C.2     1  UNL1        0.0572
      7 C           1.6408    0.9727   -1.9786 C.2     1  UNL1        0.0589
      8 C           2.3215   -0.1087   -1.2785 C.ar    1  UNL1        0.0129
      9 C           2.9988   -1.1736   -1.8811 C.ar    1  UNL1        0.0106
     10 N           3.5201   -1.9537   -0.9257 N.ar    1  UNL1       -0.3600
     11 C           3.2304   -1.4706    0.3106 C.ar    1  UNL1        0.0471
     12 C           3.5315   -1.8862    1.5916 C.ar    1  UNL1       -0.0378
     13 C           3.0893   -1.1523    2.6631 C.ar    1  UNL1       -0.0598
     14 C           2.3503   -0.0087    2.4571 C.ar    1  UNL1       -0.0611
     15 C           2.0543    0.3981    1.1767 C.ar    1  UNL1       -0.0520
     16 C           2.4867   -0.3245    0.0755 C.ar    1  UNL1        0.0075
     17 C           2.1975    1.8254   -3.0538 C.2     1  UNL1        0.2519
     18 O           3.3839    1.6855   -3.4895 O.2     1  UNL1       -0.2697
     19 N           1.2138    2.7654   -3.4736 N.am    1  UNL1       -0.2483
     20 C           0.0769    2.4904   -2.6683 C.2     1  UNL1        0.2518
     21 O          -1.0196    3.1009   -2.7227 O.2     1  UNL1       -0.2697
     22 C          -0.7072   -0.5526   -0.6554 C.ar    1  UNL1       -0.0082
     23 C          -1.6130   -1.0910    0.2281 C.ar    1  UNL1        0.1657
     24 O          -1.8093   -2.4545    0.3999 O.3     1  UNL1       -0.4913
     25 C          -1.0244   -3.3304   -0.3882 C.3     1  UNL1        0.0790
     26 C          -2.3850   -0.2478    1.0014 C.ar    1  UNL1        0.2035
     27 O          -3.2946   -0.7605    1.8890 O.3     1  UNL1       -0.4885
     28 C          -4.6427   -1.0365    1.5491 C.3     1  UNL1        0.0791
     29 H          -3.7199    3.8840    2.1044 H       1  UNL1        0.0660
     30 H          -1.9495    3.6877    2.0533 H       1  UNL1        0.0660
     31 H          -2.8680    3.7063    0.5406 H       1  UNL1        0.0660
     32 H          -1.2140    2.7152   -0.1066 H       1  UNL1        0.0661
     33 H           3.0857   -1.3350   -2.9370 H       1  UNL1        0.0813
     34 H           4.0898   -2.8371   -1.0245 H       1  UNL1        0.1654
     35 H           4.1093   -2.7797    1.7494 H       1  UNL1        0.0638
     36 H           3.3182   -1.4681    3.6805 H       1  UNL1        0.0618
     37 H           2.0088    0.5602    3.3319 H       1  UNL1        0.0618
     38 H           1.4822    1.3142    1.0716 H       1  UNL1        0.0624
     39 H           1.3332    3.4877   -4.2167 H       1  UNL1        0.1581
     40 H          -0.1086   -1.2217   -1.2566 H       1  UNL1        0.0661
     41 H          -1.4737   -4.3641   -0.3610 H       1  UNL1        0.0660
     42 H          -1.0116   -3.0522   -1.4582 H       1  UNL1        0.0660
     43 H           0.0045   -3.4401    0.0423 H       1  UNL1        0.0660
     44 H          -4.8301   -0.9591    0.4526 H       1  UNL1        0.0660
     45 H          -4.8340   -2.0962    1.8216 H       1  UNL1        0.0660
     46 H          -5.3729   -0.4219    2.0981 H       1  UNL1        0.0660
@<TRIPOS>BOND
     1     1     2    1
     2     2     3    1
     3     3     4   ar
     4     4     5   ar
     5     5     6    1
     6     6     7    2
     7     7     8    1
     8     8     9   ar
     9     9    10   ar
    10    10    11   ar
    11    11    12   ar
    12    12    13   ar
    13    13    14   ar
    14    14    15   ar
    15    15    16   ar
    16     7    17    1
    17    17    18    2
    18    17    19   am
    19    19    20   am
    20    20    21    2
    21     5    22   ar
    22    22    23   ar
    23    23    24    1
    24    24    25    1
    25    23    26   ar
    26    26    27    1
    27    27    28    1
    28    26     3   ar
    29    20     6    1
    30    16     8   ar
    31    16    11   ar
    32     1    29    1
    33     1    30    1
    34     1    31    1
    35     4    32    1
    36     9    33    1
    37    10    34    1
    38    12    35    1
    39    13    36    1
    40    14    37    1
    41    15    38    1
    42    19    39    1
    43    22    40    1
    44    25    41    1
    45    25    42    1
    46    25    43    1
    47    28    44    1
    48    28    45    1
    49    28    46    1
