@<TRIPOS>MOLECULE
*****
 14 15 0 0 0
SMALL
GASTEIGER

@<TRIPOS>ATOM
      1 O          -0.9376    2.3461   -0.2414 O.2     1  UNL1       -0.2670
      2 C          -0.8428    1.1023   -0.1104 C.ar    1  UNL1        0.2621
      3 N          -1.8835    0.2745   -0.0151 N.ar    1  UNL1       -0.3128
      4 C          -1.7095   -1.0579    0.1247 C.ar    1  UNL1        0.0983
      5 N          -0.4988   -1.6390    0.1772 N.ar    1  UNL1       -0.2182
      6 C           0.5728   -0.8142    0.0819 C.ar    1  UNL1        0.1625
      7 N           1.9004   -1.0672    0.0989 N.ar    1  UNL1       -0.2600
      8 N           2.5636    0.0736   -0.0268 N.ar    1  UNL1       -0.1797
      9 C           1.6887    1.0950   -0.1284 C.ar    1  UNL1        0.0637
     10 C           0.4221    0.5500   -0.0614 C.ar    1  UNL1        0.1025
     11 H          -2.8313    0.6788   -0.0508 H       1  UNL1        0.1698
     12 H          -2.6136   -1.6704    0.1962 H       1  UNL1        0.1028
     13 H           2.2999   -2.0274    0.1975 H       1  UNL1        0.1905
     14 H           1.8695    2.1558   -0.2421 H       1  UNL1        0.0856
@<TRIPOS>BOND
     1     1     2    2
     2     2     3   ar
     3     3     4   ar
     4     4     5   ar
     5     5     6   ar
     6     6     7   ar
     7     7     8   ar
     8     8     9   ar
     9     9    10   ar
    10    10     2   ar
    11    10     6   ar
    12     3    11    1
    13     4    12    1
    14     7    13    1
    15     9    14    1
