
     RDKit          3D

 31 32  0  0  0  0  0  0  0  0999 V2000
    5.7870   -0.8647    0.5668 C   0  0  0  0  0  0  0  0  0  0  0  0
    4.4003   -1.0525    0.7446 O   0  0  0  0  0  0  0  0  0  0  0  0
    3.4894   -0.2315    0.1438 C   0  0  0  0  0  0  0  0  0  0  0  0
    3.9327    0.7980   -0.6496 C   0  0  0  0  0  0  0  0  0  0  0  0
    2.9802    1.5995   -1.2344 C   0  0  0  0  0  0  0  0  0  0  0  0
    1.6353    1.3686   -1.0251 C   0  0  0  0  0  0  0  0  0  0  0  0
    1.1626    0.3308   -0.2247 C   0  0  0  0  0  0  0  0  0  0  0  0
   -0.2844    0.1664   -0.0631 C   0  0  0  0  0  0  0  0  0  0  0  0
   -0.8681   -0.7537    0.6499 C   0  0  0  0  0  0  0  0  0  0  0  0
   -2.2292   -1.0713    0.9234 C   0  0  0  0  0  0  0  0  0  0  0  0
   -2.3245   -2.1080    1.7469 O   0  0  0  0  0  0  0  0  0  0  0  0
   -3.4818   -0.5389    0.5229 C   0  0  0  0  0  0  0  0  0  0  0  0
   -3.6795    0.4426   -0.3904 C   0  0  0  0  0  0  0  0  0  0  0  0
   -4.9613    0.9134   -0.6877 C   0  0  0  0  0  0  0  0  0  0  0  0
   -6.0481    0.3928   -0.0629 C   0  0  0  0  0  0  0  0  0  0  0  0
   -5.8569   -0.5746    0.8366 N   0  0  0  0  0  0  0  0  0  0  0  0
   -4.6561   -1.0443    1.1430 C   0  0  0  0  0  0  0  0  0  0  0  0
    2.1167   -0.4626    0.3540 C   0  0  0  0  0  0  0  0  0  0  0  0
    6.1040    0.0661    1.0906 H   0  0  0  0  0  0  0  0  0  0  0  0
    5.9638   -0.7593   -0.5382 H   0  0  0  0  0  0  0  0  0  0  0  0
    6.3735   -1.7482    0.9054 H   0  0  0  0  0  0  0  0  0  0  0  0
    4.9743    1.0137   -0.8397 H   0  0  0  0  0  0  0  0  0  0  0  0
    3.3175    2.4226   -1.8683 H   0  0  0  0  0  0  0  0  0  0  0  0
    0.8948    2.0231   -1.5037 H   0  0  0  0  0  0  0  0  0  0  0  0
   -0.8995    0.8698   -0.5633 H   0  0  0  0  0  0  0  0  0  0  0  0
   -0.0938   -1.4276    1.1427 H   0  0  0  0  0  0  0  0  0  0  0  0
   -2.8726    0.8748   -0.9218 H   0  0  0  0  0  0  0  0  0  0  0  0
   -5.0755    1.7127   -1.4361 H   0  0  0  0  0  0  0  0  0  0  0  0
   -7.0447    0.7592   -0.2943 H   0  0  0  0  0  0  0  0  0  0  0  0
   -4.5612   -1.8378    1.8897 H   0  0  0  0  0  0  0  0  0  0  0  0
    1.8050   -1.2792    0.9823 H   0  0  0  0  0  0  0  0  0  0  0  0
  1  2  1  0
  2  3  1  0
  3  4  2  0
  4  5  1  0
  5  6  2  0
  6  7  1  0
  7  8  1  0
  8  9  2  0
  9 10  1  0
 10 11  2  0
 10 12  1  0
 12 13  2  0
 13 14  1  0
 14 15  2  0
 15 16  1  0
 16 17  2  0
  7 18  2  0
 18  3  1  0
 17 12  1  0
  1 19  1  0
  1 20  1  0
  1 21  1  0
  4 22  1  0
  5 23  1  0
  6 24  1  0
  8 25  1  0
  9 26  1  0
 13 27  1  0
 14 28  1  0
 15 29  1  0
 17 30  1  0
 18 31  1  0
M  END
$$$$
