@<TRIPOS>MOLECULE
*****
 31 32 0 0 0
SMALL
GASTEIGER

@<TRIPOS>ATOM
      1 C           5.7870   -0.8647    0.5668 C.3     1  UNL1        0.0788
      2 O           4.4003   -1.0525    0.7446 O.3     1  UNL1       -0.4951
      3 C           3.4894   -0.2315    0.1438 C.ar    1  UNL1        0.1207
      4 C           3.9327    0.7980   -0.6496 C.ar    1  UNL1       -0.0199
      5 C           2.9802    1.5995   -1.2344 C.ar    1  UNL1       -0.0577
      6 C           1.6353    1.3686   -1.0251 C.ar    1  UNL1       -0.0544
      7 C           1.1626    0.3308   -0.2247 C.ar    1  UNL1       -0.0215
      8 C          -0.2844    0.1664   -0.0631 C.2     1  UNL1       -0.0508
      9 C          -0.8681   -0.7537    0.6499 C.2     1  UNL1       -0.0137
     10 C          -2.2292   -1.0713    0.9234 C.2     1  UNL1        0.1875
     11 O          -2.3245   -2.1080    1.7469 O.2     1  UNL1       -0.2872
     12 C          -3.4818   -0.5389    0.5229 C.ar    1  UNL1        0.0397
     13 C          -3.6795    0.4426   -0.3904 C.ar    1  UNL1       -0.0480
     14 C          -4.9613    0.9134   -0.6877 C.ar    1  UNL1       -0.0429
     15 C          -6.0481    0.3928   -0.0629 C.ar    1  UNL1        0.0276
     16 N          -5.8569   -0.5746    0.8366 N.ar    1  UNL1       -0.2626
     17 C          -4.6561   -1.0443    1.1430 C.ar    1  UNL1        0.0383
     18 C           2.1167   -0.4626    0.3540 C.ar    1  UNL1       -0.0128
     19 H           6.1040    0.0661    1.0906 H       1  UNL1        0.0660
     20 H           5.9638   -0.7593   -0.5382 H       1  UNL1        0.0660
     21 H           6.3735   -1.7482    0.9054 H       1  UNL1        0.0660
     22 H           4.9743    1.0137   -0.8397 H       1  UNL1        0.0654
     23 H           3.3175    2.4226   -1.8683 H       1  UNL1        0.0619
     24 H           0.8948    2.0231   -1.5037 H       1  UNL1        0.0623
     25 H          -0.8995    0.8698   -0.5633 H       1  UNL1        0.0625
     26 H          -0.0938   -1.4276    1.1427 H       1  UNL1        0.0656
     27 H          -2.8726    0.8748   -0.9218 H       1  UNL1        0.0626
     28 H          -5.0755    1.7127   -1.4361 H       1  UNL1        0.0633
     29 H          -7.0447    0.7592   -0.2943 H       1  UNL1        0.0829
     30 H          -4.5612   -1.8378    1.8897 H       1  UNL1        0.0837
     31 H           1.8050   -1.2792    0.9823 H       1  UNL1        0.0660
@<TRIPOS>BOND
     1     1     2    1
     2     2     3    1
     3     3     4   ar
     4     4     5   ar
     5     5     6   ar
     6     6     7   ar
     7     7     8    1
     8     8     9    2
     9     9    10    1
    10    10    11    2
    11    10    12    1
    12    12    13   ar
    13    13    14   ar
    14    14    15   ar
    15    15    16   ar
    16    16    17   ar
    17     7    18   ar
    18    18     3   ar
    19    17    12   ar
    20     1    19    1
    21     1    20    1
    22     1    21    1
    23     4    22    1
    24     5    23    1
    25     6    24    1
    26     8    25    1
    27     9    26    1
    28    13    27    1
    29    14    28    1
    30    15    29    1
    31    17    30    1
    32    18    31    1
