@<TRIPOS>MOLECULE
*****
 56 59 0 0 0
SMALL
GASTEIGER

@<TRIPOS>ATOM
      1 C          -5.4537    0.3534   -1.3461 C.3     1  UNL1       -0.0617
      2 C          -4.8227   -0.1070   -0.0763 C.3     1  UNL1       -0.0157
      3 C          -3.3583    0.2625    0.0380 C.3     1  UNL1        0.1122
      4 C          -3.2763    1.7680   -0.0278 C.3     1  UNL1       -0.0157
      5 C          -4.0583    2.4205    1.1001 C.3     1  UNL1       -0.0617
      6 C          -2.5174   -0.3363   -1.0310 C.3     1  UNL1        0.0098
      7 C          -1.1903   -0.8655   -0.5676 C.3     1  UNL1        0.0570
      8 N          -0.3321    0.1415   -0.0093 N.am    1  UNL1       -0.2921
      9 C           0.9394    0.4322   -0.5499 C.2     1  UNL1        0.3044
     10 O           1.3809   -0.1976   -1.5696 O.2     1  UNL1       -0.2525
     11 N           1.8120    1.4258   -0.0169 N.am    1  UNL1       -0.2689
     12 C           3.0812    1.6829   -0.5938 C.ar    1  UNL1        0.0426
     13 C           3.2670    2.6105   -1.5929 C.ar    1  UNL1       -0.0398
     14 C           4.5247    2.8452   -2.1440 C.ar    1  UNL1       -0.0594
     15 C           5.6034    2.1366   -1.6814 C.ar    1  UNL1       -0.0525
     16 C           5.4495    1.1919   -0.6726 C.ar    1  UNL1        0.0020
     17 C           6.5187    0.4782   -0.2024 C.ar    1  UNL1        0.0356
     18 N           6.3216   -0.4233    0.7727 N.ar    1  UNL1       -0.2595
     19 C           5.1234   -0.6730    1.3246 C.ar    1  UNL1        0.0389
     20 C           4.9365   -1.6813    2.4070 C.3     1  UNL1       -0.0223
     21 C           4.0519    0.0476    0.8479 C.ar    1  UNL1       -0.0312
     22 C           4.1803    0.9867   -0.1490 C.ar    1  UNL1        0.0065
     23 C          -1.4630   -1.8521    0.5200 C.ar    1  UNL1        0.0173
     24 C          -0.8275   -3.0740    0.5514 C.ar    1  UNL1       -0.0180
     25 C          -1.1232   -3.9503    1.5931 C.ar    1  UNL1        0.1239
     26 F          -0.4809   -5.1459    1.5960 F       1  UNL1       -0.2055
     27 C          -2.0332   -3.5799    2.5563 C.ar    1  UNL1       -0.0230
     28 C          -2.6463   -2.3474    2.4868 C.ar    1  UNL1       -0.0169
     29 C          -2.3790   -1.4685    1.4817 C.ar    1  UNL1        0.1264
     30 O          -2.9442   -0.2134    1.3303 O.3     1  UNL1       -0.4853
     31 H          -6.2785   -0.3360   -1.6797 H       1  UNL1        0.0231
     32 H          -5.9496    1.3284   -1.1545 H       1  UNL1        0.0231
     33 H          -4.7285    0.5364   -2.1644 H       1  UNL1        0.0231
     34 H          -5.4151    0.2899    0.7724 H       1  UNL1        0.0301
     35 H          -4.9585   -1.2246   -0.0277 H       1  UNL1        0.0301
     36 H          -3.8255    2.0595   -0.9692 H       1  UNL1        0.0301
     37 H          -2.2710    2.1643   -0.1289 H       1  UNL1        0.0301
     38 H          -4.0293    1.8341    2.0324 H       1  UNL1        0.0231
     39 H          -3.6540    3.4436    1.2507 H       1  UNL1        0.0231
     40 H          -5.1297    2.5575    0.8054 H       1  UNL1        0.0231
     41 H          -2.4259    0.3459   -1.9044 H       1  UNL1        0.0325
     42 H          -3.0720   -1.2360   -1.4307 H       1  UNL1        0.0325
     43 H          -0.7281   -1.3689   -1.4544 H       1  UNL1        0.0551
     44 H          -0.6445    0.6767    0.8150 H       1  UNL1        0.1508
     45 H           1.5166    1.9804    0.8168 H       1  UNL1        0.1564
     46 H           2.4529    3.1890   -1.9870 H       1  UNL1        0.0636
     47 H           4.6815    3.5718   -2.9294 H       1  UNL1        0.0618
     48 H           6.6025    2.2634   -2.0579 H       1  UNL1        0.0624
     49 H           7.5173    0.6251   -0.5993 H       1  UNL1        0.0836
     50 H           4.1303   -1.4014    3.1093 H       1  UNL1        0.0292
     51 H           5.8678   -1.7439    2.9979 H       1  UNL1        0.0292
     52 H           4.7454   -2.6999    2.0013 H       1  UNL1        0.0292
     53 H           3.0648   -0.1150    1.2582 H       1  UNL1        0.0642
     54 H          -0.1083   -3.3394   -0.2298 H       1  UNL1        0.0651
     55 H          -2.2671   -4.2382    3.3548 H       1  UNL1        0.0647
     56 H          -3.3774   -2.0306    3.2478 H       1  UNL1        0.0655
@<TRIPOS>BOND
     1     1     2    1
     2     2     3    1
     3     3     4    1
     4     4     5    1
     5     3     6    1
     6     6     7    1
     7     7     8    1
     8     8     9   am
     9     9    10    2
    10     9    11   am
    11    11    12    1
    12    12    13   ar
    13    13    14   ar
    14    14    15   ar
    15    15    16   ar
    16    16    17   ar
    17    17    18   ar
    18    18    19   ar
    19    19    20    1
    20    19    21   ar
    21    21    22   ar
    22     7    23    1
    23    23    24   ar
    24    24    25   ar
    25    25    26    1
    26    25    27   ar
    27    27    28   ar
    28    28    29   ar
    29    29    30    1
    30    30     3    1
    31    22    12   ar
    32    29    23   ar
    33    22    16   ar
    34     1    31    1
    35     1    32    1
    36     1    33    1
    37     2    34    1
    38     2    35    1
    39     4    36    1
    40     4    37    1
    41     5    38    1
    42     5    39    1
    43     5    40    1
    44     6    41    1
    45     6    42    1
    46     7    43    1
    47     8    44    1
    48    11    45    1
    49    13    46    1
    50    14    47    1
    51    15    48    1
    52    17    49    1
    53    20    50    1
    54    20    51    1
    55    20    52    1
    56    21    53    1
    57    24    54    1
    58    27    55    1
    59    28    56    1
