
     RDKit          3D

 56 59  0  0  0  0  0  0  0  0999 V2000
   -5.4537    0.3534   -1.3461 C   0  0  0  0  0  0  0  0  0  0  0  0
   -4.8227   -0.1070   -0.0763 C   0  0  0  0  0  0  0  0  0  0  0  0
   -3.3583    0.2625    0.0380 C   0  0  0  0  0  0  0  0  0  0  0  0
   -3.2763    1.7680   -0.0278 C   0  0  0  0  0  0  0  0  0  0  0  0
   -4.0583    2.4205    1.1001 C   0  0  0  0  0  0  0  0  0  0  0  0
   -2.5174   -0.3363   -1.0310 C   0  0  0  0  0  0  0  0  0  0  0  0
   -1.1903   -0.8655   -0.5676 C   0  0  1  0  0  0  0  0  0  0  0  0
   -0.3321    0.1415   -0.0093 N   0  0  0  0  0  0  0  0  0  0  0  0
    0.9394    0.4322   -0.5499 C   0  0  0  0  0  0  0  0  0  0  0  0
    1.3809   -0.1976   -1.5696 O   0  0  0  0  0  0  0  0  0  0  0  0
    1.8120    1.4258   -0.0169 N   0  0  0  0  0  0  0  0  0  0  0  0
    3.0812    1.6829   -0.5938 C   0  0  0  0  0  0  0  0  0  0  0  0
    3.2670    2.6105   -1.5929 C   0  0  0  0  0  0  0  0  0  0  0  0
    4.5247    2.8452   -2.1440 C   0  0  0  0  0  0  0  0  0  0  0  0
    5.6034    2.1366   -1.6814 C   0  0  0  0  0  0  0  0  0  0  0  0
    5.4495    1.1919   -0.6726 C   0  0  0  0  0  0  0  0  0  0  0  0
    6.5187    0.4782   -0.2024 C   0  0  0  0  0  0  0  0  0  0  0  0
    6.3216   -0.4233    0.7727 N   0  0  0  0  0  0  0  0  0  0  0  0
    5.1234   -0.6730    1.3246 C   0  0  0  0  0  0  0  0  0  0  0  0
    4.9365   -1.6813    2.4070 C   0  0  0  0  0  0  0  0  0  0  0  0
    4.0519    0.0476    0.8479 C   0  0  0  0  0  0  0  0  0  0  0  0
    4.1803    0.9867   -0.1490 C   0  0  0  0  0  0  0  0  0  0  0  0
   -1.4630   -1.8521    0.5200 C   0  0  0  0  0  0  0  0  0  0  0  0
   -0.8275   -3.0740    0.5514 C   0  0  0  0  0  0  0  0  0  0  0  0
   -1.1232   -3.9503    1.5931 C   0  0  0  0  0  0  0  0  0  0  0  0
   -0.4809   -5.1459    1.5960 F   0  0  0  0  0  0  0  0  0  0  0  0
   -2.0332   -3.5799    2.5563 C   0  0  0  0  0  0  0  0  0  0  0  0
   -2.6463   -2.3474    2.4868 C   0  0  0  0  0  0  0  0  0  0  0  0
   -2.3790   -1.4685    1.4817 C   0  0  0  0  0  0  0  0  0  0  0  0
   -2.9442   -0.2134    1.3303 O   0  0  0  0  0  0  0  0  0  0  0  0
   -6.2785   -0.3360   -1.6797 H   0  0  0  0  0  0  0  0  0  0  0  0
   -5.9496    1.3284   -1.1545 H   0  0  0  0  0  0  0  0  0  0  0  0
   -4.7285    0.5364   -2.1644 H   0  0  0  0  0  0  0  0  0  0  0  0
   -5.4151    0.2899    0.7724 H   0  0  0  0  0  0  0  0  0  0  0  0
   -4.9585   -1.2246   -0.0277 H   0  0  0  0  0  0  0  0  0  0  0  0
   -3.8255    2.0595   -0.9692 H   0  0  0  0  0  0  0  0  0  0  0  0
   -2.2710    2.1643   -0.1289 H   0  0  0  0  0  0  0  0  0  0  0  0
   -4.0293    1.8341    2.0324 H   0  0  0  0  0  0  0  0  0  0  0  0
   -3.6540    3.4436    1.2507 H   0  0  0  0  0  0  0  0  0  0  0  0
   -5.1297    2.5575    0.8054 H   0  0  0  0  0  0  0  0  0  0  0  0
   -2.4259    0.3459   -1.9044 H   0  0  0  0  0  0  0  0  0  0  0  0
   -3.0720   -1.2360   -1.4307 H   0  0  0  0  0  0  0  0  0  0  0  0
   -0.7281   -1.3689   -1.4544 H   0  0  0  0  0  0  0  0  0  0  0  0
   -0.6445    0.6767    0.8150 H   0  0  0  0  0  0  0  0  0  0  0  0
    1.5166    1.9804    0.8168 H   0  0  0  0  0  0  0  0  0  0  0  0
    2.4529    3.1890   -1.9870 H   0  0  0  0  0  0  0  0  0  0  0  0
    4.6815    3.5718   -2.9294 H   0  0  0  0  0  0  0  0  0  0  0  0
    6.6025    2.2634   -2.0579 H   0  0  0  0  0  0  0  0  0  0  0  0
    7.5173    0.6251   -0.5993 H   0  0  0  0  0  0  0  0  0  0  0  0
    4.1303   -1.4014    3.1093 H   0  0  0  0  0  0  0  0  0  0  0  0
    5.8678   -1.7439    2.9979 H   0  0  0  0  0  0  0  0  0  0  0  0
    4.7454   -2.6999    2.0013 H   0  0  0  0  0  0  0  0  0  0  0  0
    3.0648   -0.1150    1.2582 H   0  0  0  0  0  0  0  0  0  0  0  0
   -0.1083   -3.3394   -0.2298 H   0  0  0  0  0  0  0  0  0  0  0  0
   -2.2671   -4.2382    3.3548 H   0  0  0  0  0  0  0  0  0  0  0  0
   -3.3774   -2.0306    3.2478 H   0  0  0  0  0  0  0  0  0  0  0  0
  1  2  1  0
  2  3  1  0
  3  4  1  0
  4  5  1  0
  3  6  1  0
  6  7  1  0
  7  8  1  0
  8  9  1  0
  9 10  2  0
  9 11  1  0
 11 12  1  0
 12 13  2  0
 13 14  1  0
 14 15  2  0
 15 16  1  0
 16 17  2  0
 17 18  1  0
 18 19  2  0
 19 20  1  0
 19 21  1  0
 21 22  2  0
  7 23  1  0
 23 24  2  0
 24 25  1  0
 25 26  1  0
 25 27  2  0
 27 28  1  0
 28 29  2  0
 29 30  1  0
 30  3  1  0
 22 12  1  0
 29 23  1  0
 22 16  1  0
  1 31  1  0
  1 32  1  0
  1 33  1  0
  2 34  1  0
  2 35  1  0
  4 36  1  0
  4 37  1  0
  5 38  1  0
  5 39  1  0
  5 40  1  0
  6 41  1  0
  6 42  1  0
  7 43  1  6
  8 44  1  0
 11 45  1  0
 13 46  1  0
 14 47  1  0
 15 48  1  0
 17 49  1  0
 20 50  1  0
 20 51  1  0
 20 52  1  0
 21 53  1  0
 24 54  1  0
 27 55  1  0
 28 56  1  0
M  END
$$$$
