@<TRIPOS>MOLECULE
*****
 36 38 0 0 0
SMALL
GASTEIGER

@<TRIPOS>ATOM
      1 C          -3.7107    2.0342    1.3469 C.3     1  UNL1       -0.0152
      2 N          -3.3776    0.7299    0.8394 N.3     1  UNL1       -0.3122
      3 C          -1.9532    0.6105    0.7225 C.3     1  UNL1        0.0358
      4 C          -1.3945    1.6559   -0.2232 C.3     1  UNL1       -0.0172
      5 C           0.0945    1.6422   -0.2377 C.3     1  UNL1        0.0190
      6 N           0.6174    0.3002   -0.1596 N.pl3   1  UNL1       -0.2997
      7 C           2.0244    0.0609    0.0614 C.ar    1  UNL1        0.0354
      8 C           2.4898   -1.0924    0.6365 C.ar    1  UNL1       -0.0389
      9 C           3.8725   -1.2478    0.7965 C.ar    1  UNL1       -0.0402
     10 C           4.7760   -0.2840    0.3973 C.ar    1  UNL1        0.0594
     11 CL          6.5137   -0.5161    0.6157 Cl      1  UNL1       -0.0820
     12 C           4.2922    0.8658   -0.1767 C.ar    1  UNL1        0.0610
     13 CL          5.4309    2.0899   -0.6838 Cl      1  UNL1       -0.0820
     14 C           2.9120    1.0299   -0.3409 C.ar    1  UNL1       -0.0206
     15 C          -0.2579   -0.8029   -0.3141 C.ar    1  UNL1        0.0386
     16 C           0.1541   -1.9722   -0.8837 C.ar    1  UNL1       -0.0400
     17 C          -0.7124   -3.0615   -1.0111 C.ar    1  UNL1       -0.0600
     18 C          -2.0117   -2.9818   -0.5628 C.ar    1  UNL1       -0.0613
     19 C          -2.4239   -1.7732    0.0205 C.ar    1  UNL1       -0.0553
     20 C          -1.5776   -0.7185    0.1411 C.ar    1  UNL1       -0.0091
     21 H          -2.8705    2.3857    1.9930 H       1  UNL1        0.0388
     22 H          -4.6297    2.0530    1.9626 H       1  UNL1        0.0388
     23 H          -3.7792    2.7603    0.4982 H       1  UNL1        0.0388
     24 H          -3.7984    0.5737   -0.0988 H       1  UNL1        0.1222
     25 H          -1.4349    0.7373    1.6902 H       1  UNL1        0.0511
     26 H          -1.7554    1.4736   -1.2681 H       1  UNL1        0.0299
     27 H          -1.7783    2.6633    0.1128 H       1  UNL1        0.0299
     28 H           0.4925    2.1471   -1.1599 H       1  UNL1        0.0468
     29 H           0.4838    2.1963    0.6568 H       1  UNL1        0.0468
     30 H           1.8374   -1.8807    0.9826 H       1  UNL1        0.0637
     31 H           4.2760   -2.1452    1.2460 H       1  UNL1        0.0633
     32 H           2.5479    1.9489   -0.7982 H       1  UNL1        0.0651
     33 H           1.1863   -2.0212   -1.2446 H       1  UNL1        0.0636
     34 H          -0.3567   -3.9720   -1.4656 H       1  UNL1        0.0618
     35 H          -2.7286   -3.7878   -0.6322 H       1  UNL1        0.0618
     36 H          -3.4500   -1.7013    0.3777 H       1  UNL1        0.0621
@<TRIPOS>BOND
     1     1     2    1
     2     2     3    1
     3     3     4    1
     4     4     5    1
     5     5     6    1
     6     6     7    1
     7     7     8   ar
     8     8     9   ar
     9     9    10   ar
    10    10    11    1
    11    10    12   ar
    12    12    13    1
    13    12    14   ar
    14     6    15    1
    15    15    16   ar
    16    16    17   ar
    17    17    18   ar
    18    18    19   ar
    19    19    20   ar
    20    20     3    1
    21    14     7   ar
    22    20    15   ar
    23     1    21    1
    24     1    22    1
    25     1    23    1
    26     2    24    1
    27     3    25    1
    28     4    26    1
    29     4    27    1
    30     5    28    1
    31     5    29    1
    32     8    30    1
    33     9    31    1
    34    14    32    1
    35    16    33    1
    36    17    34    1
    37    18    35    1
    38    19    36    1
