
     RDKit          3D

 36 38  0  0  0  0  0  0  0  0999 V2000
   -3.7107    2.0342    1.3469 C   0  0  0  0  0  0  0  0  0  0  0  0
   -3.3776    0.7299    0.8394 N   0  0  0  0  0  0  0  0  0  0  0  0
   -1.9532    0.6105    0.7225 C   0  0  2  0  0  0  0  0  0  0  0  0
   -1.3945    1.6559   -0.2232 C   0  0  0  0  0  0  0  0  0  0  0  0
    0.0945    1.6422   -0.2377 C   0  0  0  0  0  0  0  0  0  0  0  0
    0.6174    0.3002   -0.1596 N   0  0  0  0  0  0  0  0  0  0  0  0
    2.0244    0.0609    0.0614 C   0  0  0  0  0  0  0  0  0  0  0  0
    2.4898   -1.0924    0.6365 C   0  0  0  0  0  0  0  0  0  0  0  0
    3.8725   -1.2478    0.7965 C   0  0  0  0  0  0  0  0  0  0  0  0
    4.7760   -0.2840    0.3973 C   0  0  0  0  0  0  0  0  0  0  0  0
    6.5137   -0.5161    0.6157 Cl  0  0  0  0  0  0  0  0  0  0  0  0
    4.2922    0.8658   -0.1767 C   0  0  0  0  0  0  0  0  0  0  0  0
    5.4309    2.0899   -0.6838 Cl  0  0  0  0  0  0  0  0  0  0  0  0
    2.9120    1.0299   -0.3409 C   0  0  0  0  0  0  0  0  0  0  0  0
   -0.2579   -0.8029   -0.3141 C   0  0  0  0  0  0  0  0  0  0  0  0
    0.1541   -1.9722   -0.8837 C   0  0  0  0  0  0  0  0  0  0  0  0
   -0.7124   -3.0615   -1.0111 C   0  0  0  0  0  0  0  0  0  0  0  0
   -2.0117   -2.9818   -0.5628 C   0  0  0  0  0  0  0  0  0  0  0  0
   -2.4239   -1.7732    0.0205 C   0  0  0  0  0  0  0  0  0  0  0  0
   -1.5776   -0.7185    0.1411 C   0  0  0  0  0  0  0  0  0  0  0  0
   -2.8705    2.3857    1.9930 H   0  0  0  0  0  0  0  0  0  0  0  0
   -4.6297    2.0530    1.9626 H   0  0  0  0  0  0  0  0  0  0  0  0
   -3.7792    2.7603    0.4982 H   0  0  0  0  0  0  0  0  0  0  0  0
   -3.7984    0.5737   -0.0988 H   0  0  0  0  0  0  0  0  0  0  0  0
   -1.4349    0.7373    1.6902 H   0  0  0  0  0  0  0  0  0  0  0  0
   -1.7554    1.4736   -1.2681 H   0  0  0  0  0  0  0  0  0  0  0  0
   -1.7783    2.6633    0.1128 H   0  0  0  0  0  0  0  0  0  0  0  0
    0.4925    2.1471   -1.1599 H   0  0  0  0  0  0  0  0  0  0  0  0
    0.4838    2.1963    0.6568 H   0  0  0  0  0  0  0  0  0  0  0  0
    1.8374   -1.8807    0.9826 H   0  0  0  0  0  0  0  0  0  0  0  0
    4.2760   -2.1452    1.2460 H   0  0  0  0  0  0  0  0  0  0  0  0
    2.5479    1.9489   -0.7982 H   0  0  0  0  0  0  0  0  0  0  0  0
    1.1863   -2.0212   -1.2446 H   0  0  0  0  0  0  0  0  0  0  0  0
   -0.3567   -3.9720   -1.4656 H   0  0  0  0  0  0  0  0  0  0  0  0
   -2.7286   -3.7878   -0.6322 H   0  0  0  0  0  0  0  0  0  0  0  0
   -3.4500   -1.7013    0.3777 H   0  0  0  0  0  0  0  0  0  0  0  0
  1  2  1  0
  2  3  1  0
  3  4  1  0
  4  5  1  0
  5  6  1  0
  6  7  1  0
  7  8  2  0
  8  9  1  0
  9 10  2  0
 10 11  1  0
 10 12  1  0
 12 13  1  0
 12 14  2  0
  6 15  1  0
 15 16  2  0
 16 17  1  0
 17 18  2  0
 18 19  1  0
 19 20  2  0
 20  3  1  0
 14  7  1  0
 20 15  1  0
  1 21  1  0
  1 22  1  0
  1 23  1  0
  2 24  1  0
  3 25  1  1
  4 26  1  0
  4 27  1  0
  5 28  1  0
  5 29  1  0
  8 30  1  0
  9 31  1  0
 14 32  1  0
 16 33  1  0
 17 34  1  0
 18 35  1  0
 19 36  1  0
M  END
$$$$
