@<TRIPOS>MOLECULE
*****
 68 71 0 0 0
SMALL
GASTEIGER

@<TRIPOS>ATOM
      1 C           6.8832    4.7564   -1.3653 C.3     1  UNL1       -0.0223
      2 C           6.7580    3.3565   -0.8296 C.ar    1  UNL1        0.0393
      3 C           5.5354    2.8360   -0.4759 C.ar    1  UNL1       -0.0337
      4 C           5.4515    1.5408    0.0160 C.ar    1  UNL1        0.0004
      5 C           4.1274    0.9788    0.4033 C.3     1  UNL1        0.1153
      6 O           3.6978    0.0751   -0.5835 O.3     1  UNL1       -0.4874
      7 C           2.4687   -0.5768   -0.4246 C.ar    1  UNL1        0.1211
      8 C           1.6936   -0.3307    0.6889 C.ar    1  UNL1       -0.0181
      9 C           0.4934   -0.9835    0.8189 C.ar    1  UNL1       -0.0334
     10 C           0.0619   -1.8692   -0.1384 C.ar    1  UNL1        0.0885
     11 S          -1.4915   -2.6802    0.0790 S.O2    1  UNL1       -0.0013
     12 O          -1.7960   -2.7025    1.5467 O.2     1  UNL1       -0.1693
     13 O          -1.4600   -4.0388   -0.5372 O.2     1  UNL1       -0.1693
     14 C          -2.7408   -1.6367   -0.7022 C.3     1  UNL1        0.0917
     15 C          -4.0865   -2.2666   -0.5360 C.3     1  UNL1        0.0725
     16 C          -5.2414   -1.5776   -1.1245 C.3     1  UNL1       -0.0276
     17 C          -5.6611   -0.2256   -0.8101 C.3     1  UNL1       -0.0391
     18 C          -4.6757    0.8802   -1.1086 C.3     1  UNL1       -0.0481
     19 C          -4.3625    1.6328    0.1790 C.3     1  UNL1       -0.0270
     20 C          -5.6265    2.3598    0.5918 C.3     1  UNL1        0.0921
     21 N          -5.4502    2.7569    1.9611 N.2     1  UNL1       -0.0657
     22 O          -5.7994    3.8604    2.2497 O.2     1  UNL1       -0.1487
     23 C          -6.8551    1.4914    0.4007 C.3     1  UNL1       -0.0270
     24 C          -6.3310    0.0363    0.5190 C.3     1  UNL1       -0.0481
     25 N          -4.2769   -2.8861    0.7481 N.am    1  UNL1       -0.1817
     26 O          -4.3499   -2.1338    1.8633 O.3     1  UNL1       -0.2924
     27 C          -4.3753   -4.2977    0.9240 C.2     1  UNL1        0.2253
     28 O          -4.3086   -5.0625   -0.0695 O.2     1  UNL1       -0.2772
     29 C           0.8061   -2.1366   -1.2558 C.ar    1  UNL1       -0.0334
     30 C           2.0248   -1.4734   -1.3870 C.ar    1  UNL1       -0.0181
     31 C           6.5771    0.7560    0.1592 C.ar    1  UNL1        0.0068
     32 C           6.4927   -0.5353    0.6487 C.ar    1  UNL1       -0.0522
     33 C           7.6364   -1.2881    0.7772 C.ar    1  UNL1       -0.0611
     34 C           8.8475   -0.7377    0.4140 C.ar    1  UNL1       -0.0597
     35 C           8.9223    0.5435   -0.0706 C.ar    1  UNL1       -0.0357
     36 C           7.7945    1.3205   -0.2102 C.ar    1  UNL1        0.0716
     37 N           7.8436    2.5784   -0.6834 N.ar    1  UNL1       -0.2519
     38 H           7.0949    5.3868   -0.4625 H       1  UNL1        0.0292
     39 H           7.6905    4.7687   -2.0958 H       1  UNL1        0.0292
     40 H           5.9335    5.0845   -1.8312 H       1  UNL1        0.0292
     41 H           4.6437    3.4524   -0.5878 H       1  UNL1        0.0639
     42 H           4.2004    0.4964    1.3869 H       1  UNL1        0.0748
     43 H           3.3770    1.8189    0.4274 H       1  UNL1        0.0748
     44 H           2.0078    0.3616    1.4599 H       1  UNL1        0.0655
     45 H          -0.1152   -0.7791    1.7104 H       1  UNL1        0.0638
     46 H          -2.6387   -0.6774   -0.1434 H       1  UNL1        0.0523
     47 H          -2.4250   -1.4964   -1.7277 H       1  UNL1        0.0523
     48 H          -3.9955   -3.2075   -1.2266 H       1  UNL1        0.0541
     49 H          -5.0764   -1.6134   -2.2599 H       1  UNL1        0.0287
     50 H          -6.1182   -2.3061   -1.0311 H       1  UNL1        0.0287
     51 H          -6.5283   -0.0057   -1.5427 H       1  UNL1        0.0301
     52 H          -3.7984    0.5893   -1.6771 H       1  UNL1        0.0269
     53 H          -5.1538    1.6922   -1.7572 H       1  UNL1        0.0269
     54 H          -3.9128    1.0237    0.9568 H       1  UNL1        0.0287
     55 H          -3.6298    2.4336   -0.0971 H       1  UNL1        0.0287
     56 H          -5.7355    3.2367   -0.0680 H       1  UNL1        0.0578
     57 H          -7.3795    1.6531   -0.5391 H       1  UNL1        0.0287
     58 H          -7.4891    1.6351    1.2999 H       1  UNL1        0.0287
     59 H          -7.2246   -0.5765    0.6174 H       1  UNL1        0.0269
     60 H          -5.6667    0.0892    1.3770 H       1  UNL1        0.0269
     61 H          -4.7346   -2.5970    2.6300 H       1  UNL1        0.2417
     62 H          -4.5078   -4.7625    1.8891 H       1  UNL1        0.1274
     63 H           0.5124   -2.8203   -2.0319 H       1  UNL1        0.0638
     64 H           2.6250   -1.6708   -2.2606 H       1  UNL1        0.0655
     65 H           5.5458   -0.9455    0.9245 H       1  UNL1        0.0624
     66 H           7.6093   -2.3058    1.1571 H       1  UNL1        0.0618
     67 H           9.7865   -1.2825    0.4929 H       1  UNL1        0.0618
     68 H           9.8758    1.0040   -0.3665 H       1  UNL1        0.0639
@<TRIPOS>BOND
     1     1     2    1
     2     2     3   ar
     3     3     4   ar
     4     4     5    1
     5     5     6    1
     6     6     7    1
     7     7     8   ar
     8     8     9   ar
     9     9    10   ar
    10    10    11    1
    11    11    12    2
    12    11    13    2
    13    11    14    1
    14    14    15    1
    15    15    16    1
    16    16    17    1
    17    17    18    1
    18    18    19    1
    19    19    20    1
    20    20    21    1
    21    21    22    2
    22    20    23    1
    23    23    24    1
    24    15    25    1
    25    25    26    1
    26    25    27   am
    27    27    28    2
    28    10    29   ar
    29    29    30   ar
    30     4    31   ar
    31    31    32   ar
    32    32    33   ar
    33    33    34   ar
    34    34    35   ar
    35    35    36   ar
    36    36    37   ar
    37    37     2   ar
    38    30     7   ar
    39    36    31   ar
    40    24    17    1
    41     1    38    1
    42     1    39    1
    43     1    40    1
    44     3    41    1
    45     5    42    1
    46     5    43    1
    47     8    44    1
    48     9    45    1
    49    14    46    1
    50    14    47    1
    51    15    48    1
    52    16    49    1
    53    16    50    1
    54    17    51    1
    55    18    52    1
    56    18    53    1
    57    19    54    1
    58    19    55    1
    59    20    56    1
    60    23    57    1
    61    23    58    1
    62    24    59    1
    63    24    60    1
    64    26    61    1
    65    27    62    1
    66    29    63    1
    67    30    64    1
    68    32    65    1
    69    33    66    1
    70    34    67    1
    71    35    68    1
