@<TRIPOS>MOLECULE
*****
 72 75 0 0 0
SMALL
GASTEIGER

@<TRIPOS>ATOM
      1 C          -3.4256    3.7565    0.3868 C.2     1  UNL1       -0.1020
      2 C          -2.3881    3.0203    0.7577 C.2     1  UNL1       -0.0826
      3 C          -2.5261    1.5299    0.9396 C.3     1  UNL1        0.0152
      4 C          -3.7417    1.4424    1.8753 C.3     1  UNL1       -0.0536
      5 C          -1.3693    1.0417    1.6918 C.3     1  UNL1       -0.0039
      6 C          -0.1310    0.6666    0.9329 C.3     1  UNL1        0.1102
      7 O           1.0369    1.0638    1.6686 O.3     1  UNL1       -0.4602
      8 C           1.8639    2.1068    1.3829 C.2     1  UNL1        0.3177
      9 O           1.6221    2.8074    0.4065 O.2     1  UNL1       -0.2499
     10 C           3.0578    2.4241    2.2206 C.3     1  UNL1        0.0957
     11 S           4.2876    1.1269    2.2217 S.3     1  UNL1       -0.1123
     12 C           5.0777    0.9079    0.6605 C.ar    1  UNL1        0.0282
     13 C           4.8580    1.6667   -0.4591 C.ar    1  UNL1        0.0411
     14 N           5.5207    1.3968   -1.6220 N.ar    1  UNL1       -0.2603
     15 C           6.4078    0.3896   -1.7258 C.ar    1  UNL1        0.0482
     16 C           6.6622   -0.4002   -0.6284 C.ar    1  UNL1        0.0440
     17 N           7.5951   -1.4637   -0.7331 N.pl3   1  UNL1       -0.3568
     18 C           5.9960   -0.1276    0.5379 C.ar    1  UNL1       -0.0247
     19 C          -0.0537   -0.7439    0.4173 C.3     1  UNL1        0.0176
     20 C           0.9781   -1.4254    1.3479 C.3     1  UNL1       -0.0553
     21 C           0.5000   -0.9189   -0.9495 C.3     1  UNL1       -0.0344
     22 C           1.2979    0.2454   -1.4977 C.3     1  UNL1       -0.0618
     23 C          -0.4732   -1.2854   -2.0326 C.3     1  UNL1       -0.0493
     24 C          -1.6077   -2.1425   -1.6514 C.3     1  UNL1       -0.0461
     25 C          -2.3185   -1.4874   -0.4505 C.3     1  UNL1       -0.0138
     26 C          -3.2590   -2.6376   -0.0205 C.3     1  UNL1       -0.0397
     27 C          -2.3932   -3.6472    0.6442 C.3     1  UNL1        0.0067
     28 C          -1.0534   -3.0099    0.6990 C.2     1  UNL1        0.1376
     29 O          -0.0729   -3.6985    0.7805 O.2     1  UNL1       -0.2971
     30 C          -1.3200   -1.5466    0.6310 C.3     1  UNL1        0.0324
     31 C          -3.1134   -0.3311   -0.7546 C.3     1  UNL1       -0.0107
     32 C          -4.6173   -0.6167   -0.4857 C.3     1  UNL1       -0.0595
     33 C          -2.8075    1.0431   -0.4163 C.3     1  UNL1        0.0672
     34 O          -1.9401    1.7166   -1.3168 O.3     1  UNL1       -0.3907
     35 H          -3.3092    4.8264    0.2606 H       1  UNL1        0.0532
     36 H          -4.4117    3.3574    0.1937 H       1  UNL1        0.0532
     37 H          -1.4438    3.4722    0.9309 H       1  UNL1        0.0573
     38 H          -3.5276    2.2084    2.6797 H       1  UNL1        0.0239
     39 H          -3.7478    0.4834    2.4255 H       1  UNL1        0.0239
     40 H          -4.6722    1.7425    1.4061 H       1  UNL1        0.0239
     41 H          -1.6567    0.3604    2.5154 H       1  UNL1        0.0310
     42 H          -0.9944    1.9190    2.3293 H       1  UNL1        0.0310
     43 H          -0.1060    1.4089    0.1028 H       1  UNL1        0.0740
     44 H           3.4405    3.4068    1.9258 H       1  UNL1        0.0494
     45 H           2.7239    2.5501    3.2958 H       1  UNL1        0.0494
     46 H           4.1693    2.4734   -0.4129 H       1  UNL1        0.0841
     47 H           6.9130    0.2059   -2.6629 H       1  UNL1        0.0848
     48 H           7.2476   -2.4395   -0.6805 H       1  UNL1        0.1424
     49 H           8.6172   -1.3205   -0.8608 H       1  UNL1        0.1424
     50 H           6.2004   -0.7538    1.3997 H       1  UNL1        0.0648
     51 H           1.7299   -0.6478    1.5911 H       1  UNL1        0.0237
     52 H           1.6041   -2.1608    0.7713 H       1  UNL1        0.0237
     53 H           0.5265   -1.8189    2.2416 H       1  UNL1        0.0237
     54 H           1.2709   -1.7613   -0.9785 H       1  UNL1        0.0305
     55 H           2.2253    0.4268   -0.9251 H       1  UNL1        0.0233
     56 H           0.7055    1.1286   -1.7369 H       1  UNL1        0.0233
     57 H           1.6871   -0.1177   -2.5016 H       1  UNL1        0.0233
     58 H          -0.8554   -0.4130   -2.6130 H       1  UNL1        0.0268
     59 H           0.0810   -1.8558   -2.8458 H       1  UNL1        0.0268
     60 H          -1.3221   -3.1896   -1.3689 H       1  UNL1        0.0271
     61 H          -2.3397   -2.1590   -2.4691 H       1  UNL1        0.0271
     62 H          -4.0301   -2.3211    0.6708 H       1  UNL1        0.0275
     63 H          -3.7089   -3.1247   -0.9143 H       1  UNL1        0.0275
     64 H          -2.3702   -4.6284    0.1236 H       1  UNL1        0.0342
     65 H          -2.7102   -3.8332    1.7035 H       1  UNL1        0.0342
     66 H          -1.8356   -1.3572    1.5693 H       1  UNL1        0.0389
     67 H          -3.1521   -0.3043   -1.9073 H       1  UNL1        0.0329
     68 H          -5.1581    0.2193   -1.0278 H       1  UNL1        0.0233
     69 H          -4.8803   -0.4841    0.5585 H       1  UNL1        0.0233
     70 H          -4.9530   -1.5308   -0.9725 H       1  UNL1        0.0233
     71 H          -3.7723    1.6065   -0.6885 H       1  UNL1        0.0604
     72 H          -2.3350    1.5556   -2.2157 H       1  UNL1        0.2098
@<TRIPOS>BOND
     1     1     2    2
     2     2     3    1
     3     3     4    1
     4     3     5    1
     5     5     6    1
     6     6     7    1
     7     7     8    1
     8     8     9    2
     9     8    10    1
    10    10    11    1
    11    11    12    1
    12    12    13   ar
    13    13    14   ar
    14    14    15   ar
    15    15    16   ar
    16    16    17    1
    17    16    18   ar
    18     6    19    1
    19    19    20    1
    20    19    21    1
    21    21    22    1
    22    21    23    1
    23    23    24    1
    24    25    24    1
    25    25    26    1
    26    26    27    1
    27    27    28    1
    28    28    29    2
    29    28    30    1
    30    25    31    1
    31    31    32    1
    32    31    33    1
    33    33    34    1
    34    33     3    1
    35    18    12   ar
    36    30    19    1
    37    30    25    1
    38     1    35    1
    39     1    36    1
    40     2    37    1
    41     4    38    1
    42     4    39    1
    43     4    40    1
    44     5    41    1
    45     5    42    1
    46     6    43    1
    47    10    44    1
    48    10    45    1
    49    13    46    1
    50    15    47    1
    51    17    48    1
    52    17    49    1
    53    18    50    1
    54    20    51    1
    55    20    52    1
    56    20    53    1
    57    21    54    1
    58    22    55    1
    59    22    56    1
    60    22    57    1
    61    23    58    1
    62    23    59    1
    63    24    60    1
    64    24    61    1
    65    26    62    1
    66    26    63    1
    67    27    64    1
    68    27    65    1
    69    30    66    1
    70    31    67    1
    71    32    68    1
    72    32    69    1
    73    32    70    1
    74    33    71    1
    75    34    72    1
