@<TRIPOS>MOLECULE
*****
 71 78 0 0 0
SMALL
GASTEIGER

@<TRIPOS>ATOM
      1 C           5.3842    1.3331   -1.2501 C.3     1  UNL1       -0.0653
      2 C           6.3971    0.2084   -1.3344 C.3     1  UNL1       -0.0559
      3 C           6.6159   -0.3419    0.0315 C.3     1  UNL1       -0.0532
      4 C           5.2972   -0.8820    0.6296 C.3     1  UNL1       -0.0500
      5 C           4.7294   -1.9641   -0.1967 C.3     1  UNL1       -0.0185
      6 C           3.5083   -2.6271    0.3048 C.3     1  UNL1        0.0926
      7 O           2.3709   -1.9280    0.5577 O.3     1  UNL1       -0.4625
      8 C           2.0149   -1.0189    1.4920 C.2     1  UNL1        0.3442
      9 O           2.8589   -0.7093    2.3649 O.2     1  UNL1       -0.2474
     10 C           0.6842   -0.3520    1.5629 C.3     1  UNL1        0.2144
     11 O           0.6153    0.5331    2.6319 O.3     1  UNL1       -0.3737
     12 C          -0.3383   -1.4540    1.6728 C.3     1  UNL1        0.0368
     13 C          -0.5316   -1.8270    0.2041 C.3     1  UNL1        0.1420
     14 O           0.0767   -0.8787   -0.5423 O.3     1  UNL1       -0.3273
     15 C           0.3761    0.2531    0.2517 C.3     1  UNL1        0.1860
     16 C           1.5935    0.8425   -0.4439 C.3     1  UNL1       -0.0128
     17 N          -0.7812    1.1281    0.2236 N.ar    1  UNL1       -0.3064
     18 C          -0.7755    2.4768    0.2970 C.ar    1  UNL1        0.0527
     19 C           0.2189    3.4087    0.4788 C.ar    1  UNL1       -0.0375
     20 C          -0.0878    4.7697    0.5227 C.ar    1  UNL1       -0.0598
     21 C          -1.3906    5.2234    0.3869 C.ar    1  UNL1       -0.0611
     22 C          -2.3990    4.3007    0.2051 C.ar    1  UNL1       -0.0520
     23 C          -2.0921    2.9553    0.1620 C.ar    1  UNL1        0.0081
     24 C          -2.8886    1.8657    0.0104 C.ar    1  UNL1        0.0151
     25 C          -4.2473    1.6908   -0.1643 C.ar    1  UNL1       -0.0078
     26 C          -4.8113    0.4160   -0.2961 C.ar    1  UNL1        0.0518
     27 C          -3.9701   -0.6858   -0.2459 C.ar    1  UNL1        0.0221
     28 C          -4.1626   -2.0483   -0.3128 C.ar    1  UNL1        0.0085
     29 C          -5.2360   -2.8615   -0.4745 C.ar    1  UNL1       -0.0520
     30 C          -5.0418   -4.2405   -0.4923 C.ar    1  UNL1       -0.0611
     31 C          -3.8024   -4.8141   -0.3521 C.ar    1  UNL1       -0.0598
     32 C          -2.7035   -4.0032   -0.1872 C.ar    1  UNL1       -0.0375
     33 C          -2.8904   -2.6301   -0.1688 C.ar    1  UNL1        0.0524
     34 N          -1.9740   -1.6828   -0.0232 N.ar    1  UNL1       -0.3114
     35 C          -2.5938   -0.4914   -0.0684 C.ar    1  UNL1        0.0774
     36 C          -2.0818    0.7842    0.0530 C.ar    1  UNL1        0.0772
     37 C          -6.2437    0.5265   -0.4685 C.2     1  UNL1        0.2453
     38 O          -7.1349   -0.3316   -0.6209 O.2     1  UNL1       -0.2702
     39 N          -6.5199    1.9281   -0.4347 N.am    1  UNL1       -0.3072
     40 C          -5.3120    2.6725   -0.2455 C.3     1  UNL1        0.0385
     41 H           4.3917    1.0224   -1.6365 H       1  UNL1        0.0230
     42 H           5.2560    1.7322   -0.2424 H       1  UNL1        0.0230
     43 H           5.7350    2.1586   -1.9030 H       1  UNL1        0.0230
     44 H           7.3732    0.6224   -1.6982 H       1  UNL1        0.0263
     45 H           6.1047   -0.5848   -2.0290 H       1  UNL1        0.0263
     46 H           6.9326    0.4557    0.7395 H       1  UNL1        0.0265
     47 H           7.3364   -1.1640    0.0841 H       1  UNL1        0.0265
     48 H           4.5581   -0.0109    0.5867 H       1  UNL1        0.0266
     49 H           5.4825   -1.0885    1.6723 H       1  UNL1        0.0266
     50 H           5.5398   -2.7405   -0.3984 H       1  UNL1        0.0298
     51 H           4.5451   -1.5817   -1.2582 H       1  UNL1        0.0298
     52 H           3.2072   -3.4706   -0.4118 H       1  UNL1        0.0697
     53 H           3.8082   -3.2041    1.2341 H       1  UNL1        0.0697
     54 H           1.4534    1.0197    2.7664 H       1  UNL1        0.2111
     55 H          -1.2481   -1.0620    2.1377 H       1  UNL1        0.0344
     56 H           0.0649   -2.3322    2.2400 H       1  UNL1        0.0344
     57 H          -0.2130   -2.8600    0.0129 H       1  UNL1        0.0840
     58 H           1.2685    1.6037   -1.1730 H       1  UNL1        0.0277
     59 H           2.0920    0.0600   -1.1161 H       1  UNL1        0.0277
     60 H           2.3933    1.1557    0.2169 H       1  UNL1        0.0277
     61 H           1.2175    3.0805    0.6013 H       1  UNL1        0.0638
     62 H           0.7072    5.4621    0.6642 H       1  UNL1        0.0618
     63 H          -1.6685    6.2652    0.4149 H       1  UNL1        0.0618
     64 H          -3.4110    4.5898    0.0961 H       1  UNL1        0.0624
     65 H          -6.2144   -2.4532   -0.5870 H       1  UNL1        0.0624
     66 H          -5.9315   -4.8415   -0.6240 H       1  UNL1        0.0618
     67 H          -3.6530   -5.8831   -0.3660 H       1  UNL1        0.0618
     68 H          -1.7128   -4.4153   -0.0738 H       1  UNL1        0.0638
     69 H          -7.5084    2.3243   -0.5403 H       1  UNL1        0.1493
     70 H          -5.4544    3.2818    0.6683 H       1  UNL1        0.0512
     71 H          -5.1836    3.3141   -1.1520 H       1  UNL1        0.0512
@<TRIPOS>BOND
     1     1     2    1
     2     2     3    1
     3     3     4    1
     4     4     5    1
     5     5     6    1
     6     6     7    1
     7     7     8    1
     8     8     9    2
     9     8    10    1
    10    10    11    1
    11    10    12    1
    12    12    13    1
    13    13    14    1
    14    14    15    1
    15    15    16    1
    16    15    17    1
    17    17    18   ar
    18    18    19   ar
    19    19    20   ar
    20    20    21   ar
    21    21    22   ar
    22    22    23   ar
    23    23    24   ar
    24    24    25   ar
    25    25    26   ar
    26    26    27   ar
    27    27    28   ar
    28    28    29   ar
    29    29    30   ar
    30    30    31   ar
    31    31    32   ar
    32    32    33   ar
    33    33    34   ar
    34    34    35   ar
    35    35    36   ar
    36    26    37    1
    37    37    38    2
    38    37    39   am
    39    39    40    1
    40    15    10    1
    41    36    17   ar
    42    34    13    1
    43    23    18   ar
    44    36    24   ar
    45    40    25    1
    46    35    27   ar
    47    33    28   ar
    48     1    41    1
    49     1    42    1
    50     1    43    1
    51     2    44    1
    52     2    45    1
    53     3    46    1
    54     3    47    1
    55     4    48    1
    56     4    49    1
    57     5    50    1
    58     5    51    1
    59     6    52    1
    60     6    53    1
    61    11    54    1
    62    12    55    1
    63    12    56    1
    64    13    57    1
    65    16    58    1
    66    16    59    1
    67    16    60    1
    68    19    61    1
    69    20    62    1
    70    21    63    1
    71    22    64    1
    72    29    65    1
    73    30    66    1
    74    31    67    1
    75    32    68    1
    76    39    69    1
    77    40    70    1
    78    40    71    1
