
     RDKit          3D

 48 50  0  0  0  0  0  0  0  0999 V2000
    0.5512   -1.4580   -0.2196 C   0  0  1  0  0  0  0  0  0  0  0  0
    1.8168   -0.6817   -0.1133 C   0  0  0  0  0  0  0  0  0  0  0  0
    2.2378   -0.6622    1.2000 O   0  0  0  0  0  0  0  0  0  0  0  0
    3.6629    0.1933    1.4178 P   0  0  0  0  0  0  0  0  0  0  0  0
    4.6328    0.0599    0.0166 O   0  0  0  0  0  0  0  0  0  0  0  0
    4.4193   -0.2822    2.6397 O   0  0  0  0  0  0  0  0  0  0  0  0
    3.4064    1.8587    1.6327 O   0  0  0  0  0  0  0  0  0  0  0  0
    4.9142    2.6340    1.4844 P   0  0  0  0  0  0  0  0  0  0  0  0
    6.1088    1.7489    2.3091 O   0  0  0  0  0  0  0  0  0  0  0  0
    5.3088    2.7146   -0.1552 O   0  0  0  0  0  0  0  0  0  0  0  0
    4.8691    4.0023    2.1083 O   0  0  0  0  0  0  0  0  0  0  0  0
   -0.4849   -0.9107    0.5564 O   0  0  0  0  0  0  0  0  0  0  0  0
   -1.6234   -1.5732    0.1624 C   0  0  1  0  0  0  0  0  0  0  0  0
   -2.8489   -0.8335    0.3666 N   0  0  0  0  0  0  0  0  0  0  0  0
   -3.9378   -1.1782   -0.3799 C   0  0  0  0  0  0  0  0  0  0  0  0
   -4.9468   -0.3641   -0.0219 N   0  0  0  0  0  0  0  0  0  0  0  0
   -4.5570    0.4926    0.9244 C   0  0  0  0  0  0  0  0  0  0  0  0
   -3.2323    0.1897    1.1637 C   0  0  0  0  0  0  0  0  0  0  0  0
   -2.4469    0.8214    2.0568 N   0  0  0  0  0  0  0  0  0  0  0  0
   -3.0497    1.8226    2.7475 C   0  0  0  0  0  0  0  0  0  0  0  0
   -2.3173    2.4586    3.6238 N   0  0  0  0  0  0  0  0  0  0  0  0
   -4.3542    2.1579    2.5462 N   0  0  0  0  0  0  0  0  0  0  0  0
   -5.1276    1.5173    1.6495 C   0  0  0  0  0  0  0  0  0  0  0  0
   -6.4591    1.8398    1.4258 O   0  0  0  0  0  0  0  0  0  0  0  0
   -1.4382   -1.9595   -1.2893 C   0  0  2  0  0  0  0  0  0  0  0  0
   -1.2683   -3.3377   -1.4175 O   0  0  0  0  0  0  0  0  0  0  0  0
   -0.0895   -1.3312   -1.5961 C   0  0  2  0  0  0  0  0  0  0  0  0
    0.6122   -1.9954   -2.5684 O   0  0  0  0  0  0  0  0  0  0  0  0
    1.1105   -0.8672   -3.7305 P   0  0  0  0  0  0  0  0  0  0  0  0
    0.4900   -1.2484   -5.2547 O   0  0  0  0  0  0  0  0  0  0  0  0
    0.5868    0.7050   -3.3486 O   0  0  0  0  0  0  0  0  0  0  0  0
    2.6113   -0.9096   -3.7887 O   0  0  0  0  0  0  0  0  0  0  0  0
    0.6402   -2.5362   -0.0395 H   0  0  0  0  0  0  0  0  0  0  0  0
    1.5963    0.3566   -0.4291 H   0  0  0  0  0  0  0  0  0  0  0  0
    2.5620   -1.1767   -0.7587 H   0  0  0  0  0  0  0  0  0  0  0  0
    4.8587   -0.8975   -0.1740 H   0  0  0  0  0  0  0  0  0  0  0  0
    6.3025    0.9279    1.8152 H   0  0  0  0  0  0  0  0  0  0  0  0
    5.1484    3.6616   -0.4655 H   0  0  0  0  0  0  0  0  0  0  0  0
   -1.6580   -2.5239    0.7690 H   0  0  0  0  0  0  0  0  0  0  0  0
   -4.1958   -1.9035   -1.1528 H   0  0  0  0  0  0  0  0  0  0  0  0
   -1.4474    0.5678    2.2141 H   0  0  0  0  0  0  0  0  0  0  0  0
   -2.7824    3.2359    4.1612 H   0  0  0  0  0  0  0  0  0  0  0  0
   -7.2121    1.2011    1.6732 H   0  0  0  0  0  0  0  0  0  0  0  0
   -2.2502   -1.5900   -1.9386 H   0  0  0  0  0  0  0  0  0  0  0  0
   -1.2445   -3.8045   -0.5476 H   0  0  0  0  0  0  0  0  0  0  0  0
   -0.1743   -0.2372   -1.7775 H   0  0  0  0  0  0  0  0  0  0  0  0
    0.0485   -2.1244   -5.2911 H   0  0  0  0  0  0  0  0  0  0  0  0
    0.6511    1.2192   -4.2064 H   0  0  0  0  0  0  0  0  0  0  0  0
  1  2  1  0
  2  3  1  0
  3  4  1  0
  4  5  1  0
  4  6  2  0
  4  7  1  0
  7  8  1  0
  8  9  1  0
  8 10  1  0
  8 11  2  0
  1 12  1  0
 12 13  1  0
 13 14  1  0
 14 15  1  0
 15 16  2  0
 16 17  1  0
 17 18  2  0
 18 19  1  0
 19 20  1  0
 20 21  2  3
 20 22  1  0
 22 23  2  0
 23 24  1  0
 13 25  1  0
 25 26  1  0
 25 27  1  0
 27 28  1  0
 28 29  1  0
 29 30  1  0
 29 31  1  0
 29 32  2  0
 27  1  1  0
 18 14  1  0
 23 17  1  0
  1 33  1  1
  2 34  1  0
  2 35  1  0
  5 36  1  0
  9 37  1  0
 10 38  1  0
 13 39  1  1
 15 40  1  0
 19 41  1  0
 21 42  1  0
 24 43  1  0
 25 44  1  6
 26 45  1  0
 27 46  1  6
 30 47  1  0
 31 48  1  0
M  END
$$$$
