
     RDKit          3D

 74 80  0  0  0  0  0  0  0  0999 V2000
    6.1371   -4.6478   -0.3502 C   0  0  0  0  0  0  0  0  0  0  0  0
    5.6684   -3.3302   -0.5945 O   0  0  0  0  0  0  0  0  0  0  0  0
    6.5189   -2.2854   -0.2217 C   0  0  0  0  0  0  0  0  0  0  0  0
    7.7516   -2.4993    0.3534 C   0  0  0  0  0  0  0  0  0  0  0  0
    8.5536   -1.4395    0.7017 C   0  0  0  0  0  0  0  0  0  0  0  0
    8.1395   -0.1140    0.4816 C   0  0  0  0  0  0  0  0  0  0  0  0
    6.9231    0.1279   -0.0828 C   0  0  0  0  0  0  0  0  0  0  0  0
    6.1486   -0.9856   -0.4192 C   0  0  0  0  0  0  0  0  0  0  0  0
    6.7245    1.5439   -0.1490 C   0  0  1  0  0  0  0  0  0  0  0  0
    6.2355    2.1147   -1.4749 C   0  0  0  0  0  0  0  0  0  0  0  0
    5.5831    2.3773   -0.0676 C   0  0  1  0  0  0  0  0  0  0  0  0
    4.1552    2.2009   -0.1593 C   0  0  0  0  0  0  0  0  0  0  0  0
    3.4043    1.1294    0.2746 C   0  0  0  0  0  0  0  0  0  0  0  0
    2.0165    1.0643    0.1153 C   0  0  0  0  0  0  0  0  0  0  0  0
    1.3571    2.0954   -0.4926 C   0  0  0  0  0  0  0  0  0  0  0  0
    0.0218    2.3300   -0.7904 C   0  0  0  0  0  0  0  0  0  0  0  0
   -1.0709    1.4085   -0.4817 C   0  0  0  0  0  0  0  0  0  0  0  0
   -2.3292    1.6852   -0.7694 C   0  0  0  0  0  0  0  0  0  0  0  0
   -3.4649    0.8213   -0.4941 C   0  0  0  0  0  0  0  0  0  0  0  0
   -4.7282    1.2873   -0.8489 C   0  0  0  0  0  0  0  0  0  0  0  0
   -5.8683    0.5324   -0.6260 C   0  0  0  0  0  0  0  0  0  0  0  0
   -5.7955   -0.7135   -0.0423 C   0  0  0  0  0  0  0  0  0  0  0  0
   -7.0010   -1.5348    0.2166 C   0  0  2  0  0  0  0  0  0  0  0  0
   -7.4113   -2.2710   -1.0371 C   0  0  0  0  0  0  0  0  0  0  0  0
   -8.0620   -0.9088    0.9001 N   0  0  0  0  0  0  0  0  0  0  0  0
   -8.8585    0.0532    0.2563 C   0  0  0  0  0  0  0  0  0  0  0  0
  -10.3009   -0.1220    0.7739 C   0  0  0  0  0  0  0  0  0  0  0  0
  -10.7991   -1.3792    0.4417 O   0  0  0  0  0  0  0  0  0  0  0  0
  -10.0137   -2.4058    0.9223 C   0  0  0  0  0  0  0  0  0  0  0  0
   -8.8139   -1.8761    1.6432 C   0  0  0  0  0  0  0  0  0  0  0  0
   -4.5247   -1.1369    0.2934 C   0  0  0  0  0  0  0  0  0  0  0  0
   -3.3769   -0.4044    0.0817 C   0  0  0  0  0  0  0  0  0  0  0  0
   -0.0321    3.5277   -1.3958 N   0  0  0  0  0  0  0  0  0  0  0  0
    1.1657    4.0453   -1.4923 N   0  0  0  0  0  0  0  0  0  0  0  0
    2.0602    3.2026   -0.9503 C   0  0  0  0  0  0  0  0  0  0  0  0
    3.4051    3.2189   -0.7730 C   0  0  0  0  0  0  0  0  0  0  0  0
    8.0231    2.1369    0.2374 C   0  0  0  0  0  0  0  0  0  0  0  0
    8.3557    3.3660    0.1713 O   0  0  0  0  0  0  0  0  0  0  0  0
    8.8468    1.1035    0.6987 N   0  0  0  0  0  0  0  0  0  0  0  0
   10.1946    1.2210    1.2996 C   0  0  0  0  0  0  0  0  0  0  0  0
    5.4296   -5.4266   -0.6338 H   0  0  0  0  0  0  0  0  0  0  0  0
    7.1044   -4.7777   -0.9133 H   0  0  0  0  0  0  0  0  0  0  0  0
    6.4507   -4.7344    0.7312 H   0  0  0  0  0  0  0  0  0  0  0  0
    8.0862   -3.5315    0.5310 H   0  0  0  0  0  0  0  0  0  0  0  0
    9.5398   -1.5947    1.1613 H   0  0  0  0  0  0  0  0  0  0  0  0
    5.1627   -0.8312   -0.8892 H   0  0  0  0  0  0  0  0  0  0  0  0
    6.7204    2.9681   -1.9327 H   0  0  0  0  0  0  0  0  0  0  0  0
    5.7556    1.3625   -2.1080 H   0  0  0  0  0  0  0  0  0  0  0  0
    5.8070    3.4508    0.2744 H   0  0  0  0  0  0  0  0  0  0  0  0
    3.9190    0.3384    0.7563 H   0  0  0  0  0  0  0  0  0  0  0  0
    1.4643    0.2143    0.4648 H   0  0  0  0  0  0  0  0  0  0  0  0
   -0.8618    0.4660   -0.0028 H   0  0  0  0  0  0  0  0  0  0  0  0
   -2.4835    2.6616   -1.2575 H   0  0  0  0  0  0  0  0  0  0  0  0
   -4.8192    2.2734   -1.3146 H   0  0  0  0  0  0  0  0  0  0  0  0
   -6.7949    0.9842   -0.9426 H   0  0  0  0  0  0  0  0  0  0  0  0
   -6.6420   -2.3519    0.9246 H   0  0  0  0  0  0  0  0  0  0  0  0
   -8.2789   -1.8015   -1.5391 H   0  0  0  0  0  0  0  0  0  0  0  0
   -7.5620   -3.3412   -0.8287 H   0  0  0  0  0  0  0  0  0  0  0  0
   -6.5670   -2.1981   -1.7519 H   0  0  0  0  0  0  0  0  0  0  0  0
   -8.9537   -0.0055   -0.8279 H   0  0  0  0  0  0  0  0  0  0  0  0
   -8.5943    1.0916    0.5813 H   0  0  0  0  0  0  0  0  0  0  0  0
  -10.9713    0.6254    0.2894 H   0  0  0  0  0  0  0  0  0  0  0  0
  -10.3603    0.0104    1.8575 H   0  0  0  0  0  0  0  0  0  0  0  0
   -9.7629   -3.0824    0.0873 H   0  0  0  0  0  0  0  0  0  0  0  0
  -10.5736   -3.0419    1.6603 H   0  0  0  0  0  0  0  0  0  0  0  0
   -9.1437   -1.4428    2.6051 H   0  0  0  0  0  0  0  0  0  0  0  0
   -8.1154   -2.7229    1.8959 H   0  0  0  0  0  0  0  0  0  0  0  0
   -4.4206   -2.1055    0.7521 H   0  0  0  0  0  0  0  0  0  0  0  0
   -2.3921   -0.7907    0.3687 H   0  0  0  0  0  0  0  0  0  0  0  0
    1.3966    4.9556   -1.9157 H   0  0  0  0  0  0  0  0  0  0  0  0
    3.9368    4.1087   -1.1456 H   0  0  0  0  0  0  0  0  0  0  0  0
   10.8992    0.9666    0.4820 H   0  0  0  0  0  0  0  0  0  0  0  0
   10.2989    0.5134    2.1552 H   0  0  0  0  0  0  0  0  0  0  0  0
   10.3869    2.2506    1.5999 H   0  0  0  0  0  0  0  0  0  0  0  0
  1  2  1  0
  2  3  1  0
  3  4  2  0
  4  5  1  0
  5  6  2  0
  6  7  1  0
  7  8  2  0
  7  9  1  0
  9 10  1  6
 10 11  1  0
 11 12  1  0
 12 13  2  0
 13 14  1  0
 14 15  2  0
 15 16  1  0
 16 17  1  0
 17 18  2  0
 18 19  1  0
 19 20  2  0
 20 21  1  0
 21 22  2  0
 22 23  1  0
 23 24  1  0
 23 25  1  0
 25 26  1  0
 26 27  1  0
 27 28  1  0
 28 29  1  0
 29 30  1  0
 22 31  1  0
 31 32  2  0
 16 33  2  0
 33 34  1  0
 34 35  1  0
 35 36  2  0
  9 37  1  0
 37 38  2  0
 37 39  1  0
 39 40  1  0
  8  3  1  0
 11  9  1  0
 36 12  1  0
 39  6  1  0
 35 15  1  0
 32 19  1  0
 30 25  1  0
  1 41  1  0
  1 42  1  0
  1 43  1  0
  4 44  1  0
  5 45  1  0
  8 46  1  0
 10 47  1  0
 10 48  1  0
 11 49  1  1
 13 50  1  0
 14 51  1  0
 17 52  1  0
 18 53  1  0
 20 54  1  0
 21 55  1  0
 23 56  1  1
 24 57  1  0
 24 58  1  0
 24 59  1  0
 26 60  1  0
 26 61  1  0
 27 62  1  0
 27 63  1  0
 29 64  1  0
 29 65  1  0
 30 66  1  0
 30 67  1  0
 31 68  1  0
 32 69  1  0
 34 70  1  0
 36 71  1  0
 40 72  1  0
 40 73  1  0
 40 74  1  0
M  END
$$$$
