@<TRIPOS>MOLECULE
*****
 74 80 0 0 0
SMALL
GASTEIGER

@<TRIPOS>ATOM
      1 C           6.1371   -4.6478   -0.3502 C.3     1  UNL1        0.0788
      2 O           5.6684   -3.3302   -0.5945 O.3     1  UNL1       -0.4951
      3 C           6.5189   -2.2854   -0.2217 C.ar    1  UNL1        0.1205
      4 C           7.7516   -2.4993    0.3534 C.ar    1  UNL1       -0.0182
      5 C           8.5536   -1.4395    0.7017 C.ar    1  UNL1       -0.0365
      6 C           8.1395   -0.1140    0.4816 C.ar    1  UNL1        0.0404
      7 C           6.9231    0.1279   -0.0828 C.ar    1  UNL1       -0.0070
      8 C           6.1486   -0.9856   -0.4192 C.ar    1  UNL1       -0.0140
      9 C           6.7245    1.5439   -0.1490 C.3     1  UNL1        0.0815
     10 C           6.2355    2.1147   -1.4749 C.3     1  UNL1       -0.0262
     11 C           5.5831    2.3773   -0.0676 C.3     1  UNL1        0.0035
     12 C           4.1552    2.2009   -0.1593 C.ar    1  UNL1       -0.0409
     13 C           3.4043    1.1294    0.2746 C.ar    1  UNL1       -0.0575
     14 C           2.0165    1.0643    0.1153 C.ar    1  UNL1       -0.0502
     15 C           1.3571    2.0954   -0.4926 C.ar    1  UNL1        0.0268
     16 C           0.0218    2.3300   -0.7904 C.ar    1  UNL1        0.0931
     17 C          -1.0709    1.4085   -0.4817 C.2     1  UNL1       -0.0334
     18 C          -2.3292    1.6852   -0.7694 C.2     1  UNL1       -0.0525
     19 C          -3.4649    0.8213   -0.4941 C.ar    1  UNL1       -0.0249
     20 C          -4.7282    1.2873   -0.8489 C.ar    1  UNL1       -0.0543
     21 C          -5.8683    0.5324   -0.6260 C.ar    1  UNL1       -0.0565
     22 C          -5.7955   -0.7135   -0.0423 C.ar    1  UNL1       -0.0305
     23 C          -7.0010   -1.5348    0.2166 C.3     1  UNL1        0.0330
     24 C          -7.4113   -2.2710   -1.0371 C.3     1  UNL1       -0.0453
     25 N          -8.0620   -0.9088    0.9001 N.3     1  UNL1       -0.2914
     26 C          -8.8585    0.0532    0.2563 C.3     1  UNL1        0.0230
     27 C         -10.3009   -0.1220    0.7739 C.3     1  UNL1        0.0604
     28 O         -10.7991   -1.3792    0.4417 O.3     1  UNL1       -0.3772
     29 C         -10.0137   -2.4058    0.9223 C.3     1  UNL1        0.0604
     30 C          -8.8139   -1.8761    1.6432 C.3     1  UNL1        0.0230
     31 C          -4.5247   -1.1369    0.2934 C.ar    1  UNL1       -0.0565
     32 C          -3.3769   -0.4044    0.0817 C.ar    1  UNL1       -0.0543
     33 N          -0.0321    3.5277   -1.3958 N.ar    1  UNL1       -0.1733
     34 N           1.1657    4.0453   -1.4923 N.ar    1  UNL1       -0.2764
     35 C           2.0602    3.2026   -0.9503 C.ar    1  UNL1        0.0666
     36 C           3.4051    3.2189   -0.7730 C.ar    1  UNL1       -0.0328
     37 C           8.0231    2.1369    0.2374 C.2     1  UNL1        0.2307
     38 O           8.3557    3.3660    0.1713 O.2     1  UNL1       -0.2743
     39 N           8.8468    1.1035    0.6987 N.am    1  UNL1       -0.2734
     40 C          10.1946    1.2210    1.2996 C.3     1  UNL1        0.0083
     41 H           5.4296   -5.4266   -0.6338 H       1  UNL1        0.0660
     42 H           7.1044   -4.7777   -0.9133 H       1  UNL1        0.0660
     43 H           6.4507   -4.7344    0.7312 H       1  UNL1        0.0660
     44 H           8.0862   -3.5315    0.5310 H       1  UNL1        0.0655
     45 H           9.5398   -1.5947    1.1613 H       1  UNL1        0.0637
     46 H           5.1627   -0.8312   -0.8892 H       1  UNL1        0.0658
     47 H           6.7204    2.9681   -1.9327 H       1  UNL1        0.0285
     48 H           5.7556    1.3625   -2.1080 H       1  UNL1        0.0285
     49 H           5.8070    3.4508    0.2744 H       1  UNL1        0.0362
     50 H           3.9190    0.3384    0.7563 H       1  UNL1        0.0621
     51 H           1.4643    0.2143    0.4648 H       1  UNL1        0.0625
     52 H          -0.8618    0.4660   -0.0028 H       1  UNL1        0.0640
     53 H          -2.4835    2.6616   -1.2575 H       1  UNL1        0.0624
     54 H          -4.8192    2.2734   -1.3146 H       1  UNL1        0.0624
     55 H          -6.7949    0.9842   -0.9426 H       1  UNL1        0.0621
     56 H          -6.6420   -2.3519    0.9246 H       1  UNL1        0.0509
     57 H          -8.2789   -1.8015   -1.5391 H       1  UNL1        0.0248
     58 H          -7.5620   -3.3412   -0.8287 H       1  UNL1        0.0248
     59 H          -6.5670   -2.1981   -1.7519 H       1  UNL1        0.0248
     60 H          -8.9537   -0.0055   -0.8279 H       1  UNL1        0.0449
     61 H          -8.5943    1.0916    0.5813 H       1  UNL1        0.0449
     62 H         -10.9713    0.6254    0.2894 H       1  UNL1        0.0572
     63 H         -10.3603    0.0104    1.8575 H       1  UNL1        0.0572
     64 H          -9.7629   -3.0824    0.0873 H       1  UNL1        0.0572
     65 H         -10.5736   -3.0419    1.6603 H       1  UNL1        0.0572
     66 H          -9.1437   -1.4428    2.6051 H       1  UNL1        0.0449
     67 H          -8.1154   -2.7229    1.8959 H       1  UNL1        0.0449
     68 H          -4.4206   -2.1055    0.7521 H       1  UNL1        0.0621
     69 H          -2.3921   -0.7907    0.3687 H       1  UNL1        0.0624
     70 H           1.3966    4.9556   -1.9157 H       1  UNL1        0.1889
     71 H           3.9368    4.1087   -1.1456 H       1  UNL1        0.0642
     72 H          10.8992    0.9666    0.4820 H       1  UNL1        0.0433
     73 H          10.2989    0.5134    2.1552 H       1  UNL1        0.0433
     74 H          10.3869    2.2506    1.5999 H       1  UNL1        0.0433
@<TRIPOS>BOND
     1     1     2    1
     2     2     3    1
     3     3     4   ar
     4     4     5   ar
     5     5     6   ar
     6     6     7   ar
     7     7     8   ar
     8     7     9    1
     9     9    10    1
    10    10    11    1
    11    11    12    1
    12    12    13   ar
    13    13    14   ar
    14    14    15   ar
    15    15    16   ar
    16    16    17    1
    17    17    18    2
    18    18    19    1
    19    19    20   ar
    20    20    21   ar
    21    21    22   ar
    22    22    23    1
    23    23    24    1
    24    23    25    1
    25    25    26    1
    26    26    27    1
    27    27    28    1
    28    28    29    1
    29    29    30    1
    30    22    31   ar
    31    31    32   ar
    32    16    33   ar
    33    33    34   ar
    34    34    35   ar
    35    35    36   ar
    36     9    37    1
    37    37    38    2
    38    37    39   am
    39    39    40    1
    40     8     3   ar
    41    11     9    1
    42    36    12   ar
    43    39     6    1
    44    35    15   ar
    45    32    19   ar
    46    30    25    1
    47     1    41    1
    48     1    42    1
    49     1    43    1
    50     4    44    1
    51     5    45    1
    52     8    46    1
    53    10    47    1
    54    10    48    1
    55    11    49    1
    56    13    50    1
    57    14    51    1
    58    17    52    1
    59    18    53    1
    60    20    54    1
    61    21    55    1
    62    23    56    1
    63    24    57    1
    64    24    58    1
    65    24    59    1
    66    26    60    1
    67    26    61    1
    68    27    62    1
    69    27    63    1
    70    29    64    1
    71    29    65    1
    72    30    66    1
    73    30    67    1
    74    31    68    1
    75    32    69    1
    76    34    70    1
    77    36    71    1
    78    40    72    1
    79    40    73    1
    80    40    74    1
