@<TRIPOS>MOLECULE
*****
 73 77 0 0 0
SMALL
GASTEIGER

@<TRIPOS>ATOM
      1 C           9.9760   -1.9228    1.3582 C.3     1  UNL1       -0.0455
      2 C           9.6176   -0.4650    1.4506 C.3     1  UNL1        0.0389
      3 N           8.5571   -0.2043    0.4913 N.ar    1  UNL1       -0.2664
      4 C           7.2412   -0.3161    0.8011 C.ar    1  UNL1        0.0506
      5 C           6.5091   -0.0071   -0.2955 C.ar    1  UNL1        0.1152
      6 N           5.1100    0.0244   -0.4631 N.pl3   1  UNL1       -0.2782
      7 C           4.2042   -0.3288    0.5506 C.ar    1  UNL1        0.2202
      8 N           4.6390   -0.7223    1.7505 N.ar    1  UNL1       -0.2224
      9 C           3.7907   -1.0671    2.7223 C.ar    1  UNL1        0.0361
     10 C           2.4070   -1.0220    2.4982 C.ar    1  UNL1       -0.0062
     11 C           1.5385   -1.3730    3.6341 C.3     1  UNL1       -0.0362
     12 C           1.9433   -0.6242    1.2792 C.ar    1  UNL1        0.0809
     13 C           0.5444   -0.5144    0.9233 C.ar    1  UNL1        0.0258
     14 C          -0.5904   -0.9454    1.5423 C.ar    1  UNL1        0.0120
     15 N          -1.7017   -0.6487    0.7803 N.ar    1  UNL1       -0.3586
     16 C          -1.3113   -0.0352   -0.3203 C.ar    1  UNL1        0.0686
     17 C          -2.0725    0.4550   -1.3818 C.ar    1  UNL1        0.0576
     18 N          -3.4880    0.3264   -1.3973 N.am    1  UNL1       -0.2825
     19 C          -4.2700    1.3498   -0.8223 C.2     1  UNL1        0.2342
     20 O          -3.6724    2.3690   -0.3094 O.2     1  UNL1       -0.2738
     21 C          -5.7412    1.2742   -0.8001 C.3     1  UNL1        0.0848
     22 C          -6.2482    2.3796   -1.7071 C.3     1  UNL1       -0.0409
     23 N          -6.1957   -0.0113   -1.1881 N.3     1  UNL1       -0.2893
     24 C          -5.8520   -1.1016   -0.3409 C.3     1  UNL1        0.0124
     25 C          -6.9766   -1.6665    0.4565 C.3     1  UNL1        0.0114
     26 N          -8.0451   -0.7640    0.6930 N.3     1  UNL1       -0.3029
     27 C          -7.8828   -0.0009    1.8872 C.3     1  UNL1       -0.0127
     28 C          -8.5196   -0.0060   -0.4085 C.3     1  UNL1        0.0114
     29 C          -7.5874   -0.0290   -1.5987 C.3     1  UNL1        0.0124
     30 C          -1.4057    1.0618   -2.4121 C.ar    1  UNL1       -0.0384
     31 C          -0.0317    1.1708   -2.3759 C.ar    1  UNL1       -0.0593
     32 C           0.7097    0.6770   -1.3116 C.ar    1  UNL1       -0.0518
     33 C           0.0628    0.0642   -0.2661 C.ar    1  UNL1        0.0107
     34 N           2.8595   -0.2863    0.3360 N.ar    1  UNL1       -0.2139
     35 C           7.4425    0.3049   -1.3134 C.ar    1  UNL1        0.2552
     36 O           7.0805    0.6704   -2.5849 O.3     1  UNL1       -0.4774
     37 C           7.9632    0.9854   -3.6212 C.3     1  UNL1        0.0805
     38 N           8.6390    0.1597   -0.7512 N.ar    1  UNL1       -0.1315
     39 H           9.4619   -2.4986    2.1486 H       1  UNL1        0.0247
     40 H          11.0689   -2.0100    1.5606 H       1  UNL1        0.0247
     41 H           9.7147   -2.3871    0.3925 H       1  UNL1        0.0247
     42 H          10.4681    0.1982    1.1847 H       1  UNL1        0.0506
     43 H           9.2380   -0.2586    2.4794 H       1  UNL1        0.0506
     44 H           6.8779   -0.6115    1.7943 H       1  UNL1        0.0846
     45 H           4.7179    0.3229   -1.3791 H       1  UNL1        0.1552
     46 H           4.1646   -1.3857    3.6926 H       1  UNL1        0.0834
     47 H           0.7749   -0.6122    3.8858 H       1  UNL1        0.0279
     48 H           2.1774   -1.4234    4.5697 H       1  UNL1        0.0279
     49 H           1.0673   -2.3639    3.5780 H       1  UNL1        0.0279
     50 H          -0.6611   -1.4655    2.4827 H       1  UNL1        0.0814
     51 H          -2.6730   -0.8891    1.0675 H       1  UNL1        0.1654
     52 H          -3.8814   -0.5148   -1.8409 H       1  UNL1        0.1549
     53 H          -6.1137    1.5314    0.2226 H       1  UNL1        0.0556
     54 H          -6.0765    2.1467   -2.7788 H       1  UNL1        0.0249
     55 H          -7.2914    2.6625   -1.4910 H       1  UNL1        0.0249
     56 H          -5.6336    3.2776   -1.4870 H       1  UNL1        0.0249
     57 H          -4.9566   -0.8558    0.2797 H       1  UNL1        0.0439
     58 H          -5.4843   -1.9508   -0.9976 H       1  UNL1        0.0439
     59 H          -6.5530   -1.9546    1.4633 H       1  UNL1        0.0439
     60 H          -7.3385   -2.6034   -0.0666 H       1  UNL1        0.0439
     61 H          -6.8184   -0.0688    2.1964 H       1  UNL1        0.0391
     62 H          -8.0881    1.0636    1.6703 H       1  UNL1        0.0391
     63 H          -8.5596   -0.4155    2.6576 H       1  UNL1        0.0391
     64 H          -9.4760   -0.4680   -0.7577 H       1  UNL1        0.0439
     65 H          -8.7754    1.0239   -0.0934 H       1  UNL1        0.0439
     66 H          -7.8263    0.8156   -2.2385 H       1  UNL1        0.0439
     67 H          -7.7601   -0.9771   -2.1442 H       1  UNL1        0.0439
     68 H          -1.9913    1.4422   -3.2332 H       1  UNL1        0.0637
     69 H           0.4825    1.6527   -3.2008 H       1  UNL1        0.0618
     70 H           1.7707    0.8073   -1.3646 H       1  UNL1        0.0624
     71 H           7.4590    1.4439   -4.4938 H       1  UNL1        0.0660
     72 H           8.7444    1.7018   -3.2919 H       1  UNL1        0.0660
     73 H           8.5268    0.0767   -3.9521 H       1  UNL1        0.0660
@<TRIPOS>BOND
     1     1     2    1
     2     2     3    1
     3     3     4   ar
     4     4     5   ar
     5     5     6    1
     6     6     7    1
     7     7     8   ar
     8     8     9   ar
     9     9    10   ar
    10    10    11    1
    11    10    12   ar
    12    12    13    1
    13    13    14   ar
    14    14    15   ar
    15    15    16   ar
    16    16    17   ar
    17    17    18    1
    18    18    19   am
    19    19    20    2
    20    19    21    1
    21    21    22    1
    22    21    23    1
    23    23    24    1
    24    24    25    1
    25    25    26    1
    26    26    27    1
    27    26    28    1
    28    28    29    1
    29    17    30   ar
    30    30    31   ar
    31    31    32   ar
    32    32    33   ar
    33    12    34   ar
    34     5    35   ar
    35    35    36    1
    36    36    37    1
    37    35    38   ar
    38    38     3   ar
    39    34     7   ar
    40    33    13   ar
    41    33    16   ar
    42    29    23    1
    43     1    39    1
    44     1    40    1
    45     1    41    1
    46     2    42    1
    47     2    43    1
    48     4    44    1
    49     6    45    1
    50     9    46    1
    51    11    47    1
    52    11    48    1
    53    11    49    1
    54    14    50    1
    55    15    51    1
    56    18    52    1
    57    21    53    1
    58    22    54    1
    59    22    55    1
    60    22    56    1
    61    24    57    1
    62    24    58    1
    63    25    59    1
    64    25    60    1
    65    27    61    1
    66    27    62    1
    67    27    63    1
    68    28    64    1
    69    28    65    1
    70    29    66    1
    71    29    67    1
    72    30    68    1
    73    31    69    1
    74    32    70    1
    75    37    71    1
    76    37    72    1
    77    37    73    1
