
     RDKit          3D

 73 77  0  0  0  0  0  0  0  0999 V2000
    9.9760   -1.9228    1.3582 C   0  0  0  0  0  0  0  0  0  0  0  0
    9.6176   -0.4650    1.4506 C   0  0  0  0  0  0  0  0  0  0  0  0
    8.5571   -0.2043    0.4913 N   0  0  0  0  0  0  0  0  0  0  0  0
    7.2412   -0.3161    0.8011 C   0  0  0  0  0  0  0  0  0  0  0  0
    6.5091   -0.0071   -0.2955 C   0  0  0  0  0  0  0  0  0  0  0  0
    5.1100    0.0244   -0.4631 N   0  0  0  0  0  0  0  0  0  0  0  0
    4.2042   -0.3288    0.5506 C   0  0  0  0  0  0  0  0  0  0  0  0
    4.6390   -0.7223    1.7505 N   0  0  0  0  0  0  0  0  0  0  0  0
    3.7907   -1.0671    2.7223 C   0  0  0  0  0  0  0  0  0  0  0  0
    2.4070   -1.0220    2.4982 C   0  0  0  0  0  0  0  0  0  0  0  0
    1.5385   -1.3730    3.6341 C   0  0  0  0  0  0  0  0  0  0  0  0
    1.9433   -0.6242    1.2792 C   0  0  0  0  0  0  0  0  0  0  0  0
    0.5444   -0.5144    0.9233 C   0  0  0  0  0  0  0  0  0  0  0  0
   -0.5904   -0.9454    1.5423 C   0  0  0  0  0  0  0  0  0  0  0  0
   -1.7017   -0.6487    0.7803 N   0  0  0  0  0  0  0  0  0  0  0  0
   -1.3113   -0.0352   -0.3203 C   0  0  0  0  0  0  0  0  0  0  0  0
   -2.0725    0.4550   -1.3818 C   0  0  0  0  0  0  0  0  0  0  0  0
   -3.4880    0.3264   -1.3973 N   0  0  0  0  0  0  0  0  0  0  0  0
   -4.2700    1.3498   -0.8223 C   0  0  0  0  0  0  0  0  0  0  0  0
   -3.6724    2.3690   -0.3094 O   0  0  0  0  0  0  0  0  0  0  0  0
   -5.7412    1.2742   -0.8001 C   0  0  1  0  0  0  0  0  0  0  0  0
   -6.2482    2.3796   -1.7071 C   0  0  0  0  0  0  0  0  0  0  0  0
   -6.1957   -0.0113   -1.1881 N   0  0  0  0  0  0  0  0  0  0  0  0
   -5.8520   -1.1016   -0.3409 C   0  0  0  0  0  0  0  0  0  0  0  0
   -6.9766   -1.6665    0.4565 C   0  0  0  0  0  0  0  0  0  0  0  0
   -8.0451   -0.7640    0.6930 N   0  0  0  0  0  0  0  0  0  0  0  0
   -7.8828   -0.0009    1.8872 C   0  0  0  0  0  0  0  0  0  0  0  0
   -8.5196   -0.0060   -0.4085 C   0  0  0  0  0  0  0  0  0  0  0  0
   -7.5874   -0.0290   -1.5987 C   0  0  0  0  0  0  0  0  0  0  0  0
   -1.4057    1.0618   -2.4121 C   0  0  0  0  0  0  0  0  0  0  0  0
   -0.0317    1.1708   -2.3759 C   0  0  0  0  0  0  0  0  0  0  0  0
    0.7097    0.6770   -1.3116 C   0  0  0  0  0  0  0  0  0  0  0  0
    0.0628    0.0642   -0.2661 C   0  0  0  0  0  0  0  0  0  0  0  0
    2.8595   -0.2863    0.3360 N   0  0  0  0  0  0  0  0  0  0  0  0
    7.4425    0.3049   -1.3134 C   0  0  0  0  0  0  0  0  0  0  0  0
    7.0805    0.6704   -2.5849 O   0  0  0  0  0  0  0  0  0  0  0  0
    7.9632    0.9854   -3.6212 C   0  0  0  0  0  0  0  0  0  0  0  0
    8.6390    0.1597   -0.7512 N   0  0  0  0  0  0  0  0  0  0  0  0
    9.4619   -2.4986    2.1486 H   0  0  0  0  0  0  0  0  0  0  0  0
   11.0689   -2.0100    1.5606 H   0  0  0  0  0  0  0  0  0  0  0  0
    9.7147   -2.3871    0.3925 H   0  0  0  0  0  0  0  0  0  0  0  0
   10.4681    0.1982    1.1847 H   0  0  0  0  0  0  0  0  0  0  0  0
    9.2380   -0.2586    2.4794 H   0  0  0  0  0  0  0  0  0  0  0  0
    6.8779   -0.6115    1.7943 H   0  0  0  0  0  0  0  0  0  0  0  0
    4.7179    0.3229   -1.3791 H   0  0  0  0  0  0  0  0  0  0  0  0
    4.1646   -1.3857    3.6926 H   0  0  0  0  0  0  0  0  0  0  0  0
    0.7749   -0.6122    3.8858 H   0  0  0  0  0  0  0  0  0  0  0  0
    2.1774   -1.4234    4.5697 H   0  0  0  0  0  0  0  0  0  0  0  0
    1.0673   -2.3639    3.5780 H   0  0  0  0  0  0  0  0  0  0  0  0
   -0.6611   -1.4655    2.4827 H   0  0  0  0  0  0  0  0  0  0  0  0
   -2.6730   -0.8891    1.0675 H   0  0  0  0  0  0  0  0  0  0  0  0
   -3.8814   -0.5148   -1.8409 H   0  0  0  0  0  0  0  0  0  0  0  0
   -6.1137    1.5314    0.2226 H   0  0  0  0  0  0  0  0  0  0  0  0
   -6.0765    2.1467   -2.7788 H   0  0  0  0  0  0  0  0  0  0  0  0
   -7.2914    2.6625   -1.4910 H   0  0  0  0  0  0  0  0  0  0  0  0
   -5.6336    3.2776   -1.4870 H   0  0  0  0  0  0  0  0  0  0  0  0
   -4.9566   -0.8558    0.2797 H   0  0  0  0  0  0  0  0  0  0  0  0
   -5.4843   -1.9508   -0.9976 H   0  0  0  0  0  0  0  0  0  0  0  0
   -6.5530   -1.9546    1.4633 H   0  0  0  0  0  0  0  0  0  0  0  0
   -7.3385   -2.6034   -0.0666 H   0  0  0  0  0  0  0  0  0  0  0  0
   -6.8184   -0.0688    2.1964 H   0  0  0  0  0  0  0  0  0  0  0  0
   -8.0881    1.0636    1.6703 H   0  0  0  0  0  0  0  0  0  0  0  0
   -8.5596   -0.4155    2.6576 H   0  0  0  0  0  0  0  0  0  0  0  0
   -9.4760   -0.4680   -0.7577 H   0  0  0  0  0  0  0  0  0  0  0  0
   -8.7754    1.0239   -0.0934 H   0  0  0  0  0  0  0  0  0  0  0  0
   -7.8263    0.8156   -2.2385 H   0  0  0  0  0  0  0  0  0  0  0  0
   -7.7601   -0.9771   -2.1442 H   0  0  0  0  0  0  0  0  0  0  0  0
   -1.9913    1.4422   -3.2332 H   0  0  0  0  0  0  0  0  0  0  0  0
    0.4825    1.6527   -3.2008 H   0  0  0  0  0  0  0  0  0  0  0  0
    1.7707    0.8073   -1.3646 H   0  0  0  0  0  0  0  0  0  0  0  0
    7.4590    1.4439   -4.4938 H   0  0  0  0  0  0  0  0  0  0  0  0
    8.7444    1.7018   -3.2919 H   0  0  0  0  0  0  0  0  0  0  0  0
    8.5268    0.0767   -3.9521 H   0  0  0  0  0  0  0  0  0  0  0  0
  1  2  1  0
  2  3  1  0
  3  4  1  0
  4  5  2  0
  5  6  1  0
  6  7  1  0
  7  8  2  0
  8  9  1  0
  9 10  2  0
 10 11  1  0
 10 12  1  0
 12 13  1  0
 13 14  2  0
 14 15  1  0
 15 16  1  0
 16 17  2  0
 17 18  1  0
 18 19  1  0
 19 20  2  0
 19 21  1  0
 21 22  1  0
 21 23  1  0
 23 24  1  0
 24 25  1  0
 25 26  1  0
 26 27  1  0
 26 28  1  0
 28 29  1  0
 17 30  1  0
 30 31  2  0
 31 32  1  0
 32 33  2  0
 12 34  2  0
  5 35  1  0
 35 36  1  0
 36 37  1  0
 35 38  2  0
 38  3  1  0
 34  7  1  0
 33 13  1  0
 33 16  1  0
 29 23  1  0
  1 39  1  0
  1 40  1  0
  1 41  1  0
  2 42  1  0
  2 43  1  0
  4 44  1  0
  6 45  1  0
  9 46  1  0
 11 47  1  0
 11 48  1  0
 11 49  1  0
 14 50  1  0
 15 51  1  0
 18 52  1  0
 21 53  1  1
 22 54  1  0
 22 55  1  0
 22 56  1  0
 24 57  1  0
 24 58  1  0
 25 59  1  0
 25 60  1  0
 27 61  1  0
 27 62  1  0
 27 63  1  0
 28 64  1  0
 28 65  1  0
 29 66  1  0
 29 67  1  0
 30 68  1  0
 31 69  1  0
 32 70  1  0
 37 71  1  0
 37 72  1  0
 37 73  1  0
M  END
$$$$
