
     RDKit          3D

 62 66  0  0  0  0  0  0  0  0999 V2000
   -4.6993   -1.9083   -1.4873 C   0  0  0  0  0  0  0  0  0  0  0  0
   -4.4804   -0.4552   -0.9925 C   0  0  1  0  0  0  0  0  0  0  0  0
   -3.2175   -0.3493   -0.6098 O   0  0  0  0  0  0  0  0  0  0  0  0
   -2.3138   -0.1497    0.3182 C   0  0  0  0  0  0  0  0  0  0  0  0
   -0.9689   -0.1894   -0.0844 C   0  0  0  0  0  0  0  0  0  0  0  0
    0.0940   -0.0019    0.7573 C   0  0  0  0  0  0  0  0  0  0  0  0
    1.4848   -0.0473    0.3168 C   0  0  0  0  0  0  0  0  0  0  0  0
    1.9024    0.3404   -0.9262 C   0  0  0  0  0  0  0  0  0  0  0  0
    3.2305    0.2679   -1.2675 C   0  0  0  0  0  0  0  0  0  0  0  0
    4.2105   -0.2000   -0.3729 C   0  0  0  0  0  0  0  0  0  0  0  0
    5.5577   -0.2623   -0.7782 N   0  0  0  0  0  0  0  0  0  0  0  0
    6.2860   -1.4415   -1.1622 C   0  0  0  0  0  0  0  0  0  0  0  0
    7.6503   -1.3513   -0.4869 C   0  0  0  0  0  0  0  0  0  0  0  0
    8.3766   -0.2685   -0.9794 O   0  0  0  0  0  0  0  0  0  0  0  0
    7.5961    0.6811   -1.5927 C   0  0  0  0  0  0  0  0  0  0  0  0
    6.3307    0.9900   -0.8224 C   0  0  0  0  0  0  0  0  0  0  0  0
    3.8027   -0.5932    0.8819 C   0  0  0  0  0  0  0  0  0  0  0  0
    4.7538   -1.1025    1.9241 C   0  0  0  0  0  0  0  0  0  0  0  0
    5.7506   -0.2017    2.2093 F   0  0  0  0  0  0  0  0  0  0  0  0
    5.2990   -2.3074    1.6118 F   0  0  0  0  0  0  0  0  0  0  0  0
    4.0165   -1.2028    3.1285 F   0  0  0  0  0  0  0  0  0  0  0  0
    2.4557   -0.5022    1.1794 C   0  0  0  0  0  0  0  0  0  0  0  0
   -0.2303    0.2388    2.0783 C   0  0  0  0  0  0  0  0  0  0  0  0
   -1.5400    0.2845    2.5077 C   0  0  0  0  0  0  0  0  0  0  0  0
   -2.0925    0.4990    3.7230 N   0  0  0  0  0  0  0  0  0  0  0  0
   -3.4077    0.4463    3.6314 N   0  0  0  0  0  0  0  0  0  0  0  0
   -4.3293    0.6361    4.7685 C   0  0  0  0  0  0  0  0  0  0  0  0
   -3.7827    0.1977    2.3682 C   0  0  0  0  0  0  0  0  0  0  0  0
   -2.5892    0.0926    1.6412 C   0  0  0  0  0  0  0  0  0  0  0  0
   -4.9070    0.3931   -2.1829 C   0  0  1  0  0  0  0  0  0  0  0  0
   -6.3567    0.0675   -2.4636 C   0  0  0  0  0  0  0  0  0  0  0  0
   -6.9746    1.3531   -2.8201 N   0  0  0  0  0  0  0  0  0  0  0  0
   -6.0216    2.3792   -2.6878 C   0  0  0  0  0  0  0  0  0  0  0  0
   -6.1111    3.5264   -3.1558 O   0  0  0  0  0  0  0  0  0  0  0  0
   -4.8956    1.8528   -1.8947 C   0  0  0  0  0  0  0  0  0  0  0  0
   -5.5513   -1.9666   -2.1703 H   0  0  0  0  0  0  0  0  0  0  0  0
   -4.8336   -2.5885   -0.6399 H   0  0  0  0  0  0  0  0  0  0  0  0
   -3.8028   -2.2500   -2.0512 H   0  0  0  0  0  0  0  0  0  0  0  0
   -5.2945   -0.3308   -0.2367 H   0  0  0  0  0  0  0  0  0  0  0  0
   -0.7106   -0.3814   -1.1380 H   0  0  0  0  0  0  0  0  0  0  0  0
    1.1688    0.7098   -1.6485 H   0  0  0  0  0  0  0  0  0  0  0  0
    3.5675    0.5730   -2.2492 H   0  0  0  0  0  0  0  0  0  0  0  0
    6.5260   -1.4117   -2.2669 H   0  0  0  0  0  0  0  0  0  0  0  0
    5.8260   -2.3959   -0.9274 H   0  0  0  0  0  0  0  0  0  0  0  0
    7.5761   -1.3589    0.5984 H   0  0  0  0  0  0  0  0  0  0  0  0
    8.2186   -2.2645   -0.7917 H   0  0  0  0  0  0  0  0  0  0  0  0
    8.1492    1.6583   -1.6567 H   0  0  0  0  0  0  0  0  0  0  0  0
    7.3845    0.3991   -2.6434 H   0  0  0  0  0  0  0  0  0  0  0  0
    5.7790    1.7807   -1.3562 H   0  0  0  0  0  0  0  0  0  0  0  0
    6.6106    1.3426    0.1686 H   0  0  0  0  0  0  0  0  0  0  0  0
    2.1367   -0.8184    2.1817 H   0  0  0  0  0  0  0  0  0  0  0  0
    0.6012    0.3917    2.7695 H   0  0  0  0  0  0  0  0  0  0  0  0
   -3.9302    1.4185    5.4345 H   0  0  0  0  0  0  0  0  0  0  0  0
   -5.3229    0.9356    4.3881 H   0  0  0  0  0  0  0  0  0  0  0  0
   -4.4353   -0.3527    5.2556 H   0  0  0  0  0  0  0  0  0  0  0  0
   -4.7760    0.0949    1.9657 H   0  0  0  0  0  0  0  0  0  0  0  0
   -4.3287    0.1402   -3.0696 H   0  0  0  0  0  0  0  0  0  0  0  0
   -6.8931   -0.2883   -1.5715 H   0  0  0  0  0  0  0  0  0  0  0  0
   -6.4790   -0.5789   -3.3430 H   0  0  0  0  0  0  0  0  0  0  0  0
   -7.9766    1.3853   -3.1132 H   0  0  0  0  0  0  0  0  0  0  0  0
   -3.9736    2.3677   -2.2461 H   0  0  0  0  0  0  0  0  0  0  0  0
   -5.1152    2.0772   -0.8282 H   0  0  0  0  0  0  0  0  0  0  0  0
  1  2  1  0
  2  3  1  0
  3  4  1  0
  4  5  2  0
  5  6  1  0
  6  7  1  0
  7  8  2  0
  8  9  1  0
  9 10  2  0
 10 11  1  0
 11 12  1  0
 12 13  1  0
 13 14  1  0
 14 15  1  0
 15 16  1  0
 10 17  1  0
 17 18  1  0
 18 19  1  0
 18 20  1  0
 18 21  1  0
 17 22  2  0
  6 23  2  0
 23 24  1  0
 24 25  2  0
 25 26  1  0
 26 27  1  0
 26 28  1  0
 28 29  2  0
  2 30  1  0
 30 31  1  0
 31 32  1  0
 32 33  1  0
 33 34  2  0
 33 35  1  0
 29  4  1  0
 35 30  1  0
 22  7  1  0
 29 24  1  0
 16 11  1  0
  1 36  1  0
  1 37  1  0
  1 38  1  0
  2 39  1  1
  5 40  1  0
  8 41  1  0
  9 42  1  0
 12 43  1  0
 12 44  1  0
 13 45  1  0
 13 46  1  0
 15 47  1  0
 15 48  1  0
 16 49  1  0
 16 50  1  0
 22 51  1  0
 23 52  1  0
 27 53  1  0
 27 54  1  0
 27 55  1  0
 28 56  1  0
 30 57  1  6
 31 58  1  0
 31 59  1  0
 32 60  1  0
 35 61  1  0
 35 62  1  0
M  END
$$$$
