@<TRIPOS>MOLECULE
*****
 62 66 0 0 0
SMALL
GASTEIGER

@<TRIPOS>ATOM
      1 C          -4.6993   -1.9083   -1.4873 C.3     1  UNL1       -0.0275
      2 C          -4.4804   -0.4552   -0.9925 C.3     1  UNL1        0.1021
      3 O          -3.2175   -0.3493   -0.6098 O.3     1  UNL1       -0.4880
      4 C          -2.3138   -0.1497    0.3182 C.ar    1  UNL1        0.1321
      5 C          -0.9689   -0.1894   -0.0844 C.ar    1  UNL1       -0.0114
      6 C           0.0940   -0.0019    0.7573 C.ar    1  UNL1       -0.0123
      7 C           1.4848   -0.0473    0.3168 C.ar    1  UNL1       -0.0171
      8 C           1.9024    0.3404   -0.9262 C.ar    1  UNL1       -0.0523
      9 C           3.2305    0.2679   -1.2675 C.ar    1  UNL1       -0.0395
     10 C           4.2105   -0.2000   -0.3729 C.ar    1  UNL1        0.0416
     11 N           5.5577   -0.2623   -0.7782 N.pl3   1  UNL1       -0.3251
     12 C           6.2860   -1.4415   -1.1622 C.3     1  UNL1        0.0357
     13 C           7.6503   -1.3513   -0.4869 C.3     1  UNL1        0.0634
     14 O           8.3766   -0.2685   -0.9794 O.3     1  UNL1       -0.3767
     15 C           7.5961    0.6811   -1.5927 C.3     1  UNL1        0.0634
     16 C           6.3307    0.9900   -0.8224 C.3     1  UNL1        0.0357
     17 C           3.8027   -0.5932    0.8819 C.ar    1  UNL1        0.0763
     18 C           4.7538   -1.1025    1.9241 C.3     1  UNL1        0.4191
     19 F           5.7506   -0.2017    2.2093 F       1  UNL1       -0.1658
     20 F           5.2990   -2.3074    1.6118 F       1  UNL1       -0.1658
     21 F           4.0165   -1.2028    3.1285 F       1  UNL1       -0.1658
     22 C           2.4557   -0.5022    1.1794 C.ar    1  UNL1       -0.0406
     23 C          -0.2303    0.2388    2.0783 C.ar    1  UNL1       -0.0260
     24 C          -1.5400    0.2845    2.5077 C.ar    1  UNL1        0.0968
     25 N          -2.0925    0.4990    3.7230 N.ar    1  UNL1       -0.1713
     26 N          -3.4077    0.4463    3.6314 N.ar    1  UNL1       -0.2732
     27 C          -4.3293    0.6361    4.7685 C.3     1  UNL1        0.0302
     28 C          -3.7827    0.1977    2.3682 C.ar    1  UNL1        0.0364
     29 C          -2.5892    0.0926    1.6412 C.ar    1  UNL1        0.0614
     30 C          -4.9070    0.3931   -2.1829 C.3     1  UNL1        0.0195
     31 C          -6.3567    0.0675   -2.4636 C.3     1  UNL1        0.0182
     32 N          -6.9746    1.3531   -2.8201 N.am    1  UNL1       -0.3149
     33 C          -6.0216    2.3792   -2.6878 C.2     1  UNL1        0.2135
     34 O          -6.1111    3.5264   -3.1558 O.2     1  UNL1       -0.2758
     35 C          -4.8956    1.8528   -1.8947 C.3     1  UNL1        0.0315
     36 H          -5.5513   -1.9666   -2.1703 H       1  UNL1        0.0265
     37 H          -4.8336   -2.5885   -0.6399 H       1  UNL1        0.0265
     38 H          -3.8028   -2.2500   -2.0512 H       1  UNL1        0.0265
     39 H          -5.2945   -0.3308   -0.2367 H       1  UNL1        0.0733
     40 H          -0.7106   -0.3814   -1.1380 H       1  UNL1        0.0660
     41 H           1.1688    0.7098   -1.6485 H       1  UNL1        0.0624
     42 H           3.5675    0.5730   -2.2492 H       1  UNL1        0.0636
     43 H           6.5260   -1.4117   -2.2669 H       1  UNL1        0.0486
     44 H           5.8260   -2.3959   -0.9274 H       1  UNL1        0.0486
     45 H           7.5761   -1.3589    0.5984 H       1  UNL1        0.0575
     46 H           8.2186   -2.2645   -0.7917 H       1  UNL1        0.0575
     47 H           8.1492    1.6583   -1.6567 H       1  UNL1        0.0575
     48 H           7.3845    0.3991   -2.6434 H       1  UNL1        0.0575
     49 H           5.7790    1.7807   -1.3562 H       1  UNL1        0.0486
     50 H           6.6106    1.3426    0.1686 H       1  UNL1        0.0486
     51 H           2.1367   -0.8184    2.1817 H       1  UNL1        0.0630
     52 H           0.6012    0.3917    2.7695 H       1  UNL1        0.0646
     53 H          -3.9302    1.4185    5.4345 H       1  UNL1        0.0473
     54 H          -5.3229    0.9356    4.3881 H       1  UNL1        0.0473
     55 H          -4.4353   -0.3527    5.2556 H       1  UNL1        0.0473
     56 H          -4.7760    0.0949    1.9657 H       1  UNL1        0.0833
     57 H          -4.3287    0.1402   -3.0696 H       1  UNL1        0.0356
     58 H          -6.8931   -0.2883   -1.5715 H       1  UNL1        0.0466
     59 H          -6.4790   -0.5789   -3.3430 H       1  UNL1        0.0466
     60 H          -7.9766    1.3853   -3.1132 H       1  UNL1        0.1487
     61 H          -3.9736    2.3677   -2.2461 H       1  UNL1        0.0363
     62 H          -5.1152    2.0772   -0.8282 H       1  UNL1        0.0363
@<TRIPOS>BOND
     1     1     2    1
     2     2     3    1
     3     3     4    1
     4     4     5   ar
     5     5     6   ar
     6     6     7    1
     7     7     8   ar
     8     8     9   ar
     9     9    10   ar
    10    10    11    1
    11    11    12    1
    12    12    13    1
    13    13    14    1
    14    14    15    1
    15    15    16    1
    16    10    17   ar
    17    17    18    1
    18    18    19    1
    19    18    20    1
    20    18    21    1
    21    17    22   ar
    22     6    23   ar
    23    23    24   ar
    24    24    25   ar
    25    25    26   ar
    26    26    27    1
    27    26    28   ar
    28    28    29   ar
    29     2    30    1
    30    30    31    1
    31    31    32    1
    32    32    33   am
    33    33    34    2
    34    33    35    1
    35    29     4   ar
    36    35    30    1
    37    22     7   ar
    38    29    24   ar
    39    16    11    1
    40     1    36    1
    41     1    37    1
    42     1    38    1
    43     2    39    1
    44     5    40    1
    45     8    41    1
    46     9    42    1
    47    12    43    1
    48    12    44    1
    49    13    45    1
    50    13    46    1
    51    15    47    1
    52    15    48    1
    53    16    49    1
    54    16    50    1
    55    22    51    1
    56    23    52    1
    57    27    53    1
    58    27    54    1
    59    27    55    1
    60    28    56    1
    61    30    57    1
    62    31    58    1
    63    31    59    1
    64    32    60    1
    65    35    61    1
    66    35    62    1
