
     RDKit          3D

107113  0  0  0  0  0  0  0  0999 V2000
    9.0621   -4.1849    4.9330 C   0  0  0  0  0  0  0  0  0  0  0  0
    8.6423   -2.9802    3.9471 C   0  0  0  0  0  0  0  0  0  0  0  0
    8.3615   -2.1570    3.2515 C   0  0  0  0  0  0  0  0  0  0  0  0
    7.3163   -1.1195    3.7247 C   0  0  0  0  0  0  0  0  0  0  0  0
    6.8647   -0.0753    3.0511 C   0  0  0  0  0  0  0  0  0  0  0  0
    5.7005    0.7064    3.2364 N   0  0  0  0  0  0  0  0  0  0  0  0
    4.7604    0.4779    2.0883 C   0  0  0  0  0  0  0  0  0  0  0  0
    5.3087   -0.1601    1.0777 N   0  0  0  0  0  0  0  0  0  0  0  0
    4.5314   -0.6683    0.0608 C   0  0  0  0  0  0  0  0  0  0  0  0
    3.3477   -0.5448    0.0554 C   0  0  0  0  0  0  0  0  0  0  0  0
    2.6124    0.1511    1.1266 C   0  0  0  0  0  0  0  0  0  0  0  0
    1.3598    0.2036    0.9952 O   0  0  0  0  0  0  0  0  0  0  0  0
    0.0893    0.2602    0.8658 C   0  0  0  0  0  0  0  0  0  0  0  0
   -0.3572    0.4529   -0.5860 C   0  0  0  0  0  0  0  0  0  0  0  0
   -1.5779    0.5522   -0.9226 C   0  0  0  0  0  0  0  0  0  0  0  0
   -2.6129    0.4783   -0.0441 C   0  0  0  0  0  0  0  0  0  0  0  0
   -3.8368    0.2281   -0.5780 N   0  0  0  0  0  0  0  0  0  0  0  0
   -5.1635    0.5379   -0.4344 C   0  0  0  0  0  0  0  0  0  0  0  0
   -5.5679    1.3519    0.3445 O   0  0  0  0  0  0  0  0  0  0  0  0
   -6.1068   -0.1614   -1.2088 N   0  0  0  0  0  0  0  0  0  0  0  0
   -7.4424   -0.5647   -1.1148 C   0  0  0  0  0  0  0  0  0  0  0  0
   -7.4826   -2.0294   -0.8167 C   0  0  0  0  0  0  0  0  0  0  0  0
   -8.9861   -2.2600   -0.7851 C   0  0  0  0  0  0  0  0  0  0  0  0
   -9.3676   -3.6698   -0.5248 C   0  0  0  0  0  0  0  0  0  0  0  0
   -9.5052   -3.9513    0.9690 C   0  0  0  0  0  0  0  0  0  0  0  0
  -10.6376   -4.0805   -1.1935 C   0  0  0  0  0  0  0  0  0  0  0  0
   -8.2718   -4.5999   -1.0619 C   0  0  0  0  0  0  0  0  0  0  0  0
   -9.3809   -1.1665   -0.9868 N   0  0  0  0  0  0  0  0  0  0  0  0
   -8.6361   -0.0925   -1.1907 N   0  0  0  0  0  0  0  0  0  0  0  0
   -9.0434    1.2562   -1.2739 C   0  0  0  0  0  0  0  0  0  0  0  0
   -9.2541    2.1533   -2.2763 C   0  0  0  0  0  0  0  0  0  0  0  0
   -9.7490    3.4360   -2.1273 C   0  0  0  0  0  0  0  0  0  0  0  0
  -10.0758    3.8890   -0.8866 C   0  0  0  0  0  0  0  0  0  0  0  0
  -10.6674    5.1805   -0.7118 N   0  0  0  0  0  0  0  0  0  0  0  0
  -11.0087    5.5856    0.6734 C   0  0  0  0  0  0  0  0  0  0  0  0
  -10.9601    6.1171   -1.7384 C   0  0  0  0  0  0  0  0  0  0  0  0
   -9.8808    3.1062    0.1916 C   0  0  0  0  0  0  0  0  0  0  0  0
   -9.3892    1.8375    0.0143 C   0  0  0  0  0  0  0  0  0  0  0  0
   -2.3976    0.3066    1.3540 C   0  0  0  0  0  0  0  0  0  0  0  0
   -3.4399    0.2393    2.2119 C   0  0  0  0  0  0  0  0  0  0  0  0
   -3.0488    0.0310    3.5468 C   0  0  0  0  0  0  0  0  0  0  0  0
   -1.8431   -0.0976    3.9902 C   0  0  0  0  0  0  0  0  0  0  0  0
   -0.9140   -0.0027    3.0311 C   0  0  0  0  0  0  0  0  0  0  0  0
   -1.0214    0.2095    1.6244 C   0  0  0  0  0  0  0  0  0  0  0  0
    3.3912    0.6675    2.1641 N   0  0  0  0  0  0  0  0  0  0  0  0
    7.5301    0.0753    1.6072 C   0  0  0  0  0  0  0  0  0  0  0  0
    8.4366   -0.7808    1.1507 C   0  0  0  0  0  0  0  0  0  0  0  0
    9.0008   -0.7726   -0.1589 C   0  0  0  0  0  0  0  0  0  0  0  0
    9.6977   -1.6708   -0.6079 O   0  0  0  0  0  0  0  0  0  0  0  0
    8.7997    0.3531   -1.1427 N   0  0  0  0  0  0  0  0  0  0  0  0
    9.5147   -0.0516   -2.4102 C   0  0  0  0  0  0  0  0  0  0  0  0
   10.9750    0.0396   -1.9984 C   0  0  0  0  0  0  0  0  0  0  0  0
   11.9022   -0.4444   -2.9731 N   0  0  0  0  0  0  0  0  0  0  0  0
   12.1842    0.4210   -4.0318 C   0  0  0  0  0  0  0  0  0  0  0  0
   13.4188    1.2919   -3.9013 C   0  0  0  0  0  0  0  0  0  0  0  0
   13.8503    1.2818   -2.5530 O   0  0  0  0  0  0  0  0  0  0  0  0
   14.2472   -0.0539   -2.2720 C   0  0  0  0  0  0  0  0  0  0  0  0
   13.1176   -1.0061   -2.3513 C   0  0  0  0  0  0  0  0  0  0  0  0
    8.6587   -1.7340    2.1091 C   0  0  0  0  0  0  0  0  0  0  0  0
    9.2919   -4.8388    5.4626 H   0  0  0  0  0  0  0  0  0  0  0  0
    7.0488   -1.3438    4.7424 H   0  0  0  0  0  0  0  0  0  0  0  0
    5.4337    1.2623    3.9792 H   0  0  0  0  0  0  0  0  0  0  0  0
    5.1752   -1.1997   -0.7597 H   0  0  0  0  0  0  0  0  0  0  0  0
    2.6357   -0.9187   -0.7398 H   0  0  0  0  0  0  0  0  0  0  0  0
    0.5100    0.5496   -1.2183 H   0  0  0  0  0  0  0  0  0  0  0  0
   -1.8763    0.7326   -2.0041 H   0  0  0  0  0  0  0  0  0  0  0  0
   -3.7161   -0.5796   -1.4526 H   0  0  0  0  0  0  0  0  0  0  0  0
   -5.6252   -0.9137   -2.0578 H   0  0  0  0  0  0  0  0  0  0  0  0
   -6.7602   -2.6931   -0.6332 H   0  0  0  0  0  0  0  0  0  0  0  0
   -8.9475   -4.8481    1.2184 H   0  0  0  0  0  0  0  0  0  0  0  0
  -10.5788   -4.1084    1.1943 H   0  0  0  0  0  0  0  0  0  0  0  0
   -9.1343   -3.0572    1.5056 H   0  0  0  0  0  0  0  0  0  0  0  0
  -10.5285   -3.9518   -2.3068 H   0  0  0  0  0  0  0  0  0  0  0  0
  -10.8001   -5.1706   -1.0650 H   0  0  0  0  0  0  0  0  0  0  0  0
  -11.5125   -3.4848   -0.9336 H   0  0  0  0  0  0  0  0  0  0  0  0
   -7.4469   -4.6778   -0.2992 H   0  0  0  0  0  0  0  0  0  0  0  0
   -7.9316   -4.2206   -2.0254 H   0  0  0  0  0  0  0  0  0  0  0  0
   -8.7510   -5.6208   -1.1349 H   0  0  0  0  0  0  0  0  0  0  0  0
   -8.9629    1.8430   -3.2892 H   0  0  0  0  0  0  0  0  0  0  0  0
   -9.8619    4.0510   -2.9859 H   0  0  0  0  0  0  0  0  0  0  0  0
  -11.6982    4.7835    1.0927 H   0  0  0  0  0  0  0  0  0  0  0  0
  -11.5939    6.5137    0.6983 H   0  0  0  0  0  0  0  0  0  0  0  0
  -10.0520    5.5573    1.2026 H   0  0  0  0  0  0  0  0  0  0  0  0
  -12.0523    6.2443   -1.7975 H   0  0  0  0  0  0  0  0  0  0  0  0
  -10.5330    5.8387   -2.7018 H   0  0  0  0  0  0  0  0  0  0  0  0
  -10.6563    7.1649   -1.3871 H   0  0  0  0  0  0  0  0  0  0  0  0
  -10.1712    3.4707    1.1562 H   0  0  0  0  0  0  0  0  0  0  0  0
   -9.2316    1.1909    0.8447 H   0  0  0  0  0  0  0  0  0  0  0  0
   -4.4609    0.3047    1.9486 H   0  0  0  0  0  0  0  0  0  0  0  0
   -3.9325   -0.0134    4.2558 H   0  0  0  0  0  0  0  0  0  0  0  0
   -1.4903   -0.2330    5.0490 H   0  0  0  0  0  0  0  0  0  0  0  0
    0.1899   -0.0813    3.2879 H   0  0  0  0  0  0  0  0  0  0  0  0
    7.1302    0.9533    1.1858 H   0  0  0  0  0  0  0  0  0  0  0  0
    8.2980    1.0904   -0.8967 H   0  0  0  0  0  0  0  0  0  0  0  0
    9.3272   -1.1088   -2.6105 H   0  0  0  0  0  0  0  0  0  0  0  0
    9.2576    0.6594   -3.1892 H   0  0  0  0  0  0  0  0  0  0  0  0
   11.1645    1.1857   -1.8150 H   0  0  0  0  0  0  0  0  0  0  0  0
   11.2348   -0.3734   -1.0392 H   0  0  0  0  0  0  0  0  0  0  0  0
   12.2004   -0.2013   -5.0032 H   0  0  0  0  0  0  0  0  0  0  0  0
   11.3020    1.1150   -4.2639 H   0  0  0  0  0  0  0  0  0  0  0  0
   14.2905    1.0164   -4.5481 H   0  0  0  0  0  0  0  0  0  0  0  0
   13.1188    2.3393   -4.1792 H   0  0  0  0  0  0  0  0  0  0  0  0
   14.5704    0.0406   -1.1939 H   0  0  0  0  0  0  0  0  0  0  0  0
   15.1007   -0.3564   -2.9243 H   0  0  0  0  0  0  0  0  0  0  0  0
   12.9252   -1.4536   -1.3281 H   0  0  0  0  0  0  0  0  0  0  0  0
   13.4331   -1.8981   -2.9541 H   0  0  0  0  0  0  0  0  0  0  0  0
    9.6117   -2.3588    1.6615 H   0  0  0  0  0  0  0  0  0  0  0  0
  1  2  3  0
  2  3  1  0
  3  4  2  0
  4  5  1  0
  5  6  1  0
  6  7  1  0
  7  8  2  0
  8  9  1  0
  9 10  2  0
 10 11  1  0
 11 12  1  0
 12 13  1  0
 13 14  2  0
 14 15  1  0
 15 16  2  0
 16 17  1  0
 17 18  1  0
 18 19  2  0
 18 20  1  0
 20 21  1  0
 21 22  2  0
 22 23  1  0
 23 24  1  0
 24 25  1  0
 24 26  1  0
 24 27  1  0
 23 28  2  0
 28 29  1  0
 29 30  1  0
 30 31  2  0
 31 32  1  0
 32 33  2  0
 33 34  1  0
 34 35  1  0
 34 36  1  0
 33 37  1  0
 37 38  2  0
 16 39  1  0
 39 40  2  0
 40 41  1  0
 41 42  2  0
 42 43  1  0
 43 44  2  0
 11 45  2  0
  5 46  2  0
 46 47  1  0
 47 48  1  0
 48 49  2  0
 48 50  1  0
 50 51  1  0
 51 52  1  0
 52 53  1  0
 53 54  1  0
 54 55  1  0
 55 56  1  0
 56 57  1  0
 57 58  1  0
 47 59  2  0
 59  3  1  0
 45  7  1  0
 58 53  1  0
 44 13  1  0
 29 21  1  0
 38 30  1  0
 44 39  1  0
  1 60  1  0
  4 61  1  0
  6 62  1  0
  9 63  1  0
 10 64  1  0
 14 65  1  0
 15 66  1  0
 17 67  1  0
 20 68  1  0
 22 69  1  0
 25 70  1  0
 25 71  1  0
 25 72  1  0
 26 73  1  0
 26 74  1  0
 26 75  1  0
 27 76  1  0
 27 77  1  0
 27 78  1  0
 31 79  1  0
 32 80  1  0
 35 81  1  0
 35 82  1  0
 35 83  1  0
 36 84  1  0
 36 85  1  0
 36 86  1  0
 37 87  1  0
 38 88  1  0
 40 89  1  0
 41 90  1  0
 42 91  1  0
 43 92  1  0
 46 93  1  0
 50 94  1  0
 51 95  1  0
 51 96  1  0
 52 97  1  0
 52 98  1  0
 54 99  1  0
 54100  1  0
 55101  1  0
 55102  1  0
 57103  1  0
 57104  1  0
 58105  1  0
 58106  1  0
 59107  1  0
M  END
$$$$
