@<TRIPOS>MOLECULE
*****
 107 113 0 0 0
SMALL
GASTEIGER

@<TRIPOS>ATOM
      1 C           9.0621   -4.1849    4.9330 C.1     1  UNL1       -0.1139
      2 C           8.6423   -2.9802    3.9471 C.1     1  UNL1       -0.0696
      3 C           8.3615   -2.1570    3.2515 C.ar    1  UNL1        0.0271
      4 C           7.3163   -1.1195    3.7247 C.ar    1  UNL1       -0.0250
      5 C           6.8647   -0.0753    3.0511 C.ar    1  UNL1        0.0354
      6 N           5.7005    0.7064    3.2364 N.pl3   1  UNL1       -0.2835
      7 C           4.7604    0.4779    2.0883 C.ar    1  UNL1        0.2226
      8 N           5.3087   -0.1601    1.0777 N.ar    1  UNL1       -0.2225
      9 C           4.5314   -0.6683    0.0608 C.ar    1  UNL1        0.0362
     10 C           3.3477   -0.5448    0.0554 C.ar    1  UNL1        0.0186
     11 C           2.6124    0.1511    1.1266 C.ar    1  UNL1        0.2249
     12 O           1.3598    0.2036    0.9952 O.3     1  UNL1       -0.4373
     13 C           0.0893    0.2602    0.8658 C.ar    1  UNL1        0.1381
     14 C          -0.3572    0.4529   -0.5860 C.ar    1  UNL1       -0.0169
     15 C          -1.5779    0.5522   -0.9226 C.ar    1  UNL1       -0.0363
     16 C          -2.6129    0.4783   -0.0441 C.ar    1  UNL1        0.0427
     17 N          -3.8368    0.2281   -0.5780 N.am    1  UNL1       -0.2686
     18 C          -5.1635    0.5379   -0.4344 C.2     1  UNL1        0.3092
     19 O          -5.5679    1.3519    0.3445 O.2     1  UNL1       -0.2521
     20 N          -6.1068   -0.1614   -1.2088 N.am    1  UNL1       -0.2538
     21 C          -7.4424   -0.5647   -1.1148 C.ar    1  UNL1        0.1299
     22 C          -7.4826   -2.0294   -0.8167 C.ar    1  UNL1        0.0021
     23 C          -8.9861   -2.2600   -0.7851 C.ar    1  UNL1        0.0706
     24 C          -9.3676   -3.6698   -0.5248 C.3     1  UNL1        0.0063
     25 C          -9.5052   -3.9513    0.9690 C.3     1  UNL1       -0.0546
     26 C         -10.6376   -4.0805   -1.1935 C.3     1  UNL1       -0.0546
     27 C          -8.2718   -4.5999   -1.0619 C.3     1  UNL1       -0.0546
     28 N          -9.3809   -1.1665   -0.9868 N.ar    1  UNL1       -0.1691
     29 N          -8.6361   -0.0925   -1.1907 N.ar    1  UNL1       -0.2181
     30 C          -9.0434    1.2562   -1.2739 C.ar    1  UNL1        0.0675
     31 C          -9.2541    2.1533   -2.2763 C.ar    1  UNL1       -0.0345
     32 C          -9.7490    3.4360   -2.1273 C.ar    1  UNL1       -0.0387
     33 C         -10.0758    3.8890   -0.8866 C.ar    1  UNL1        0.0293
     34 N         -10.6674    5.1805   -0.7118 N.pl3   1  UNL1       -0.3360
     35 C         -11.0087    5.5856    0.6734 C.3     1  UNL1        0.0004
     36 C         -10.9601    6.1171   -1.7384 C.3     1  UNL1        0.0004
     37 C          -9.8808    3.1062    0.1916 C.ar    1  UNL1       -0.0387
     38 C          -9.3892    1.8375    0.0143 C.ar    1  UNL1       -0.0345
     39 C          -2.3976    0.3066    1.3540 C.ar    1  UNL1        0.0069
     40 C          -3.4399    0.2393    2.2119 C.ar    1  UNL1       -0.0521
     41 C          -3.0488    0.0310    3.5468 C.ar    1  UNL1       -0.0611
     42 C          -1.8431   -0.0976    3.9902 C.ar    1  UNL1       -0.0611
     43 C          -0.9140   -0.0027    3.0311 C.ar    1  UNL1       -0.0505
     44 C          -1.0214    0.2095    1.6244 C.ar    1  UNL1        0.0262
     45 N           3.3912    0.6675    2.1641 N.ar    1  UNL1       -0.1789
     46 C           7.5301    0.0753    1.6072 C.ar    1  UNL1       -0.0283
     47 C           8.4366   -0.7808    1.1507 C.ar    1  UNL1        0.0396
     48 C           9.0008   -0.7726   -0.1589 C.2     1  UNL1        0.2442
     49 O           9.6977   -1.6708   -0.6079 O.2     1  UNL1       -0.2702
     50 N           8.7997    0.3531   -1.1427 N.am    1  UNL1       -0.3101
     51 C           9.5147   -0.0516   -2.4102 C.3     1  UNL1        0.0247
     52 C          10.9750    0.0396   -1.9984 C.3     1  UNL1        0.0146
     53 N          11.9022   -0.4444   -2.9731 N.3     1  UNL1       -0.2965
     54 C          12.1842    0.4210   -4.0318 C.3     1  UNL1        0.0225
     55 C          13.4188    1.2919   -3.9013 C.3     1  UNL1        0.0604
     56 O          13.8503    1.2818   -2.5530 O.3     1  UNL1       -0.3772
     57 C          14.2472   -0.0539   -2.2720 C.3     1  UNL1        0.0604
     58 C          13.1176   -1.0061   -2.3513 C.3     1  UNL1        0.0225
     59 C           8.6587   -1.7340    2.1091 C.ar    1  UNL1       -0.0341
     60 H           9.2919   -4.8388    5.4626 H       1  UNL1        0.1232
     61 H           7.0488   -1.3438    4.7424 H       1  UNL1        0.0648
     62 H           5.4337    1.2623    3.9792 H       1  UNL1        0.1550
     63 H           5.1752   -1.1997   -0.7597 H       1  UNL1        0.0832
     64 H           2.6357   -0.9187   -0.7398 H       1  UNL1        0.0686
     65 H           0.5100    0.5496   -1.2183 H       1  UNL1        0.0655
     66 H          -1.8763    0.7326   -2.0041 H       1  UNL1        0.0637
     67 H          -3.7161   -0.5796   -1.4526 H       1  UNL1        0.1564
     68 H          -5.6252   -0.9137   -2.0578 H       1  UNL1        0.1578
     69 H          -6.7602   -2.6931   -0.6332 H       1  UNL1        0.0671
     70 H          -8.9475   -4.8481    1.2184 H       1  UNL1        0.0239
     71 H         -10.5788   -4.1084    1.1943 H       1  UNL1        0.0239
     72 H          -9.1343   -3.0572    1.5056 H       1  UNL1        0.0239
     73 H         -10.5285   -3.9518   -2.3068 H       1  UNL1        0.0239
     74 H         -10.8001   -5.1706   -1.0650 H       1  UNL1        0.0239
     75 H         -11.5125   -3.4848   -0.9336 H       1  UNL1        0.0239
     76 H          -7.4469   -4.6778   -0.2992 H       1  UNL1        0.0239
     77 H          -7.9316   -4.2206   -2.0254 H       1  UNL1        0.0239
     78 H          -8.7510   -5.6208   -1.1349 H       1  UNL1        0.0239
     79 H          -8.9629    1.8430   -3.2892 H       1  UNL1        0.0639
     80 H          -9.8619    4.0510   -2.9859 H       1  UNL1        0.0637
     81 H         -11.6982    4.7835    1.0927 H       1  UNL1        0.0428
     82 H         -11.5939    6.5137    0.6983 H       1  UNL1        0.0428
     83 H         -10.0520    5.5573    1.2026 H       1  UNL1        0.0428
     84 H         -12.0523    6.2443   -1.7975 H       1  UNL1        0.0428
     85 H         -10.5330    5.8387   -2.7018 H       1  UNL1        0.0428
     86 H         -10.6563    7.1649   -1.3871 H       1  UNL1        0.0428
     87 H         -10.1712    3.4707    1.1562 H       1  UNL1        0.0637
     88 H          -9.2316    1.1909    0.8447 H       1  UNL1        0.0639
     89 H          -4.4609    0.3047    1.9486 H       1  UNL1        0.0624
     90 H          -3.9325   -0.0134    4.2558 H       1  UNL1        0.0618
     91 H          -1.4903   -0.2330    5.0490 H       1  UNL1        0.0618
     92 H           0.1899   -0.0813    3.2879 H       1  UNL1        0.0625
     93 H           7.1302    0.9533    1.1858 H       1  UNL1        0.0644
     94 H           8.2980    1.0904   -0.8967 H       1  UNL1        0.1490
     95 H           9.3272   -1.1088   -2.6105 H       1  UNL1        0.0475
     96 H           9.2576    0.6594   -3.1892 H       1  UNL1        0.0475
     97 H          11.1645    1.1857   -1.8150 H       1  UNL1        0.0442
     98 H          11.2348   -0.3734   -1.0392 H       1  UNL1        0.0442
     99 H          12.2004   -0.2013   -5.0032 H       1  UNL1        0.0449
    100 H          11.3020    1.1150   -4.2639 H       1  UNL1        0.0449
    101 H          14.2905    1.0164   -4.5481 H       1  UNL1        0.0572
    102 H          13.1188    2.3393   -4.1792 H       1  UNL1        0.0572
    103 H          14.5704    0.0406   -1.1939 H       1  UNL1        0.0572
    104 H          15.1007   -0.3564   -2.9243 H       1  UNL1        0.0572
    105 H          12.9252   -1.4536   -1.3281 H       1  UNL1        0.0449
    106 H          13.4331   -1.8981   -2.9541 H       1  UNL1        0.0449
    107 H           9.6117   -2.3588    1.6615 H       1  UNL1        0.0637
@<TRIPOS>BOND
     1     1     2    3
     2     2     3    1
     3     3     4   ar
     4     4     5   ar
     5     5     6    1
     6     6     7    1
     7     7     8   ar
     8     8     9   ar
     9     9    10   ar
    10    10    11   ar
    11    11    12    1
    12    12    13    1
    13    13    14   ar
    14    14    15   ar
    15    15    16   ar
    16    16    17    1
    17    17    18   am
    18    18    19    2
    19    18    20   am
    20    20    21    1
    21    21    22   ar
    22    22    23   ar
    23    23    24    1
    24    24    25    1
    25    24    26    1
    26    24    27    1
    27    23    28   ar
    28    28    29   ar
    29    29    30    1
    30    30    31   ar
    31    31    32   ar
    32    32    33   ar
    33    33    34    1
    34    34    35    1
    35    34    36    1
    36    33    37   ar
    37    37    38   ar
    38    16    39   ar
    39    39    40   ar
    40    40    41   ar
    41    41    42   ar
    42    42    43   ar
    43    43    44   ar
    44    11    45   ar
    45     5    46   ar
    46    46    47   ar
    47    47    48    1
    48    48    49    2
    49    48    50   am
    50    50    51    1
    51    51    52    1
    52    52    53    1
    53    53    54    1
    54    54    55    1
    55    55    56    1
    56    56    57    1
    57    57    58    1
    58    47    59   ar
    59    59     3   ar
    60    45     7   ar
    61    58    53    1
    62    44    13   ar
    63    29    21   ar
    64    38    30   ar
    65    44    39   ar
    66     1    60    1
    67     4    61    1
    68     6    62    1
    69     9    63    1
    70    10    64    1
    71    14    65    1
    72    15    66    1
    73    17    67    1
    74    20    68    1
    75    22    69    1
    76    25    70    1
    77    25    71    1
    78    25    72    1
    79    26    73    1
    80    26    74    1
    81    26    75    1
    82    27    76    1
    83    27    77    1
    84    27    78    1
    85    31    79    1
    86    32    80    1
    87    35    81    1
    88    35    82    1
    89    35    83    1
    90    36    84    1
    91    36    85    1
    92    36    86    1
    93    37    87    1
    94    38    88    1
    95    40    89    1
    96    41    90    1
    97    42    91    1
    98    43    92    1
    99    46    93    1
   100    50    94    1
   101    51    95    1
   102    51    96    1
   103    52    97    1
   104    52    98    1
   105    54    99    1
   106    54   100    1
   107    55   101    1
   108    55   102    1
   109    57   103    1
   110    57   104    1
   111    58   105    1
   112    58   106    1
   113    59   107    1
