@<TRIPOS>MOLECULE
*****
 44 46 0 0 0
SMALL
GASTEIGER

@<TRIPOS>ATOM
      1 C           1.4484    2.4238   -1.3423 C.3     1  UNL1       -0.0650
      2 C           0.1727    2.4890   -0.4945 C.3     1  UNL1       -0.0517
      3 C           0.2200    1.5183    0.6320 C.3     1  UNL1       -0.0224
      4 C           0.3005    0.0950    0.3735 C.ar    1  UNL1        0.0197
      5 C          -0.7658   -0.8035    0.2439 C.ar    1  UNL1        0.0601
      6 N          -1.9960   -0.3201    0.5283 N.ar    1  UNL1       -0.3345
      7 C          -2.3839    0.9934    0.8265 C.3     1  UNL1        0.0212
      8 C          -3.0332    1.7789   -0.2807 C.3     1  UNL1       -0.0471
      9 C          -2.9954   -1.2752    0.4425 C.ar    1  UNL1        0.1309
     10 C          -2.9076   -2.6237    0.1125 C.ar    1  UNL1        0.0163
     11 C          -1.6330   -3.0432   -0.1626 C.ar    1  UNL1        0.1902
     12 O          -1.4633   -4.2482   -0.4706 O.2     1  UNL1       -0.2871
     13 C          -0.6197   -2.1177   -0.0839 C.ar    1  UNL1        0.0464
     14 C           0.6253   -2.6760   -0.3193 C.ar    1  UNL1       -0.0346
     15 C           1.7467   -1.8859   -0.2179 C.ar    1  UNL1        0.0651
     16 C           1.5280   -0.5644    0.1179 C.ar    1  UNL1        0.1447
     17 O           2.6186    0.1697    0.2095 O.2     1  UNL1       -0.4477
     18 C           3.8124   -0.2934    0.0040 C.ar    1  UNL1        0.2155
     19 C           4.0904   -1.5915   -0.3308 C.ar    1  UNL1        0.0352
     20 C           2.9920   -2.4115   -0.4425 C.ar    1  UNL1        0.1933
     21 O           3.0787   -3.6263   -0.7426 O.2     1  UNL1       -0.2870
     22 C           4.9145    0.6567    0.1468 C.2     1  UNL1        0.3726
     23 O           6.2582    0.3491   -0.0325 O.3     1  UNL1       -0.4750
     24 O           4.6583    1.8632    0.4579 O.2     1  UNL1       -0.2417
     25 C          -4.3961   -0.8676    0.7316 C.2     1  UNL1        0.3536
     26 O          -5.4942   -0.1487    1.0541 O.3     1  UNL1       -0.4761
     27 O          -5.3849   -1.6819    0.6720 O.2     1  UNL1       -0.2435
     28 H           1.5399    1.5023   -1.9218 H       1  UNL1        0.0230
     29 H           1.3935    3.2324   -2.1216 H       1  UNL1        0.0230
     30 H           2.3365    2.7155   -0.7499 H       1  UNL1        0.0230
     31 H          -0.6124    2.3501   -1.2551 H       1  UNL1        0.0266
     32 H           0.0869    3.5439   -0.1840 H       1  UNL1        0.0266
     33 H          -0.0178    1.8740    1.6524 H       1  UNL1        0.0315
     34 H           1.3330    1.7020    0.8981 H       1  UNL1        0.0315
     35 H          -3.3263    0.8033    1.4545 H       1  UNL1        0.0489
     36 H          -2.0054    1.5777    1.6542 H       1  UNL1        0.0489
     37 H          -2.6897    2.8275   -0.1847 H       1  UNL1        0.0247
     38 H          -4.1335    1.8291   -0.2837 H       1  UNL1        0.0247
     39 H          -2.7842    1.4440   -1.3000 H       1  UNL1        0.0247
     40 H          -3.7509   -3.2877    0.0720 H       1  UNL1        0.0679
     41 H           0.7851   -3.7053   -0.5833 H       1  UNL1        0.0633
     42 H           5.0817   -1.9805   -0.5022 H       1  UNL1        0.0695
     43 H           6.9395    1.0897   -0.2420 H       1  UNL1        0.2955
     44 H          -5.5675    0.3235    1.9643 H       1  UNL1        0.2955
@<TRIPOS>BOND
     1     1     2    1
     2     2     3    1
     3     3     4    1
     4     4     5   ar
     5     5     6   ar
     6     6     7    1
     7     7     8    1
     8     6     9   ar
     9     9    10   ar
    10    10    11   ar
    11    11    12    2
    12    11    13   ar
    13    13    14   ar
    14    14    15   ar
    15    15    16   ar
    16    16    17   ar
    17    17    18   ar
    18    18    19   ar
    19    19    20   ar
    20    20    21    2
    21    18    22    1
    22    22    23    1
    23    22    24    2
    24     9    25    1
    25    25    26    1
    26    25    27    2
    27    16     4   ar
    28    13     5   ar
    29    20    15   ar
    30     1    28    1
    31     1    29    1
    32     1    30    1
    33     2    31    1
    34     2    32    1
    35     3    33    1
    36     3    34    1
    37     7    35    1
    38     7    36    1
    39     8    37    1
    40     8    38    1
    41     8    39    1
    42    10    40    1
    43    14    41    1
    44    19    42    1
    45    23    43    1
    46    26    44    1
