
     RDKit          3D

 44 46  0  0  0  0  0  0  0  0999 V2000
    1.4484    2.4238   -1.3423 C   0  0  0  0  0  0  0  0  0  0  0  0
    0.1727    2.4890   -0.4945 C   0  0  0  0  0  0  0  0  0  0  0  0
    0.2200    1.5183    0.6320 C   0  0  0  0  0  0  0  0  0  0  0  0
    0.3005    0.0950    0.3735 C   0  0  0  0  0  0  0  0  0  0  0  0
   -0.7658   -0.8035    0.2439 C   0  0  0  0  0  0  0  0  0  0  0  0
   -1.9960   -0.3201    0.5283 N   0  0  0  0  0  0  0  0  0  0  0  0
   -2.3839    0.9934    0.8265 C   0  0  0  0  0  0  0  0  0  0  0  0
   -3.0332    1.7789   -0.2807 C   0  0  0  0  0  0  0  0  0  0  0  0
   -2.9954   -1.2752    0.4425 C   0  0  0  0  0  0  0  0  0  0  0  0
   -2.9076   -2.6237    0.1125 C   0  0  0  0  0  0  0  0  0  0  0  0
   -1.6330   -3.0432   -0.1626 C   0  0  0  0  0  0  0  0  0  0  0  0
   -1.4633   -4.2482   -0.4706 O   0  0  0  0  0  0  0  0  0  0  0  0
   -0.6197   -2.1177   -0.0839 C   0  0  0  0  0  0  0  0  0  0  0  0
    0.6253   -2.6760   -0.3193 C   0  0  0  0  0  0  0  0  0  0  0  0
    1.7467   -1.8859   -0.2179 C   0  0  0  0  0  0  0  0  0  0  0  0
    1.5280   -0.5644    0.1179 C   0  0  0  0  0  0  0  0  0  0  0  0
    2.6186    0.1697    0.2095 O   0  0  0  0  0  0  0  0  0  0  0  0
    3.8124   -0.2934    0.0040 C   0  0  0  0  0  0  0  0  0  0  0  0
    4.0904   -1.5915   -0.3308 C   0  0  0  0  0  0  0  0  0  0  0  0
    2.9920   -2.4115   -0.4425 C   0  0  0  0  0  0  0  0  0  0  0  0
    3.0787   -3.6263   -0.7426 O   0  0  0  0  0  0  0  0  0  0  0  0
    4.9145    0.6567    0.1468 C   0  0  0  0  0  0  0  0  0  0  0  0
    6.2582    0.3491   -0.0325 O   0  0  0  0  0  0  0  0  0  0  0  0
    4.6583    1.8632    0.4579 O   0  0  0  0  0  0  0  0  0  0  0  0
   -4.3961   -0.8676    0.7316 C   0  0  0  0  0  0  0  0  0  0  0  0
   -5.4942   -0.1487    1.0541 O   0  0  0  0  0  0  0  0  0  0  0  0
   -5.3849   -1.6819    0.6720 O   0  0  0  0  0  0  0  0  0  0  0  0
    1.5399    1.5023   -1.9218 H   0  0  0  0  0  0  0  0  0  0  0  0
    1.3935    3.2324   -2.1216 H   0  0  0  0  0  0  0  0  0  0  0  0
    2.3365    2.7155   -0.7499 H   0  0  0  0  0  0  0  0  0  0  0  0
   -0.6124    2.3501   -1.2551 H   0  0  0  0  0  0  0  0  0  0  0  0
    0.0869    3.5439   -0.1840 H   0  0  0  0  0  0  0  0  0  0  0  0
   -0.0178    1.8740    1.6524 H   0  0  0  0  0  0  0  0  0  0  0  0
    1.3330    1.7020    0.8981 H   0  0  0  0  0  0  0  0  0  0  0  0
   -3.3263    0.8033    1.4545 H   0  0  0  0  0  0  0  0  0  0  0  0
   -2.0054    1.5777    1.6542 H   0  0  0  0  0  0  0  0  0  0  0  0
   -2.6897    2.8275   -0.1847 H   0  0  0  0  0  0  0  0  0  0  0  0
   -4.1335    1.8291   -0.2837 H   0  0  0  0  0  0  0  0  0  0  0  0
   -2.7842    1.4440   -1.3000 H   0  0  0  0  0  0  0  0  0  0  0  0
   -3.7509   -3.2877    0.0720 H   0  0  0  0  0  0  0  0  0  0  0  0
    0.7851   -3.7053   -0.5833 H   0  0  0  0  0  0  0  0  0  0  0  0
    5.0817   -1.9805   -0.5022 H   0  0  0  0  0  0  0  0  0  0  0  0
    6.9395    1.0897   -0.2420 H   0  0  0  0  0  0  0  0  0  0  0  0
   -5.5675    0.3235    1.9643 H   0  0  0  0  0  0  0  0  0  0  0  0
  1  2  1  0
  2  3  1  0
  3  4  1  0
  4  5  2  0
  5  6  1  0
  6  7  1  0
  7  8  1  0
  6  9  1  0
  9 10  2  0
 10 11  1  0
 11 12  2  0
 11 13  1  0
 13 14  2  0
 14 15  1  0
 15 16  2  0
 16 17  1  0
 17 18  1  0
 18 19  2  0
 19 20  1  0
 20 21  2  0
 18 22  1  0
 22 23  1  0
 22 24  2  0
  9 25  1  0
 25 26  1  0
 25 27  2  0
 16  4  1  0
 13  5  1  0
 20 15  1  0
  1 28  1  0
  1 29  1  0
  1 30  1  0
  2 31  1  0
  2 32  1  0
  3 33  1  0
  3 34  1  0
  7 35  1  0
  7 36  1  0
  8 37  1  0
  8 38  1  0
  8 39  1  0
 10 40  1  0
 14 41  1  0
 19 42  1  0
 23 43  1  0
 26 44  1  0
M  END
$$$$
