@<TRIPOS>MOLECULE
*****
 73 77 0 0 0
SMALL
GASTEIGER

@<TRIPOS>ATOM
      1 C           9.2780    2.7171   -0.7681 C.3     1  UNL1       -0.0306
      2 C           9.1391    2.0299   -2.0949 C.3     1  UNL1        0.0885
      3 O           7.9874    1.2287   -2.0854 O.3     1  UNL1       -0.4744
      4 C           7.8707    0.2114   -1.1522 C.ar    1  UNL1        0.2555
      5 N           8.7862   -0.0960   -0.2064 N.ar    1  UNL1       -0.1317
      6 N           8.3910   -1.1127    0.5359 N.ar    1  UNL1       -0.2692
      7 C           9.1065   -1.7239    1.6395 C.3     1  UNL1        0.0304
      8 C           7.1704   -1.4850    0.0580 C.ar    1  UNL1        0.0503
      9 C           6.8287   -0.6683   -0.9983 C.ar    1  UNL1        0.1152
     10 N           5.6600   -0.7016   -1.8074 N.pl3   1  UNL1       -0.2782
     11 C           4.6145   -1.6268   -1.5674 C.ar    1  UNL1        0.2203
     12 N           4.7831   -2.9128   -1.9029 N.ar    1  UNL1       -0.2198
     13 C           3.8619   -3.8477   -1.7199 C.ar    1  UNL1        0.0685
     14 C           2.6366   -3.4789   -1.1426 C.ar    1  UNL1        0.1674
     15 F           1.6724   -4.3756   -0.9327 F       1  UNL1       -0.2016
     16 C           2.4509   -2.1685   -0.7962 C.ar    1  UNL1        0.1132
     17 C           1.2155   -1.6762   -0.2177 C.ar    1  UNL1        0.0284
     18 C           0.0902   -2.3816    0.1489 C.ar    1  UNL1        0.0121
     19 N          -0.8233   -1.5405    0.6525 N.ar    1  UNL1       -0.3586
     20 C          -0.3604   -0.2813    0.6426 C.ar    1  UNL1        0.0686
     21 C          -0.9259    0.9115    1.0396 C.ar    1  UNL1        0.0576
     22 N          -2.2336    0.9545    1.6007 N.am    1  UNL1       -0.2825
     23 C          -3.3694    1.0436    0.7702 C.2     1  UNL1        0.2342
     24 O          -3.1414    1.0800   -0.4854 O.2     1  UNL1       -0.2738
     25 C          -4.7555    1.0940    1.2412 C.3     1  UNL1        0.0848
     26 C          -5.0189    2.3391    2.0690 C.3     1  UNL1       -0.0409
     27 N          -5.7074    0.9212    0.1899 N.3     1  UNL1       -0.2890
     28 C          -5.6394   -0.3390   -0.4148 C.3     1  UNL1        0.0124
     29 C          -6.8228   -0.8241   -1.1865 C.3     1  UNL1        0.0117
     30 N          -8.0218   -0.5657   -0.4208 N.3     1  UNL1       -0.3002
     31 C          -8.1124   -1.2846    0.8104 C.3     1  UNL1       -0.0124
     32 C          -8.1284    0.8580   -0.2808 C.3     1  UNL1        0.0201
     33 C          -9.4408    1.2634    0.3658 C.3     1  UNL1       -0.0483
     34 C          -6.9825    1.4911    0.4260 C.3     1  UNL1        0.0150
     35 C          -0.1669    2.0473    0.8761 C.ar    1  UNL1       -0.0384
     36 C           1.0944    2.0138    0.3450 C.ar    1  UNL1       -0.0593
     37 C           1.6364    0.8073   -0.0438 C.ar    1  UNL1       -0.0518
     38 C           0.9036   -0.3500    0.1054 C.ar    1  UNL1        0.0107
     39 N           3.4508   -1.2803   -1.0209 N.ar    1  UNL1       -0.2113
     40 H           8.3378    3.0688   -0.3482 H       1  UNL1        0.0262
     41 H           9.8288    2.0206   -0.0818 H       1  UNL1        0.0262
     42 H          10.0071    3.5617   -0.9189 H       1  UNL1        0.0262
     43 H          10.0213    1.4235   -2.3642 H       1  UNL1        0.0694
     44 H           9.0684    2.8210   -2.8802 H       1  UNL1        0.0694
     45 H           9.7654   -1.0323    2.1678 H       1  UNL1        0.0473
     46 H           8.3937   -2.1323    2.3825 H       1  UNL1        0.0473
     47 H           9.6781   -2.6298    1.2759 H       1  UNL1        0.0473
     48 H           6.5568   -2.2862    0.4312 H       1  UNL1        0.0846
     49 H           5.5584   -0.0390   -2.5918 H       1  UNL1        0.1552
     50 H           3.9795   -4.8782   -1.9808 H       1  UNL1        0.0861
     51 H          -0.0436   -3.4548    0.0498 H       1  UNL1        0.0814
     52 H          -1.7622   -1.8574    0.9979 H       1  UNL1        0.1654
     53 H          -2.3397    0.9206    2.6137 H       1  UNL1        0.1549
     54 H          -4.8984    0.2292    1.9513 H       1  UNL1        0.0556
     55 H          -5.7919    2.0978    2.8205 H       1  UNL1        0.0249
     56 H          -5.2438    3.2126    1.4602 H       1  UNL1        0.0249
     57 H          -4.0828    2.5586    2.6220 H       1  UNL1        0.0249
     58 H          -4.7711   -0.3929   -1.1053 H       1  UNL1        0.0439
     59 H          -5.4162   -1.1063    0.3880 H       1  UNL1        0.0439
     60 H          -6.7027   -1.9277   -1.3181 H       1  UNL1        0.0439
     61 H          -6.8885   -0.2854   -2.1317 H       1  UNL1        0.0439
     62 H          -7.3909   -2.1089    0.8019 H       1  UNL1        0.0391
     63 H          -7.8950   -0.5631    1.6383 H       1  UNL1        0.0391
     64 H          -9.1344   -1.7229    0.9122 H       1  UNL1        0.0391
     65 H          -8.1647    1.2729   -1.3278 H       1  UNL1        0.0472
     66 H          -9.5974    0.6292    1.2556 H       1  UNL1        0.0245
     67 H         -10.2822    1.1668   -0.3558 H       1  UNL1        0.0245
     68 H          -9.3441    2.3159    0.6631 H       1  UNL1        0.0245
     69 H          -6.9491    2.5683    0.0878 H       1  UNL1        0.0442
     70 H          -7.2470    1.5403    1.5102 H       1  UNL1        0.0442
     71 H          -0.5837    3.0191    1.1816 H       1  UNL1        0.0637
     72 H           1.7023    2.9127    0.2117 H       1  UNL1        0.0618
     73 H           2.6543    0.7873   -0.4727 H       1  UNL1        0.0624
@<TRIPOS>BOND
     1     1     2    1
     2     2     3    1
     3     3     4    1
     4     4     5   ar
     5     5     6   ar
     6     6     7    1
     7     6     8   ar
     8     8     9   ar
     9     9    10    1
    10    10    11    1
    11    11    12   ar
    12    12    13   ar
    13    13    14   ar
    14    14    15    1
    15    14    16   ar
    16    16    17    1
    17    17    18   ar
    18    18    19   ar
    19    19    20   ar
    20    20    21   ar
    21    21    22    1
    22    22    23   am
    23    23    24    2
    24    23    25    1
    25    25    26    1
    26    25    27    1
    27    27    28    1
    28    28    29    1
    29    29    30    1
    30    30    31    1
    31    30    32    1
    32    32    33    1
    33    32    34    1
    34    21    35   ar
    35    35    36   ar
    36    36    37   ar
    37    37    38   ar
    38    16    39   ar
    39     9     4   ar
    40    39    11   ar
    41    38    17   ar
    42    38    20   ar
    43    34    27    1
    44     1    40    1
    45     1    41    1
    46     1    42    1
    47     2    43    1
    48     2    44    1
    49     7    45    1
    50     7    46    1
    51     7    47    1
    52     8    48    1
    53    10    49    1
    54    13    50    1
    55    18    51    1
    56    19    52    1
    57    22    53    1
    58    25    54    1
    59    26    55    1
    60    26    56    1
    61    26    57    1
    62    28    58    1
    63    28    59    1
    64    29    60    1
    65    29    61    1
    66    31    62    1
    67    31    63    1
    68    31    64    1
    69    32    65    1
    70    33    66    1
    71    33    67    1
    72    33    68    1
    73    34    69    1
    74    34    70    1
    75    35    71    1
    76    36    72    1
    77    37    73    1
