
     RDKit          3D

 73 77  0  0  0  0  0  0  0  0999 V2000
    9.2780    2.7171   -0.7681 C   0  0  0  0  0  0  0  0  0  0  0  0
    9.1391    2.0299   -2.0949 C   0  0  0  0  0  0  0  0  0  0  0  0
    7.9874    1.2287   -2.0854 O   0  0  0  0  0  0  0  0  0  0  0  0
    7.8707    0.2114   -1.1522 C   0  0  0  0  0  0  0  0  0  0  0  0
    8.7862   -0.0960   -0.2064 N   0  0  0  0  0  0  0  0  0  0  0  0
    8.3910   -1.1127    0.5359 N   0  0  0  0  0  0  0  0  0  0  0  0
    9.1065   -1.7239    1.6395 C   0  0  0  0  0  0  0  0  0  0  0  0
    7.1704   -1.4850    0.0580 C   0  0  0  0  0  0  0  0  0  0  0  0
    6.8287   -0.6683   -0.9983 C   0  0  0  0  0  0  0  0  0  0  0  0
    5.6600   -0.7016   -1.8074 N   0  0  0  0  0  0  0  0  0  0  0  0
    4.6145   -1.6268   -1.5674 C   0  0  0  0  0  0  0  0  0  0  0  0
    4.7831   -2.9128   -1.9029 N   0  0  0  0  0  0  0  0  0  0  0  0
    3.8619   -3.8477   -1.7199 C   0  0  0  0  0  0  0  0  0  0  0  0
    2.6366   -3.4789   -1.1426 C   0  0  0  0  0  0  0  0  0  0  0  0
    1.6724   -4.3756   -0.9327 F   0  0  0  0  0  0  0  0  0  0  0  0
    2.4509   -2.1685   -0.7962 C   0  0  0  0  0  0  0  0  0  0  0  0
    1.2155   -1.6762   -0.2177 C   0  0  0  0  0  0  0  0  0  0  0  0
    0.0902   -2.3816    0.1489 C   0  0  0  0  0  0  0  0  0  0  0  0
   -0.8233   -1.5405    0.6525 N   0  0  0  0  0  0  0  0  0  0  0  0
   -0.3604   -0.2813    0.6426 C   0  0  0  0  0  0  0  0  0  0  0  0
   -0.9259    0.9115    1.0396 C   0  0  0  0  0  0  0  0  0  0  0  0
   -2.2336    0.9545    1.6007 N   0  0  0  0  0  0  0  0  0  0  0  0
   -3.3694    1.0436    0.7702 C   0  0  0  0  0  0  0  0  0  0  0  0
   -3.1414    1.0800   -0.4854 O   0  0  0  0  0  0  0  0  0  0  0  0
   -4.7555    1.0940    1.2412 C   0  0  1  0  0  0  0  0  0  0  0  0
   -5.0189    2.3391    2.0690 C   0  0  0  0  0  0  0  0  0  0  0  0
   -5.7074    0.9212    0.1899 N   0  0  0  0  0  0  0  0  0  0  0  0
   -5.6394   -0.3390   -0.4148 C   0  0  0  0  0  0  0  0  0  0  0  0
   -6.8228   -0.8241   -1.1865 C   0  0  0  0  0  0  0  0  0  0  0  0
   -8.0218   -0.5657   -0.4208 N   0  0  0  0  0  0  0  0  0  0  0  0
   -8.1124   -1.2846    0.8104 C   0  0  0  0  0  0  0  0  0  0  0  0
   -8.1284    0.8580   -0.2808 C   0  0  1  0  0  0  0  0  0  0  0  0
   -9.4408    1.2634    0.3658 C   0  0  0  0  0  0  0  0  0  0  0  0
   -6.9825    1.4911    0.4260 C   0  0  0  0  0  0  0  0  0  0  0  0
   -0.1669    2.0473    0.8761 C   0  0  0  0  0  0  0  0  0  0  0  0
    1.0944    2.0138    0.3450 C   0  0  0  0  0  0  0  0  0  0  0  0
    1.6364    0.8073   -0.0438 C   0  0  0  0  0  0  0  0  0  0  0  0
    0.9036   -0.3500    0.1054 C   0  0  0  0  0  0  0  0  0  0  0  0
    3.4508   -1.2803   -1.0209 N   0  0  0  0  0  0  0  0  0  0  0  0
    8.3378    3.0688   -0.3482 H   0  0  0  0  0  0  0  0  0  0  0  0
    9.8288    2.0206   -0.0818 H   0  0  0  0  0  0  0  0  0  0  0  0
   10.0071    3.5617   -0.9189 H   0  0  0  0  0  0  0  0  0  0  0  0
   10.0213    1.4235   -2.3642 H   0  0  0  0  0  0  0  0  0  0  0  0
    9.0684    2.8210   -2.8802 H   0  0  0  0  0  0  0  0  0  0  0  0
    9.7654   -1.0323    2.1678 H   0  0  0  0  0  0  0  0  0  0  0  0
    8.3937   -2.1323    2.3825 H   0  0  0  0  0  0  0  0  0  0  0  0
    9.6781   -2.6298    1.2759 H   0  0  0  0  0  0  0  0  0  0  0  0
    6.5568   -2.2862    0.4312 H   0  0  0  0  0  0  0  0  0  0  0  0
    5.5584   -0.0390   -2.5918 H   0  0  0  0  0  0  0  0  0  0  0  0
    3.9795   -4.8782   -1.9808 H   0  0  0  0  0  0  0  0  0  0  0  0
   -0.0436   -3.4548    0.0498 H   0  0  0  0  0  0  0  0  0  0  0  0
   -1.7622   -1.8574    0.9979 H   0  0  0  0  0  0  0  0  0  0  0  0
   -2.3397    0.9206    2.6137 H   0  0  0  0  0  0  0  0  0  0  0  0
   -4.8984    0.2292    1.9513 H   0  0  0  0  0  0  0  0  0  0  0  0
   -5.7919    2.0978    2.8205 H   0  0  0  0  0  0  0  0  0  0  0  0
   -5.2438    3.2126    1.4602 H   0  0  0  0  0  0  0  0  0  0  0  0
   -4.0828    2.5586    2.6220 H   0  0  0  0  0  0  0  0  0  0  0  0
   -4.7711   -0.3929   -1.1053 H   0  0  0  0  0  0  0  0  0  0  0  0
   -5.4162   -1.1063    0.3880 H   0  0  0  0  0  0  0  0  0  0  0  0
   -6.7027   -1.9277   -1.3181 H   0  0  0  0  0  0  0  0  0  0  0  0
   -6.8885   -0.2854   -2.1317 H   0  0  0  0  0  0  0  0  0  0  0  0
   -7.3909   -2.1089    0.8019 H   0  0  0  0  0  0  0  0  0  0  0  0
   -7.8950   -0.5631    1.6383 H   0  0  0  0  0  0  0  0  0  0  0  0
   -9.1344   -1.7229    0.9122 H   0  0  0  0  0  0  0  0  0  0  0  0
   -8.1647    1.2729   -1.3278 H   0  0  0  0  0  0  0  0  0  0  0  0
   -9.5974    0.6292    1.2556 H   0  0  0  0  0  0  0  0  0  0  0  0
  -10.2822    1.1668   -0.3558 H   0  0  0  0  0  0  0  0  0  0  0  0
   -9.3441    2.3159    0.6631 H   0  0  0  0  0  0  0  0  0  0  0  0
   -6.9491    2.5683    0.0878 H   0  0  0  0  0  0  0  0  0  0  0  0
   -7.2470    1.5403    1.5102 H   0  0  0  0  0  0  0  0  0  0  0  0
   -0.5837    3.0191    1.1816 H   0  0  0  0  0  0  0  0  0  0  0  0
    1.7023    2.9127    0.2117 H   0  0  0  0  0  0  0  0  0  0  0  0
    2.6543    0.7873   -0.4727 H   0  0  0  0  0  0  0  0  0  0  0  0
  1  2  1  0
  2  3  1  0
  3  4  1  0
  4  5  2  0
  5  6  1  0
  6  7  1  0
  6  8  1  0
  8  9  2  0
  9 10  1  0
 10 11  1  0
 11 12  2  0
 12 13  1  0
 13 14  2  0
 14 15  1  0
 14 16  1  0
 16 17  1  0
 17 18  2  0
 18 19  1  0
 19 20  1  0
 20 21  2  0
 21 22  1  0
 22 23  1  0
 23 24  2  0
 23 25  1  0
 25 26  1  0
 25 27  1  0
 27 28  1  0
 28 29  1  0
 29 30  1  0
 30 31  1  0
 30 32  1  0
 32 33  1  0
 32 34  1  0
 21 35  1  0
 35 36  2  0
 36 37  1  0
 37 38  2  0
 16 39  2  0
  9  4  1  0
 39 11  1  0
 38 17  1  0
 38 20  1  0
 34 27  1  0
  1 40  1  0
  1 41  1  0
  1 42  1  0
  2 43  1  0
  2 44  1  0
  7 45  1  0
  7 46  1  0
  7 47  1  0
  8 48  1  0
 10 49  1  0
 13 50  1  0
 18 51  1  0
 19 52  1  0
 22 53  1  0
 25 54  1  1
 26 55  1  0
 26 56  1  0
 26 57  1  0
 28 58  1  0
 28 59  1  0
 29 60  1  0
 29 61  1  0
 31 62  1  0
 31 63  1  0
 31 64  1  0
 32 65  1  6
 33 66  1  0
 33 67  1  0
 33 68  1  0
 34 69  1  0
 34 70  1  0
 35 71  1  0
 36 72  1  0
 37 73  1  0
M  END
$$$$
