@<TRIPOS>MOLECULE
*****
 48 51 0 0 0
SMALL
GASTEIGER

@<TRIPOS>ATOM
      1 C          -0.4501    0.6722   -0.3716 C.3     1  UNL1        0.0213
      2 C          -1.6893    1.2651    0.1319 C.3     1  UNL1       -0.0095
      3 C          -2.7889    0.2643    0.2128 C.ar    1  UNL1       -0.0206
      4 C          -4.1841    0.4346    0.1874 C.ar    1  UNL1        0.0060
      5 N          -4.7449   -0.7978    0.3024 N.ar    1  UNL1       -0.3604
      6 C          -3.8069   -1.7544    0.4001 C.ar    1  UNL1        0.0470
      7 C          -3.6616   -3.1155    0.5353 C.ar    1  UNL1       -0.0378
      8 C          -2.4031   -3.7089    0.6035 C.ar    1  UNL1       -0.0595
      9 C          -1.2448   -2.9243    0.5340 C.ar    1  UNL1       -0.0576
     10 C          -1.3267   -1.5337    0.3956 C.ar    1  UNL1       -0.0334
     11 C          -2.6154   -1.0698    0.3411 C.ar    1  UNL1        0.0064
     12 C          -0.1381   -0.6427    0.3065 C.3     1  UNL1        0.0010
     13 C           0.8685   -1.3687   -0.5987 C.3     1  UNL1       -0.0400
     14 C           2.0885   -0.4871   -0.6732 C.3     1  UNL1       -0.0186
     15 C           3.0694   -1.1201   -1.6297 C.3     1  UNL1       -0.0026
     16 S           3.5737   -2.7615   -1.0461 S.3     1  UNL1       -0.1638
     17 C           4.5456   -2.5826    0.4981 C.3     1  UNL1       -0.0181
     18 C           1.6982    0.8547   -1.1986 C.3     1  UNL1        0.0028
     19 N           0.7479    1.5082   -0.2581 N.3     1  UNL1       -0.2982
     20 C           0.5732    2.8045   -0.8404 C.3     1  UNL1       -0.0010
     21 C           0.0080    3.8771    0.0176 C.3     1  UNL1       -0.0430
     22 C           0.9215    4.1388    1.2353 C.3     1  UNL1       -0.0641
     23 H          -0.5725    0.4837   -1.4684 H       1  UNL1        0.0472
     24 H          -1.5455    1.6072    1.1838 H       1  UNL1        0.0329
     25 H          -2.1165    2.0636   -0.5298 H       1  UNL1        0.0329
     26 H          -4.7411    1.3748    0.0944 H       1  UNL1        0.0810
     27 H          -5.7560   -1.0449    0.3205 H       1  UNL1        0.1653
     28 H          -4.5999   -3.6798    0.5825 H       1  UNL1        0.0638
     29 H          -2.3388   -4.7937    0.7087 H       1  UNL1        0.0618
     30 H          -0.3230   -3.4347    0.5950 H       1  UNL1        0.0621
     31 H           0.3264   -0.4631    1.3062 H       1  UNL1        0.0364
     32 H           0.3887   -1.4207   -1.6159 H       1  UNL1        0.0275
     33 H           1.1174   -2.3816   -0.2168 H       1  UNL1        0.0275
     34 H           2.5500   -0.4288    0.3443 H       1  UNL1        0.0321
     35 H           3.9136   -0.4271   -1.7691 H       1  UNL1        0.0379
     36 H           2.5616   -1.2349   -2.6261 H       1  UNL1        0.0379
     37 H           5.4653   -3.1910    0.4840 H       1  UNL1        0.0340
     38 H           3.8641   -2.8923    1.3175 H       1  UNL1        0.0340
     39 H           4.8208   -1.5157    0.6633 H       1  UNL1        0.0340
     40 H           1.2062    0.7616   -2.1571 H       1  UNL1        0.0430
     41 H           2.5817    1.5082   -1.2401 H       1  UNL1        0.0430
     42 H           0.0048    2.7017   -1.8156 H       1  UNL1        0.0426
     43 H           1.5704    3.2136   -1.2084 H       1  UNL1        0.0426
     44 H          -0.9822    3.7499    0.4096 H       1  UNL1        0.0275
     45 H           0.1128    4.8343   -0.5910 H       1  UNL1        0.0275
     46 H           0.8318    5.1884    1.5698 H       1  UNL1        0.0230
     47 H           0.6306    3.5054    2.0904 H       1  UNL1        0.0230
     48 H           1.9887    3.9635    0.9875 H       1  UNL1        0.0230
@<TRIPOS>BOND
     1     1     2    1
     2     2     3    1
     3     3     4   ar
     4     4     5   ar
     5     5     6   ar
     6     6     7   ar
     7     7     8   ar
     8     8     9   ar
     9     9    10   ar
    10    10    11   ar
    11    10    12    1
    12    12    13    1
    13    13    14    1
    14    14    15    1
    15    15    16    1
    16    16    17    1
    17    14    18    1
    18    18    19    1
    19    19    20    1
    20    20    21    1
    21    21    22    1
    22    12     1    1
    23    19     1    1
    24    11     3   ar
    25    11     6   ar
    26     1    23    1
    27     2    24    1
    28     2    25    1
    29     4    26    1
    30     5    27    1
    31     7    28    1
    32     8    29    1
    33     9    30    1
    34    12    31    1
    35    13    32    1
    36    13    33    1
    37    14    34    1
    38    15    35    1
    39    15    36    1
    40    17    37    1
    41    17    38    1
    42    17    39    1
    43    18    40    1
    44    18    41    1
    45    20    42    1
    46    20    43    1
    47    21    44    1
    48    21    45    1
    49    22    46    1
    50    22    47    1
    51    22    48    1
