
     RDKit          3D

 48 51  0  0  0  0  0  0  0  0999 V2000
   -0.4501    0.6722   -0.3716 C   0  0  2  0  0  0  0  0  0  0  0  0
   -1.6893    1.2651    0.1319 C   0  0  0  0  0  0  0  0  0  0  0  0
   -2.7889    0.2643    0.2128 C   0  0  0  0  0  0  0  0  0  0  0  0
   -4.1841    0.4346    0.1874 C   0  0  0  0  0  0  0  0  0  0  0  0
   -4.7449   -0.7978    0.3024 N   0  0  0  0  0  0  0  0  0  0  0  0
   -3.8069   -1.7544    0.4001 C   0  0  0  0  0  0  0  0  0  0  0  0
   -3.6616   -3.1155    0.5353 C   0  0  0  0  0  0  0  0  0  0  0  0
   -2.4031   -3.7089    0.6035 C   0  0  0  0  0  0  0  0  0  0  0  0
   -1.2448   -2.9243    0.5340 C   0  0  0  0  0  0  0  0  0  0  0  0
   -1.3267   -1.5337    0.3956 C   0  0  0  0  0  0  0  0  0  0  0  0
   -2.6154   -1.0698    0.3411 C   0  0  0  0  0  0  0  0  0  0  0  0
   -0.1381   -0.6427    0.3065 C   0  0  1  0  0  0  0  0  0  0  0  0
    0.8685   -1.3687   -0.5987 C   0  0  0  0  0  0  0  0  0  0  0  0
    2.0885   -0.4871   -0.6732 C   0  0  1  0  0  0  0  0  0  0  0  0
    3.0694   -1.1201   -1.6297 C   0  0  0  0  0  0  0  0  0  0  0  0
    3.5737   -2.7615   -1.0461 S   0  0  0  0  0  0  0  0  0  0  0  0
    4.5456   -2.5826    0.4981 C   0  0  0  0  0  0  0  0  0  0  0  0
    1.6982    0.8547   -1.1986 C   0  0  0  0  0  0  0  0  0  0  0  0
    0.7479    1.5082   -0.2581 N   0  0  0  0  0  0  0  0  0  0  0  0
    0.5732    2.8045   -0.8404 C   0  0  0  0  0  0  0  0  0  0  0  0
    0.0080    3.8771    0.0176 C   0  0  0  0  0  0  0  0  0  0  0  0
    0.9215    4.1388    1.2353 C   0  0  0  0  0  0  0  0  0  0  0  0
   -0.5725    0.4837   -1.4684 H   0  0  0  0  0  0  0  0  0  0  0  0
   -1.5455    1.6072    1.1838 H   0  0  0  0  0  0  0  0  0  0  0  0
   -2.1165    2.0636   -0.5298 H   0  0  0  0  0  0  0  0  0  0  0  0
   -4.7411    1.3748    0.0944 H   0  0  0  0  0  0  0  0  0  0  0  0
   -5.7560   -1.0449    0.3205 H   0  0  0  0  0  0  0  0  0  0  0  0
   -4.5999   -3.6798    0.5825 H   0  0  0  0  0  0  0  0  0  0  0  0
   -2.3388   -4.7937    0.7087 H   0  0  0  0  0  0  0  0  0  0  0  0
   -0.3230   -3.4347    0.5950 H   0  0  0  0  0  0  0  0  0  0  0  0
    0.3264   -0.4631    1.3062 H   0  0  0  0  0  0  0  0  0  0  0  0
    0.3887   -1.4207   -1.6159 H   0  0  0  0  0  0  0  0  0  0  0  0
    1.1174   -2.3816   -0.2168 H   0  0  0  0  0  0  0  0  0  0  0  0
    2.5500   -0.4288    0.3443 H   0  0  0  0  0  0  0  0  0  0  0  0
    3.9136   -0.4271   -1.7691 H   0  0  0  0  0  0  0  0  0  0  0  0
    2.5616   -1.2349   -2.6261 H   0  0  0  0  0  0  0  0  0  0  0  0
    5.4653   -3.1910    0.4840 H   0  0  0  0  0  0  0  0  0  0  0  0
    3.8641   -2.8923    1.3175 H   0  0  0  0  0  0  0  0  0  0  0  0
    4.8208   -1.5157    0.6633 H   0  0  0  0  0  0  0  0  0  0  0  0
    1.2062    0.7616   -2.1571 H   0  0  0  0  0  0  0  0  0  0  0  0
    2.5817    1.5082   -1.2401 H   0  0  0  0  0  0  0  0  0  0  0  0
    0.0048    2.7017   -1.8156 H   0  0  0  0  0  0  0  0  0  0  0  0
    1.5704    3.2136   -1.2084 H   0  0  0  0  0  0  0  0  0  0  0  0
   -0.9822    3.7499    0.4096 H   0  0  0  0  0  0  0  0  0  0  0  0
    0.1128    4.8343   -0.5910 H   0  0  0  0  0  0  0  0  0  0  0  0
    0.8318    5.1884    1.5698 H   0  0  0  0  0  0  0  0  0  0  0  0
    0.6306    3.5054    2.0904 H   0  0  0  0  0  0  0  0  0  0  0  0
    1.9887    3.9635    0.9875 H   0  0  0  0  0  0  0  0  0  0  0  0
  1  2  1  0
  2  3  1  0
  3  4  2  0
  4  5  1  0
  5  6  1  0
  6  7  2  0
  7  8  1  0
  8  9  2  0
  9 10  1  0
 10 11  2  0
 10 12  1  0
 12 13  1  0
 13 14  1  0
 14 15  1  0
 15 16  1  0
 16 17  1  0
 14 18  1  0
 18 19  1  0
 19 20  1  0
 20 21  1  0
 21 22  1  0
 12  1  1  0
 19  1  1  0
 11  3  1  0
 11  6  1  0
  1 23  1  6
  2 24  1  0
  2 25  1  0
  4 26  1  0
  5 27  1  0
  7 28  1  0
  8 29  1  0
  9 30  1  0
 12 31  1  1
 13 32  1  0
 13 33  1  0
 14 34  1  1
 15 35  1  0
 15 36  1  0
 17 37  1  0
 17 38  1  0
 17 39  1  0
 18 40  1  0
 18 41  1  0
 20 42  1  0
 20 43  1  0
 21 44  1  0
 21 45  1  0
 22 46  1  0
 22 47  1  0
 22 48  1  0
M  END
$$$$
