@<TRIPOS>MOLECULE
*****
 41 42 0 0 0
SMALL
GASTEIGER

@<TRIPOS>ATOM
      1 C          -3.4292   -0.7548    0.4326 C.3     1  UNL1        0.1126
      2 C          -4.2468   -1.9934    0.1596 C.3     1  UNL1        0.0730
      3 O          -4.4431   -2.1608   -1.2093 O.3     1  UNL1       -0.3924
      4 O          -2.1844   -0.8624   -0.1868 O.3     1  UNL1       -0.3442
      5 C          -1.3995    0.1720    0.2408 C.3     1  UNL1        0.1833
      6 N          -0.0240    0.1129   -0.0448 N.2     1  UNL1       -0.1989
      7 C           0.6449   -0.6039   -0.8419 C.2     1  UNL1        0.3165
      8 O          -0.1868   -1.4916   -1.5527 O.2     1  UNL1       -0.4785
      9 N           2.0166   -0.2367   -0.7190 N.2     1  UNL1       -0.1596
     10 C           2.8338   -0.8323    0.0835 C.2     1  UNL1        0.2240
     11 O           2.4425   -1.8863    0.8985 O.2     1  UNL1       -0.4919
     12 C           4.2074   -0.3716    0.1233 C.ar    1  UNL1        0.0365
     13 C           5.1316   -0.9703    0.9638 C.ar    1  UNL1       -0.0495
     14 C           6.4462   -0.4993    0.9750 C.ar    1  UNL1       -0.0610
     15 C           6.8918    0.5384    0.1924 C.ar    1  UNL1       -0.0617
     16 C           5.9547    1.1370   -0.6523 C.ar    1  UNL1       -0.0610
     17 C           4.6613    0.6614   -0.6523 C.ar    1  UNL1       -0.0495
     18 C          -1.9260    1.5189   -0.2635 C.3     1  UNL1        0.1299
     19 O          -1.0172    2.4986    0.0769 O.3     1  UNL1       -0.3846
     20 C          -3.2825    1.6835    0.3736 C.3     1  UNL1        0.1136
     21 O          -3.8564    2.8873   -0.0322 O.3     1  UNL1       -0.3864
     22 C          -4.1081    0.4944   -0.0846 C.3     1  UNL1        0.1119
     23 O          -5.3669    0.6674    0.4452 O.3     1  UNL1       -0.3865
     24 H          -3.3331   -0.6407    1.5331 H       1  UNL1        0.0647
     25 H          -5.2379   -1.8949    0.6290 H       1  UNL1        0.0584
     26 H          -3.7356   -2.8484    0.6134 H       1  UNL1        0.0584
     27 H          -3.5485   -2.2798   -1.6430 H       1  UNL1        0.2095
     28 H          -1.5118    0.2157    1.3582 H       1  UNL1        0.0881
     29 H          -0.9343   -1.1491   -2.1410 H       1  UNL1        0.2953
     30 H           1.4631   -1.8955    1.2191 H       1  UNL1        0.2938
     31 H           4.8505   -1.7912    1.6064 H       1  UNL1        0.0625
     32 H           7.1432   -0.9869    1.6412 H       1  UNL1        0.0618
     33 H           7.9264    0.8259    0.2757 H       1  UNL1        0.0618
     34 H           6.2997    1.9560   -1.2721 H       1  UNL1        0.0618
     35 H           3.9690    1.1624   -1.3289 H       1  UNL1        0.0625
     36 H          -1.9945    1.4408   -1.3638 H       1  UNL1        0.0666
     37 H          -0.7192    2.4259    1.0139 H       1  UNL1        0.2101
     38 H          -3.1483    1.6355    1.4727 H       1  UNL1        0.0647
     39 H          -3.1234    3.5721    0.0063 H       1  UNL1        0.2100
     40 H          -4.0656    0.4859   -1.1930 H       1  UNL1        0.0647
     41 H          -6.0598    0.0580    0.1044 H       1  UNL1        0.2100
@<TRIPOS>BOND
     1     1     2    1
     2     2     3    1
     3     1     4    1
     4     4     5    1
     5     5     6    1
     6     6     7    2
     7     7     8    1
     8     7     9    1
     9     9    10    2
    10    10    11    1
    11    10    12    1
    12    12    13   ar
    13    13    14   ar
    14    14    15   ar
    15    15    16   ar
    16    16    17   ar
    17     5    18    1
    18    18    19    1
    19    18    20    1
    20    20    21    1
    21    20    22    1
    22    22    23    1
    23    22     1    1
    24    17    12   ar
    25     1    24    1
    26     2    25    1
    27     2    26    1
    28     3    27    1
    29     5    28    1
    30     8    29    1
    31    11    30    1
    32    13    31    1
    33    14    32    1
    34    15    33    1
    35    16    34    1
    36    17    35    1
    37    18    36    1
    38    19    37    1
    39    20    38    1
    40    21    39    1
    41    22    40    1
    42    23    41    1
