
     RDKit          3D

 51 53  0  0  0  0  0  0  0  0999 V2000
   -5.0170   -2.8019    1.0791 C   0  0  0  0  0  0  0  0  0  0  0  0
   -4.7599   -2.3809   -0.1972 O   0  0  0  0  0  0  0  0  0  0  0  0
   -5.1885   -1.1012   -0.5058 C   0  0  0  0  0  0  0  0  0  0  0  0
   -4.5583   -0.0823    0.3531 C   0  0  2  0  0  0  0  0  0  0  0  0
   -4.9975    1.3328    0.0472 C   0  0  0  0  0  0  0  0  0  0  0  0
   -3.9021    2.1427    0.6908 C   0  0  0  0  0  0  0  0  0  0  0  0
   -2.8544    1.1291    1.1454 C   0  0  0  0  0  0  0  0  0  0  0  0
   -3.1292   -0.0171    0.2958 N   0  0  0  0  0  0  0  0  0  0  0  0
   -2.4836    0.2919   -1.2373 S   0  0  0  0  0  6  0  0  0  0  0  0
   -2.6855   -0.8196   -2.2173 O   0  0  0  0  0  0  0  0  0  0  0  0
   -2.9904    1.5544   -1.8722 O   0  0  0  0  0  0  0  0  0  0  0  0
   -0.7432    0.4901   -1.0601 C   0  0  0  0  0  0  0  0  0  0  0  0
    0.0506   -0.6278   -1.1386 C   0  0  0  0  0  0  0  0  0  0  0  0
    1.4175   -0.5171   -1.0074 C   0  0  0  0  0  0  0  0  0  0  0  0
    2.4207   -2.1313   -1.1375 Br  0  0  0  0  0  0  0  0  0  0  0  0
    2.0435    0.7084   -0.7934 C   0  0  0  0  0  0  0  0  0  0  0  0
    1.2001    1.8228   -0.7197 C   0  0  0  0  0  0  0  0  0  0  0  0
   -0.1612    1.7004   -0.8520 C   0  0  0  0  0  0  0  0  0  0  0  0
    2.0576    2.9800   -0.4961 C   0  0  0  0  0  0  0  0  0  0  0  0
    1.6708    4.1765   -0.3731 O   0  0  0  0  0  0  0  0  0  0  0  0
    3.4446    2.5483   -0.4347 C   0  0  0  0  0  0  0  0  0  0  0  0
    4.4934    3.2194   -0.2583 O   0  0  0  0  0  0  0  0  0  0  0  0
    3.3885    1.1062   -0.6272 N   0  0  0  0  0  0  0  0  0  0  0  0
    4.5639    0.2916   -0.6342 C   0  0  0  0  0  0  0  0  0  0  0  0
    4.9117   -0.2009    0.7452 C   0  0  0  0  0  0  0  0  0  0  0  0
    6.1527   -1.0090    0.8006 C   0  0  0  0  0  0  0  0  0  0  0  0
    6.1914   -2.2633    0.0107 C   0  0  0  0  0  0  0  0  0  0  0  0
    5.2584   -3.2079    0.3552 O   0  0  0  0  0  0  0  0  0  0  0  0
   -4.5493   -2.1903    1.8539 H   0  0  0  0  0  0  0  0  0  0  0  0
   -4.6217   -3.8275    1.1833 H   0  0  0  0  0  0  0  0  0  0  0  0
   -6.1138   -2.7716    1.2496 H   0  0  0  0  0  0  0  0  0  0  0  0
   -6.3066   -1.0167   -0.3659 H   0  0  0  0  0  0  0  0  0  0  0  0
   -5.0348   -0.9640   -1.5914 H   0  0  0  0  0  0  0  0  0  0  0  0
   -4.8461   -0.2540    1.4085 H   0  0  0  0  0  0  0  0  0  0  0  0
   -5.1594    1.5354   -1.0076 H   0  0  0  0  0  0  0  0  0  0  0  0
   -5.9554    1.5408    0.5751 H   0  0  0  0  0  0  0  0  0  0  0  0
   -3.4882    2.9260    0.0570 H   0  0  0  0  0  0  0  0  0  0  0  0
   -4.2826    2.6281    1.6251 H   0  0  0  0  0  0  0  0  0  0  0  0
   -1.8372    1.5126    1.0661 H   0  0  0  0  0  0  0  0  0  0  0  0
   -3.0366    0.8444    2.2201 H   0  0  0  0  0  0  0  0  0  0  0  0
   -0.4259   -1.5973   -1.3062 H   0  0  0  0  0  0  0  0  0  0  0  0
   -0.7805    2.5884   -0.7902 H   0  0  0  0  0  0  0  0  0  0  0  0
    5.4042    0.9195   -1.0466 H   0  0  0  0  0  0  0  0  0  0  0  0
    4.4076   -0.5808   -1.2867 H   0  0  0  0  0  0  0  0  0  0  0  0
    5.0959    0.7091    1.3883 H   0  0  0  0  0  0  0  0  0  0  0  0
    4.0537   -0.7857    1.1242 H   0  0  0  0  0  0  0  0  0  0  0  0
    6.3240   -1.2876    1.8725 H   0  0  0  0  0  0  0  0  0  0  0  0
    7.0375   -0.3778    0.5026 H   0  0  0  0  0  0  0  0  0  0  0  0
    7.2002   -2.7317    0.2087 H   0  0  0  0  0  0  0  0  0  0  0  0
    6.2099   -2.0738   -1.0973 H   0  0  0  0  0  0  0  0  0  0  0  0
    4.9105   -3.0799    1.2639 H   0  0  0  0  0  0  0  0  0  0  0  0
  1  2  1  0
  2  3  1  0
  3  4  1  0
  4  5  1  0
  5  6  1  0
  6  7  1  0
  7  8  1  0
  8  9  1  0
  9 10  2  0
  9 11  2  0
  9 12  1  0
 12 13  2  0
 13 14  1  0
 14 15  1  0
 14 16  2  0
 16 17  1  0
 17 18  2  0
 17 19  1  0
 19 20  2  0
 19 21  1  0
 21 22  2  0
 21 23  1  0
 23 24  1  0
 24 25  1  0
 25 26  1  0
 26 27  1  0
 27 28  1  0
  8  4  1  0
 18 12  1  0
 23 16  1  0
  1 29  1  0
  1 30  1  0
  1 31  1  0
  3 32  1  0
  3 33  1  0
  4 34  1  1
  5 35  1  0
  5 36  1  0
  6 37  1  0
  6 38  1  0
  7 39  1  0
  7 40  1  0
 13 41  1  0
 18 42  1  0
 24 43  1  0
 24 44  1  0
 25 45  1  0
 25 46  1  0
 26 47  1  0
 26 48  1  0
 27 49  1  0
 27 50  1  0
 28 51  1  0
M  END
$$$$
