@<TRIPOS>MOLECULE
*****
 51 53 0 0 0
SMALL
GASTEIGER

@<TRIPOS>ATOM
      1 C          -5.0170   -2.8019    1.0791 C.3     1  UNL1        0.0365
      2 O          -4.7599   -2.3809   -0.1972 O.3     1  UNL1       -0.3814
      3 C          -5.1885   -1.1012   -0.5058 C.3     1  UNL1        0.0645
      4 C          -4.5583   -0.0823    0.3531 C.3     1  UNL1        0.0552
      5 C          -4.9975    1.3328    0.0472 C.3     1  UNL1       -0.0323
      6 C          -3.9021    2.1427    0.6908 C.3     1  UNL1       -0.0370
      7 C          -2.8544    1.1291    1.1454 C.3     1  UNL1        0.0209
      8 N          -3.1292   -0.0171    0.2958 N.3     1  UNL1       -0.1713
      9 S          -2.4836    0.2919   -1.2373 S.O2    1  UNL1        0.0612
     10 O          -2.6855   -0.8196   -2.2173 O.2     1  UNL1       -0.1528
     11 O          -2.9904    1.5544   -1.8722 O.2     1  UNL1       -0.1528
     12 C          -0.7432    0.4901   -1.0601 C.ar    1  UNL1        0.1073
     13 C           0.0506   -0.6278   -1.1386 C.ar    1  UNL1       -0.0195
     14 C           1.4175   -0.5171   -1.0074 C.ar    1  UNL1        0.0418
     15 BR          2.4207   -2.1313   -1.1375 Br      1  UNL1       -0.0483
     16 C           2.0435    0.7084   -0.7934 C.ar    1  UNL1        0.0617
     17 C           1.2001    1.8228   -0.7197 C.ar    1  UNL1        0.0512
     18 C          -0.1612    1.7004   -0.8520 C.ar    1  UNL1       -0.0225
     19 C           2.0576    2.9800   -0.4961 C.2     1  UNL1        0.2496
     20 O           1.6708    4.1765   -0.3731 O.2     1  UNL1       -0.2817
     21 C           3.4446    2.5483   -0.4347 C.2     1  UNL1        0.2913
     22 O           4.4934    3.2194   -0.2583 O.2     1  UNL1       -0.2661
     23 N           3.3885    1.1062   -0.6272 N.am    1  UNL1       -0.2631
     24 C           4.5639    0.2916   -0.6342 C.3     1  UNL1        0.0203
     25 C           4.9117   -0.2009    0.7452 C.3     1  UNL1       -0.0347
     26 C           6.1527   -1.0090    0.8006 C.3     1  UNL1       -0.0283
     27 C           6.1914   -2.2633    0.0107 C.3     1  UNL1        0.0443
     28 O           5.2584   -3.2079    0.3552 O.3     1  UNL1       -0.3950
     29 H          -4.5493   -2.1903    1.8539 H       1  UNL1        0.0523
     30 H          -4.6217   -3.8275    1.1833 H       1  UNL1        0.0523
     31 H          -6.1138   -2.7716    1.2496 H       1  UNL1        0.0523
     32 H          -6.3066   -1.0167   -0.3659 H       1  UNL1        0.0576
     33 H          -5.0348   -0.9640   -1.5914 H       1  UNL1        0.0576
     34 H          -4.8461   -0.2540    1.4085 H       1  UNL1        0.0502
     35 H          -5.1594    1.5354   -1.0076 H       1  UNL1        0.0282
     36 H          -5.9554    1.5408    0.5751 H       1  UNL1        0.0282
     37 H          -3.4882    2.9260    0.0570 H       1  UNL1        0.0279
     38 H          -4.2826    2.6281    1.6251 H       1  UNL1        0.0279
     39 H          -1.8372    1.5126    1.0661 H       1  UNL1        0.0444
     40 H          -3.0366    0.8444    2.2201 H       1  UNL1        0.0444
     41 H          -0.4259   -1.5973   -1.3062 H       1  UNL1        0.0649
     42 H          -0.7805    2.5884   -0.7902 H       1  UNL1        0.0645
     43 H           5.4042    0.9195   -1.0466 H       1  UNL1        0.0469
     44 H           4.4076   -0.5808   -1.2867 H       1  UNL1        0.0469
     45 H           5.0959    0.7091    1.3883 H       1  UNL1        0.0281
     46 H           4.0537   -0.7857    1.1242 H       1  UNL1        0.0281
     47 H           6.3240   -1.2876    1.8725 H       1  UNL1        0.0288
     48 H           7.0375   -0.3778    0.5026 H       1  UNL1        0.0288
     49 H           7.2002   -2.7317    0.2087 H       1  UNL1        0.0557
     50 H           6.2099   -2.0738   -1.0973 H       1  UNL1        0.0557
     51 H           4.9105   -3.0799    1.2639 H       1  UNL1        0.2094
@<TRIPOS>BOND
     1     1     2    1
     2     2     3    1
     3     3     4    1
     4     4     5    1
     5     5     6    1
     6     6     7    1
     7     7     8    1
     8     8     9    1
     9     9    10    2
    10     9    11    2
    11     9    12    1
    12    12    13   ar
    13    13    14   ar
    14    14    15    1
    15    14    16   ar
    16    16    17   ar
    17    17    18   ar
    18    17    19    1
    19    19    20    2
    20    19    21    1
    21    21    22    2
    22    21    23   am
    23    23    24    1
    24    24    25    1
    25    25    26    1
    26    26    27    1
    27    27    28    1
    28     8     4    1
    29    18    12   ar
    30    23    16    1
    31     1    29    1
    32     1    30    1
    33     1    31    1
    34     3    32    1
    35     3    33    1
    36     4    34    1
    37     5    35    1
    38     5    36    1
    39     6    37    1
    40     6    38    1
    41     7    39    1
    42     7    40    1
    43    13    41    1
    44    18    42    1
    45    24    43    1
    46    24    44    1
    47    25    45    1
    48    25    46    1
    49    26    47    1
    50    26    48    1
    51    27    49    1
    52    27    50    1
    53    28    51    1
