
     RDKit          3D

 63 67  0  0  0  0  0  0  0  0999 V2000
   -3.2404   -1.9456   -0.5823 O   0  0  0  0  0  0  0  0  0  0  0  0
   -3.0387   -0.6872   -0.5953 C   0  0  0  0  0  0  0  0  0  0  0  0
   -4.1294    0.1255   -0.2032 N   0  0  0  0  0  0  0  0  0  0  0  0
   -5.4074   -0.4645    0.1915 C   0  0  1  0  0  0  0  0  0  0  0  0
   -5.7439   -0.0608    1.5974 C   0  0  0  0  0  0  0  0  0  0  0  0
   -7.2059   -0.2988    1.9105 C   0  0  0  0  0  0  0  0  0  0  0  0
   -8.1106    0.4003    0.9343 C   0  0  0  0  0  0  0  0  0  0  0  0
   -7.3002    1.0737   -0.1801 C   0  0  2  0  0  0  0  0  0  0  0  0
   -8.2547    1.6062   -1.2450 C   0  0  0  0  0  0  0  0  0  0  0  0
   -9.1199    2.5403   -0.6512 O   0  0  0  0  0  0  0  0  0  0  0  0
   -6.4328    0.0068   -0.8065 C   0  0  0  0  0  0  0  0  0  0  0  0
   -1.7145   -0.1444   -1.0070 C   0  0  0  0  0  0  0  0  0  0  0  0
   -1.0916    0.6475    0.1249 C   0  0  0  0  0  0  0  0  0  0  0  0
    0.3640    0.9661   -0.1486 C   0  0  0  0  0  0  0  0  0  0  0  0
    1.0852   -0.2179   -0.4951 N   0  0  0  0  0  0  0  0  0  0  0  0
    2.4956   -0.1608   -0.6858 C   0  0  0  0  0  0  0  0  0  0  0  0
    3.1743    0.0983   -1.8142 N   0  0  0  0  0  0  0  0  0  0  0  0
    4.4754    0.0485   -1.5336 C   0  0  0  0  0  0  0  0  0  0  0  0
    5.6355    0.2316   -2.3011 C   0  0  0  0  0  0  0  0  0  0  0  0
    6.8710    0.1107   -1.7064 C   0  0  0  0  0  0  0  0  0  0  0  0
    8.2823    0.3487   -2.6961 Cl  0  0  0  0  0  0  0  0  0  0  0  0
    7.0311   -0.1867   -0.3708 C   0  0  0  0  0  0  0  0  0  0  0  0
    8.3229   -0.3257    0.2915 C   0  0  0  0  0  0  0  0  0  0  0  0
    9.3598   -1.0498   -0.2584 C   0  0  0  0  0  0  0  0  0  0  0  0
   10.5881   -1.1838    0.3674 C   0  0  0  0  0  0  0  0  0  0  0  0
   10.8252   -0.5866    1.5879 C   0  0  0  0  0  0  0  0  0  0  0  0
   12.3722   -0.7371    2.4077 Cl  0  0  0  0  0  0  0  0  0  0  0  0
    9.7929    0.1394    2.1444 C   0  0  0  0  0  0  0  0  0  0  0  0
    8.5690    0.2752    1.5250 C   0  0  0  0  0  0  0  0  0  0  0  0
    5.8808   -0.3627    0.3661 C   0  0  0  0  0  0  0  0  0  0  0  0
    4.6068   -0.2486   -0.1994 C   0  0  0  0  0  0  0  0  0  0  0  0
    3.3993   -0.3633    0.2604 O   0  0  0  0  0  0  0  0  0  0  0  0
    0.3922   -1.4679   -0.6517 C   0  0  0  0  0  0  0  0  0  0  0  0
   -0.8642   -1.2844   -1.4786 C   0  0  0  0  0  0  0  0  0  0  0  0
   -4.0114    1.1596   -0.1985 H   0  0  0  0  0  0  0  0  0  0  0  0
   -5.3584   -1.5721    0.1444 H   0  0  0  0  0  0  0  0  0  0  0  0
   -5.1599   -0.6340    2.3260 H   0  0  0  0  0  0  0  0  0  0  0  0
   -5.5019    1.0271    1.7796 H   0  0  0  0  0  0  0  0  0  0  0  0
   -7.3664   -1.4043    1.8933 H   0  0  0  0  0  0  0  0  0  0  0  0
   -7.3788    0.0497    2.9628 H   0  0  0  0  0  0  0  0  0  0  0  0
   -8.7236   -0.3713    0.4191 H   0  0  0  0  0  0  0  0  0  0  0  0
   -8.7953    1.1316    1.4232 H   0  0  0  0  0  0  0  0  0  0  0  0
   -6.7030    1.8871    0.2645 H   0  0  0  0  0  0  0  0  0  0  0  0
   -8.9070    0.7986   -1.6319 H   0  0  0  0  0  0  0  0  0  0  0  0
   -7.6921    2.0107   -2.0849 H   0  0  0  0  0  0  0  0  0  0  0  0
   -8.6808    3.4233   -0.7389 H   0  0  0  0  0  0  0  0  0  0  0  0
   -7.0869   -0.8456   -1.1043 H   0  0  0  0  0  0  0  0  0  0  0  0
   -5.9504    0.4098   -1.7224 H   0  0  0  0  0  0  0  0  0  0  0  0
   -1.8314    0.5863   -1.8527 H   0  0  0  0  0  0  0  0  0  0  0  0
   -1.5985    1.6244    0.2603 H   0  0  0  0  0  0  0  0  0  0  0  0
   -1.1725    0.1090    1.0970 H   0  0  0  0  0  0  0  0  0  0  0  0
    0.3956    1.7082   -0.9960 H   0  0  0  0  0  0  0  0  0  0  0  0
    0.7504    1.4634    0.7697 H   0  0  0  0  0  0  0  0  0  0  0  0
    5.5021    0.4647   -3.3482 H   0  0  0  0  0  0  0  0  0  0  0  0
    9.1710   -1.5287   -1.2329 H   0  0  0  0  0  0  0  0  0  0  0  0
   11.3631   -1.7572   -0.1000 H   0  0  0  0  0  0  0  0  0  0  0  0
    9.9801    0.6111    3.1081 H   0  0  0  0  0  0  0  0  0  0  0  0
    7.7461    0.8523    1.9664 H   0  0  0  0  0  0  0  0  0  0  0  0
    5.9585   -0.5983    1.4225 H   0  0  0  0  0  0  0  0  0  0  0  0
    0.1419   -1.8330    0.3783 H   0  0  0  0  0  0  0  0  0  0  0  0
    0.9984   -2.2454   -1.1437 H   0  0  0  0  0  0  0  0  0  0  0  0
   -0.5445   -1.1023   -2.5079 H   0  0  0  0  0  0  0  0  0  0  0  0
   -1.4134   -2.2671   -1.3796 H   0  0  0  0  0  0  0  0  0  0  0  0
  1  2  2  0
  2  3  1  0
  3  4  1  0
  4  5  1  0
  5  6  1  0
  6  7  1  0
  7  8  1  0
  8  9  1  0
  9 10  1  0
  8 11  1  0
  2 12  1  0
 12 13  1  0
 13 14  1  0
 14 15  1  0
 15 16  1  0
 16 17  2  0
 17 18  1  0
 18 19  2  0
 19 20  1  0
 20 21  1  0
 20 22  2  0
 22 23  1  0
 23 24  2  0
 24 25  1  0
 25 26  2  0
 26 27  1  0
 26 28  1  0
 28 29  2  0
 22 30  1  0
 30 31  2  0
 31 32  1  0
 15 33  1  0
 33 34  1  0
 11  4  1  0
 34 12  1  0
 32 16  1  0
 31 18  1  0
 29 23  1  0
  3 35  1  0
  4 36  1  1
  5 37  1  0
  5 38  1  0
  6 39  1  0
  6 40  1  0
  7 41  1  0
  7 42  1  0
  8 43  1  1
  9 44  1  0
  9 45  1  0
 10 46  1  0
 11 47  1  0
 11 48  1  0
 12 49  1  0
 13 50  1  0
 13 51  1  0
 14 52  1  0
 14 53  1  0
 19 54  1  0
 24 55  1  0
 25 56  1  0
 28 57  1  0
 29 58  1  0
 30 59  1  0
 33 60  1  0
 33 61  1  0
 34 62  1  0
 34 63  1  0
M  END
$$$$
