@<TRIPOS>MOLECULE
*****
 63 67 0 0 0
SMALL
GASTEIGER

@<TRIPOS>ATOM
      1 O          -3.2404   -1.9456   -0.5823 O.2     1  UNL1       -0.2755
      2 C          -3.0387   -0.6872   -0.5953 C.2     1  UNL1        0.2164
      3 N          -4.1294    0.1255   -0.2032 N.am    1  UNL1       -0.3122
      4 C          -5.4074   -0.4645    0.1915 C.3     1  UNL1        0.0234
      5 C          -5.7439   -0.0608    1.5974 C.3     1  UNL1       -0.0345
      6 C          -7.2059   -0.2988    1.9105 C.3     1  UNL1       -0.0511
      7 C          -8.1106    0.4003    0.9343 C.3     1  UNL1       -0.0480
      8 C          -7.3002    1.0737   -0.1801 C.3     1  UNL1       -0.0161
      9 C          -8.2547    1.6062   -1.2450 C.3     1  UNL1        0.0471
     10 O          -9.1199    2.5403   -0.6512 O.3     1  UNL1       -0.3947
     11 C          -6.4328    0.0068   -0.8065 C.3     1  UNL1       -0.0296
     12 C          -1.7145   -0.1444   -1.0070 C.3     1  UNL1        0.0384
     13 C          -1.0916    0.6475    0.1249 C.3     1  UNL1       -0.0259
     14 C           0.3640    0.9661   -0.1486 C.3     1  UNL1        0.0170
     15 N           1.0852   -0.2179   -0.4951 N.pl3   1  UNL1       -0.2850
     16 C           2.4956   -0.1608   -0.6858 C.ar    1  UNL1        0.2911
     17 N           3.1743    0.0983   -1.8142 N.ar    1  UNL1       -0.1953
     18 C           4.4754    0.0485   -1.5336 C.ar    1  UNL1        0.1126
     19 C           5.6355    0.2316   -2.3011 C.ar    1  UNL1       -0.0136
     20 C           6.8710    0.1107   -1.7064 C.ar    1  UNL1        0.0509
     21 CL          8.2823    0.3487   -2.6961 Cl      1  UNL1       -0.0828
     22 C           7.0311   -0.1867   -0.3708 C.ar    1  UNL1        0.0040
     23 C           8.3229   -0.3257    0.2915 C.ar    1  UNL1       -0.0163
     24 C           9.3598   -1.0498   -0.2584 C.ar    1  UNL1       -0.0526
     25 C          10.5881   -1.1838    0.3674 C.ar    1  UNL1       -0.0428
     26 C          10.8252   -0.5866    1.5879 C.ar    1  UNL1        0.0410
     27 CL         12.3722   -0.7371    2.4077 Cl      1  UNL1       -0.0835
     28 C           9.7929    0.1394    2.1444 C.ar    1  UNL1       -0.0428
     29 C           8.5690    0.2752    1.5250 C.ar    1  UNL1       -0.0526
     30 C           5.8808   -0.3627    0.3661 C.ar    1  UNL1       -0.0080
     31 C           4.6068   -0.2486   -0.1994 C.ar    1  UNL1        0.1577
     32 O           3.3993   -0.3633    0.2604 O.2     1  UNL1       -0.4244
     33 C           0.3922   -1.4679   -0.6517 C.3     1  UNL1        0.0170
     34 C          -0.8642   -1.2844   -1.4786 C.3     1  UNL1       -0.0259
     35 H          -4.0114    1.1596   -0.1985 H       1  UNL1        0.1490
     36 H          -5.3584   -1.5721    0.1444 H       1  UNL1        0.0498
     37 H          -5.1599   -0.6340    2.3260 H       1  UNL1        0.0283
     38 H          -5.5019    1.0271    1.7796 H       1  UNL1        0.0283
     39 H          -7.3664   -1.4043    1.8933 H       1  UNL1        0.0266
     40 H          -7.3788    0.0497    2.9628 H       1  UNL1        0.0266
     41 H          -8.7236   -0.3713    0.4191 H       1  UNL1        0.0269
     42 H          -8.7953    1.1316    1.4232 H       1  UNL1        0.0269
     43 H          -6.7030    1.8871    0.2645 H       1  UNL1        0.0323
     44 H          -8.9070    0.7986   -1.6319 H       1  UNL1        0.0560
     45 H          -7.6921    2.0107   -2.0849 H       1  UNL1        0.0560
     46 H          -8.6808    3.4233   -0.7389 H       1  UNL1        0.2094
     47 H          -7.0869   -0.8456   -1.1043 H       1  UNL1        0.0286
     48 H          -5.9504    0.4098   -1.7224 H       1  UNL1        0.0286
     49 H          -1.8314    0.5863   -1.8527 H       1  UNL1        0.0395
     50 H          -1.5985    1.6244    0.2603 H       1  UNL1        0.0288
     51 H          -1.1725    0.1090    1.0970 H       1  UNL1        0.0288
     52 H           0.3956    1.7082   -0.9960 H       1  UNL1        0.0465
     53 H           0.7504    1.4634    0.7697 H       1  UNL1        0.0465
     54 H           5.5021    0.4647   -3.3482 H       1  UNL1        0.0655
     55 H           9.1710   -1.5287   -1.2329 H       1  UNL1        0.0624
     56 H          11.3631   -1.7572   -0.1000 H       1  UNL1        0.0632
     57 H           9.9801    0.6111    3.1081 H       1  UNL1        0.0632
     58 H           7.7461    0.8523    1.9664 H       1  UNL1        0.0624
     59 H           5.9585   -0.5983    1.4225 H       1  UNL1        0.0661
     60 H           0.1419   -1.8330    0.3783 H       1  UNL1        0.0465
     61 H           0.9984   -2.2454   -1.1437 H       1  UNL1        0.0465
     62 H          -0.5445   -1.1023   -2.5079 H       1  UNL1        0.0288
     63 H          -1.4134   -2.2671   -1.3796 H       1  UNL1        0.0288
@<TRIPOS>BOND
     1     1     2    2
     2     2     3   am
     3     3     4    1
     4     4     5    1
     5     5     6    1
     6     6     7    1
     7     7     8    1
     8     8     9    1
     9     9    10    1
    10     8    11    1
    11     2    12    1
    12    12    13    1
    13    13    14    1
    14    14    15    1
    15    15    16    1
    16    16    17   ar
    17    17    18   ar
    18    18    19   ar
    19    19    20   ar
    20    20    21    1
    21    20    22   ar
    22    22    23    1
    23    23    24   ar
    24    24    25   ar
    25    25    26   ar
    26    26    27    1
    27    26    28   ar
    28    28    29   ar
    29    22    30   ar
    30    30    31   ar
    31    31    32   ar
    32    15    33    1
    33    33    34    1
    34    11     4    1
    35    34    12    1
    36    32    16   ar
    37    31    18   ar
    38    29    23   ar
    39     3    35    1
    40     4    36    1
    41     5    37    1
    42     5    38    1
    43     6    39    1
    44     6    40    1
    45     7    41    1
    46     7    42    1
    47     8    43    1
    48     9    44    1
    49     9    45    1
    50    10    46    1
    51    11    47    1
    52    11    48    1
    53    12    49    1
    54    13    50    1
    55    13    51    1
    56    14    52    1
    57    14    53    1
    58    19    54    1
    59    24    55    1
    60    25    56    1
    61    28    57    1
    62    29    58    1
    63    30    59    1
    64    33    60    1
    65    33    61    1
    66    34    62    1
    67    34    63    1
