@<TRIPOS>MOLECULE
*****
 60 63 0 0 0
SMALL
GASTEIGER

@<TRIPOS>ATOM
      1 C           0.6442    7.3349    0.7110 C.3     1  UNL1       -0.0319
      2 C          -0.0924    6.0597    0.5132 C.ar    1  UNL1        0.0068
      3 C          -1.3785    5.7329    0.2209 C.ar    1  UNL1        0.0383
      4 N          -1.6603    4.4582    0.1241 N.ar    1  UNL1       -0.2471
      5 C          -0.9064    3.5466    0.2655 C.ar    1  UNL1        0.1086
      6 C          -0.9086    2.0543    0.2244 C.ar    1  UNL1        0.0113
      7 C          -2.0860    1.4539   -0.0513 C.ar    1  UNL1       -0.0102
      8 C          -2.1957    0.0578   -0.1135 C.ar    1  UNL1        0.1219
      9 O          -3.3858   -0.5747   -0.3928 O.3     1  UNL1       -0.4913
     10 C          -3.5202   -1.9804   -0.4605 C.3     1  UNL1        0.0971
     11 C          -4.9673   -2.2782   -0.7876 C.3     1  UNL1        0.0274
     12 C          -5.3432   -1.6560   -2.1076 C.3     1  UNL1       -0.0543
     13 C          -5.2682   -3.7598   -0.7661 C.3     1  UNL1       -0.0188
     14 C          -6.7026   -3.7750   -0.2847 C.3     1  UNL1        0.0484
     15 O          -7.0531   -2.4894    0.0361 O.3     1  UNL1       -0.3791
     16 C          -5.8979   -1.7695    0.2933 C.3     1  UNL1        0.0562
     17 C          -1.0407   -0.6582    0.1215 C.ar    1  UNL1       -0.0078
     18 C           0.1751   -0.0785    0.4051 C.ar    1  UNL1        0.0408
     19 C           1.3276   -0.9222    0.6359 C.2     1  UNL1        0.2447
     20 O           1.1872   -2.1674    0.5705 O.2     1  UNL1       -0.2702
     21 N           2.6210   -0.4451    0.9344 N.am    1  UNL1       -0.3047
     22 C           3.7679   -1.2912    1.1640 C.3     1  UNL1        0.0487
     23 C           4.3375   -1.1302    2.5489 C.3     1  UNL1       -0.0423
     24 C           4.8554   -1.0605    0.1802 C.ar    1  UNL1        0.0087
     25 C           6.1679   -0.9547    0.5910 C.ar    1  UNL1        0.0363
     26 N           7.1731   -0.7427   -0.3062 N.ar    1  UNL1       -0.2321
     27 C           6.9176   -0.6303   -1.6174 C.ar    1  UNL1        0.2339
     28 C           8.0287   -0.3994   -2.5772 C.3     1  UNL1        0.4522
     29 F           7.6019   -0.3266   -3.8675 F       1  UNL1       -0.1632
     30 F           8.7213    0.7263   -2.1853 F       1  UNL1       -0.1632
     31 F           8.9134   -1.4696   -2.4773 F       1  UNL1       -0.1632
     32 N           5.6379   -0.7333   -2.0202 N.ar    1  UNL1       -0.2321
     33 C           4.6115   -0.9425   -1.1709 C.ar    1  UNL1        0.0363
     34 C           0.2115    1.3003    0.4506 C.ar    1  UNL1       -0.0397
     35 S           0.6545    4.4056    0.6328 S.2     1  UNL1       -0.0725
     36 H           0.9681    7.6938   -0.2984 H       1  UNL1        0.0283
     37 H          -0.0993    8.0528    1.1109 H       1  UNL1        0.0283
     38 H           1.5099    7.2086    1.3951 H       1  UNL1        0.0283
     39 H          -2.1259    6.5543    0.0786 H       1  UNL1        0.0838
     40 H          -3.0068    2.0029   -0.2392 H       1  UNL1        0.0661
     41 H          -3.3156   -2.4578    0.5423 H       1  UNL1        0.0703
     42 H          -2.8746   -2.4464   -1.2228 H       1  UNL1        0.0703
     43 H          -5.1890   -0.5732   -2.0418 H       1  UNL1        0.0237
     44 H          -6.3898   -1.9344   -2.3303 H       1  UNL1        0.0237
     45 H          -4.6879   -2.1008   -2.8860 H       1  UNL1        0.0237
     46 H          -5.1348   -4.2526   -1.7329 H       1  UNL1        0.0294
     47 H          -4.6169   -4.1986    0.0348 H       1  UNL1        0.0294
     48 H          -7.3181   -4.0720   -1.1839 H       1  UNL1        0.0560
     49 H          -6.8878   -4.5133    0.5010 H       1  UNL1        0.0560
     50 H          -6.0439   -0.6835    0.1259 H       1  UNL1        0.0566
     51 H          -5.4704   -2.0109    1.2673 H       1  UNL1        0.0566
     52 H          -1.1235   -1.7558    0.0734 H       1  UNL1        0.0662
     53 H           2.7593    0.5864    0.9935 H       1  UNL1        0.1496
     54 H           3.4717   -2.3674    1.0686 H       1  UNL1        0.0546
     55 H           4.9576   -1.9981    2.8241 H       1  UNL1        0.0251
     56 H           3.4550   -1.1631    3.2522 H       1  UNL1        0.0251
     57 H           4.8754   -0.1861    2.6999 H       1  UNL1        0.0251
     58 H           6.4054   -1.0406    1.6386 H       1  UNL1        0.0834
     59 H           3.5840   -1.0260   -1.4863 H       1  UNL1        0.0834
     60 H           1.1495    1.7869    0.6705 H       1  UNL1        0.0632
@<TRIPOS>BOND
     1     1     2    1
     2     2     3   ar
     3     3     4   ar
     4     4     5   ar
     5     5     6    1
     6     6     7   ar
     7     7     8   ar
     8     8     9    1
     9     9    10    1
    10    11    10    1
    11    11    12    1
    12    11    13    1
    13    13    14    1
    14    14    15    1
    15    15    16    1
    16     8    17   ar
    17    17    18   ar
    18    18    19    1
    19    19    20    2
    20    19    21   am
    21    21    22    1
    22    22    23    1
    23    22    24    1
    24    24    25   ar
    25    25    26   ar
    26    26    27   ar
    27    27    28    1
    28    28    29    1
    29    28    30    1
    30    28    31    1
    31    27    32   ar
    32    32    33   ar
    33    18    34   ar
    34     5    35   ar
    35    35     2   ar
    36    34     6   ar
    37    16    11    1
    38    33    24   ar
    39     1    36    1
    40     1    37    1
    41     1    38    1
    42     3    39    1
    43     7    40    1
    44    10    41    1
    45    10    42    1
    46    12    43    1
    47    12    44    1
    48    12    45    1
    49    13    46    1
    50    13    47    1
    51    14    48    1
    52    14    49    1
    53    16    50    1
    54    16    51    1
    55    17    52    1
    56    21    53    1
    57    22    54    1
    58    23    55    1
    59    23    56    1
    60    23    57    1
    61    25    58    1
    62    33    59    1
    63    34    60    1
