
     RDKit          3D

 60 63  0  0  0  0  0  0  0  0999 V2000
    0.6442    7.3349    0.7110 C   0  0  0  0  0  0  0  0  0  0  0  0
   -0.0924    6.0597    0.5132 C   0  0  0  0  0  0  0  0  0  0  0  0
   -1.3785    5.7329    0.2209 C   0  0  0  0  0  0  0  0  0  0  0  0
   -1.6603    4.4582    0.1241 N   0  0  0  0  0  0  0  0  0  0  0  0
   -0.9064    3.5466    0.2655 C   0  0  0  0  0  0  0  0  0  0  0  0
   -0.9086    2.0543    0.2244 C   0  0  0  0  0  0  0  0  0  0  0  0
   -2.0860    1.4539   -0.0513 C   0  0  0  0  0  0  0  0  0  0  0  0
   -2.1957    0.0578   -0.1135 C   0  0  0  0  0  0  0  0  0  0  0  0
   -3.3858   -0.5747   -0.3928 O   0  0  0  0  0  0  0  0  0  0  0  0
   -3.5202   -1.9804   -0.4605 C   0  0  0  0  0  0  0  0  0  0  0  0
   -4.9673   -2.2782   -0.7876 C   0  0  1  0  0  0  0  0  0  0  0  0
   -5.3432   -1.6560   -2.1076 C   0  0  0  0  0  0  0  0  0  0  0  0
   -5.2682   -3.7598   -0.7661 C   0  0  0  0  0  0  0  0  0  0  0  0
   -6.7026   -3.7750   -0.2847 C   0  0  0  0  0  0  0  0  0  0  0  0
   -7.0531   -2.4894    0.0361 O   0  0  0  0  0  0  0  0  0  0  0  0
   -5.8979   -1.7695    0.2933 C   0  0  0  0  0  0  0  0  0  0  0  0
   -1.0407   -0.6582    0.1215 C   0  0  0  0  0  0  0  0  0  0  0  0
    0.1751   -0.0785    0.4051 C   0  0  0  0  0  0  0  0  0  0  0  0
    1.3276   -0.9222    0.6359 C   0  0  0  0  0  0  0  0  0  0  0  0
    1.1872   -2.1674    0.5705 O   0  0  0  0  0  0  0  0  0  0  0  0
    2.6210   -0.4451    0.9344 N   0  0  0  0  0  0  0  0  0  0  0  0
    3.7679   -1.2912    1.1640 C   0  0  2  0  0  0  0  0  0  0  0  0
    4.3375   -1.1302    2.5489 C   0  0  0  0  0  0  0  0  0  0  0  0
    4.8554   -1.0605    0.1802 C   0  0  0  0  0  0  0  0  0  0  0  0
    6.1679   -0.9547    0.5910 C   0  0  0  0  0  0  0  0  0  0  0  0
    7.1731   -0.7427   -0.3062 N   0  0  0  0  0  0  0  0  0  0  0  0
    6.9176   -0.6303   -1.6174 C   0  0  0  0  0  0  0  0  0  0  0  0
    8.0287   -0.3994   -2.5772 C   0  0  0  0  0  0  0  0  0  0  0  0
    7.6019   -0.3266   -3.8675 F   0  0  0  0  0  0  0  0  0  0  0  0
    8.7213    0.7263   -2.1853 F   0  0  0  0  0  0  0  0  0  0  0  0
    8.9134   -1.4696   -2.4773 F   0  0  0  0  0  0  0  0  0  0  0  0
    5.6379   -0.7333   -2.0202 N   0  0  0  0  0  0  0  0  0  0  0  0
    4.6115   -0.9425   -1.1709 C   0  0  0  0  0  0  0  0  0  0  0  0
    0.2115    1.3003    0.4506 C   0  0  0  0  0  0  0  0  0  0  0  0
    0.6545    4.4056    0.6328 S   0  0  0  0  0  0  0  0  0  0  0  0
    0.9681    7.6938   -0.2984 H   0  0  0  0  0  0  0  0  0  0  0  0
   -0.0993    8.0528    1.1109 H   0  0  0  0  0  0  0  0  0  0  0  0
    1.5099    7.2086    1.3951 H   0  0  0  0  0  0  0  0  0  0  0  0
   -2.1259    6.5543    0.0786 H   0  0  0  0  0  0  0  0  0  0  0  0
   -3.0068    2.0029   -0.2392 H   0  0  0  0  0  0  0  0  0  0  0  0
   -3.3156   -2.4578    0.5423 H   0  0  0  0  0  0  0  0  0  0  0  0
   -2.8746   -2.4464   -1.2228 H   0  0  0  0  0  0  0  0  0  0  0  0
   -5.1890   -0.5732   -2.0418 H   0  0  0  0  0  0  0  0  0  0  0  0
   -6.3898   -1.9344   -2.3303 H   0  0  0  0  0  0  0  0  0  0  0  0
   -4.6879   -2.1008   -2.8860 H   0  0  0  0  0  0  0  0  0  0  0  0
   -5.1348   -4.2526   -1.7329 H   0  0  0  0  0  0  0  0  0  0  0  0
   -4.6169   -4.1986    0.0348 H   0  0  0  0  0  0  0  0  0  0  0  0
   -7.3181   -4.0720   -1.1839 H   0  0  0  0  0  0  0  0  0  0  0  0
   -6.8878   -4.5133    0.5010 H   0  0  0  0  0  0  0  0  0  0  0  0
   -6.0439   -0.6835    0.1259 H   0  0  0  0  0  0  0  0  0  0  0  0
   -5.4704   -2.0109    1.2673 H   0  0  0  0  0  0  0  0  0  0  0  0
   -1.1235   -1.7558    0.0734 H   0  0  0  0  0  0  0  0  0  0  0  0
    2.7593    0.5864    0.9935 H   0  0  0  0  0  0  0  0  0  0  0  0
    3.4717   -2.3674    1.0686 H   0  0  0  0  0  0  0  0  0  0  0  0
    4.9576   -1.9981    2.8241 H   0  0  0  0  0  0  0  0  0  0  0  0
    3.4550   -1.1631    3.2522 H   0  0  0  0  0  0  0  0  0  0  0  0
    4.8754   -0.1861    2.6999 H   0  0  0  0  0  0  0  0  0  0  0  0
    6.4054   -1.0406    1.6386 H   0  0  0  0  0  0  0  0  0  0  0  0
    3.5840   -1.0260   -1.4863 H   0  0  0  0  0  0  0  0  0  0  0  0
    1.1495    1.7869    0.6705 H   0  0  0  0  0  0  0  0  0  0  0  0
  1  2  1  0
  2  3  2  0
  3  4  1  0
  4  5  2  0
  5  6  1  0
  6  7  2  0
  7  8  1  0
  8  9  1  0
  9 10  1  0
 11 10  1  1
 11 12  1  0
 11 13  1  0
 13 14  1  0
 14 15  1  0
 15 16  1  0
  8 17  2  0
 17 18  1  0
 18 19  1  0
 19 20  2  0
 19 21  1  0
 21 22  1  0
 22 23  1  0
 22 24  1  0
 24 25  2  0
 25 26  1  0
 26 27  2  0
 27 28  1  0
 28 29  1  0
 28 30  1  0
 28 31  1  0
 27 32  1  0
 32 33  2  0
 18 34  2  0
  5 35  1  0
 35  2  1  0
 34  6  1  0
 16 11  1  0
 33 24  1  0
  1 36  1  0
  1 37  1  0
  1 38  1  0
  3 39  1  0
  7 40  1  0
 10 41  1  0
 10 42  1  0
 12 43  1  0
 12 44  1  0
 12 45  1  0
 13 46  1  0
 13 47  1  0
 14 48  1  0
 14 49  1  0
 16 50  1  0
 16 51  1  0
 17 52  1  0
 21 53  1  0
 22 54  1  1
 23 55  1  0
 23 56  1  0
 23 57  1  0
 25 58  1  0
 33 59  1  0
 34 60  1  0
M  END
$$$$
