@<TRIPOS>MOLECULE
*****
 61 64 0 0 0
SMALL
GASTEIGER

@<TRIPOS>ATOM
      1 O           3.0980    0.4668    0.5672 O.2     1  UNL1       -0.2741
      2 C           2.7793   -0.7228    0.3147 C.2     1  UNL1        0.2305
      3 C           3.7686   -1.7666   -0.0546 C.3     1  UNL1        0.0884
      4 N           5.1012   -1.1831   -0.0680 N.am    1  UNL1       -0.3028
      5 C           5.3302   -0.1025   -0.9696 C.2     1  UNL1        0.2445
      6 O           4.3860    0.3189   -1.7262 O.2     1  UNL1       -0.2702
      7 C           6.6069    0.5636   -1.0804 C.ar    1  UNL1        0.0372
      8 C           6.8191    1.6062   -1.9539 C.ar    1  UNL1       -0.0496
      9 C           8.0279    2.2451   -2.0662 C.ar    1  UNL1       -0.0605
     10 C           9.0726    1.8397   -1.2846 C.ar    1  UNL1       -0.0501
     11 C           8.9104    0.8020   -0.3960 C.ar    1  UNL1        0.0555
     12 C          10.0607    0.3786    0.4435 C.3     1  UNL1        0.4174
     13 F          11.2217    0.8622   -0.0992 F       1  UNL1       -0.1659
     14 F           9.8500    0.8655    1.7319 F       1  UNL1       -0.1659
     15 F          10.0387   -0.9992    0.4914 F       1  UNL1       -0.1659
     16 C           7.6636    0.1661   -0.3014 C.ar    1  UNL1       -0.0380
     17 N           1.3961   -1.0440    0.3976 N.am    1  UNL1       -0.3087
     18 C           0.3770   -0.1065    0.7446 C.3     1  UNL1        0.0486
     19 C          -0.7593   -0.1737   -0.2851 C.3     1  UNL1        0.0189
     20 N          -1.7479   -0.0948    0.7708 N.3     1  UNL1       -0.2958
     21 C          -2.8216   -1.0343    0.7124 C.3     1  UNL1        0.0106
     22 C          -3.7361   -0.8004    1.8762 C.3     1  UNL1       -0.0368
     23 C          -5.1873   -0.7053    1.4570 C.3     1  UNL1       -0.0447
     24 C          -5.3238    0.4718    0.5116 C.3     1  UNL1       -0.0122
     25 C          -6.7492    0.6719    0.1807 C.ar    1  UNL1        0.0001
     26 C          -7.4824    1.6203    0.8609 C.ar    1  UNL1       -0.0367
     27 C          -8.8212    1.8444    0.5752 C.ar    1  UNL1        0.0281
     28 N          -9.4184    1.1119   -0.3957 N.ar    1  UNL1       -0.2596
     29 C          -8.7469    0.1750   -1.0876 C.ar    1  UNL1        0.0692
     30 C          -7.3970   -0.0446   -0.7930 C.ar    1  UNL1        0.1383
     31 O          -6.7754   -1.0250   -1.5461 O.3     1  UNL1       -0.5050
     32 C          -4.4033    0.3462   -0.6484 C.3     1  UNL1       -0.0447
     33 C          -3.6148   -0.9448   -0.5737 C.3     1  UNL1       -0.0368
     34 C          -0.6997   -0.5857    1.6796 C.3     1  UNL1        0.0189
     35 H           3.7199   -2.6576    0.6010 H       1  UNL1        0.0558
     36 H           3.5506   -2.1068   -1.1053 H       1  UNL1        0.0558
     37 H           5.8329   -1.5449    0.5504 H       1  UNL1        0.1495
     38 H           5.9530    1.9042   -2.5669 H       1  UNL1        0.0625
     39 H           8.1493    3.0477   -2.7550 H       1  UNL1        0.0618
     40 H          10.0632    2.3180   -1.3351 H       1  UNL1        0.0623
     41 H           7.6260   -0.6321    0.4162 H       1  UNL1        0.0631
     42 H           1.1106   -2.0366    0.1892 H       1  UNL1        0.1491
     43 H           0.7455    0.9081    0.9489 H       1  UNL1        0.0523
     44 H          -0.7205    0.7329   -0.9103 H       1  UNL1        0.0445
     45 H          -0.7664   -1.0896   -0.8842 H       1  UNL1        0.0445
     46 H          -2.4436   -2.0858    0.7810 H       1  UNL1        0.0462
     47 H          -3.4906    0.1485    2.4123 H       1  UNL1        0.0280
     48 H          -3.6325   -1.6093    2.6527 H       1  UNL1        0.0280
     49 H          -5.7852   -0.4372    2.3621 H       1  UNL1        0.0272
     50 H          -5.5916   -1.6378    1.0651 H       1  UNL1        0.0272
     51 H          -4.9690    1.3535    1.1148 H       1  UNL1        0.0350
     52 H          -7.0163    2.2100    1.6369 H       1  UNL1        0.0637
     53 H          -9.4242    2.5747    1.0843 H       1  UNL1        0.0829
     54 H          -9.2704   -0.3773   -1.8477 H       1  UNL1        0.0867
     55 H          -7.0047   -1.1249   -2.5324 H       1  UNL1        0.2922
     56 H          -3.7122    1.2309   -0.7189 H       1  UNL1        0.0272
     57 H          -4.9423    0.3463   -1.6150 H       1  UNL1        0.0272
     58 H          -4.3465   -1.7762   -0.5416 H       1  UNL1        0.0280
     59 H          -3.0002   -1.0812   -1.4658 H       1  UNL1        0.0280
     60 H          -0.7202    0.0559    2.5950 H       1  UNL1        0.0445
     61 H          -0.7381   -1.6564    1.8828 H       1  UNL1        0.0445
@<TRIPOS>BOND
     1     1     2    2
     2     2     3    1
     3     3     4    1
     4     4     5   am
     5     5     6    2
     6     5     7    1
     7     7     8   ar
     8     8     9   ar
     9     9    10   ar
    10    10    11   ar
    11    11    12    1
    12    12    13    1
    13    12    14    1
    14    12    15    1
    15    11    16   ar
    16     2    17   am
    17    17    18    1
    18    18    19    1
    19    19    20    1
    20    20    21    1
    21    21    22    1
    22    22    23    1
    23    23    24    1
    24    24    25    1
    25    25    26   ar
    26    26    27   ar
    27    27    28   ar
    28    28    29   ar
    29    29    30   ar
    30    30    31    1
    31    24    32    1
    32    32    33    1
    33    20    34    1
    34    16     7   ar
    35    34    18    1
    36    33    21    1
    37    30    25   ar
    38     3    35    1
    39     3    36    1
    40     4    37    1
    41     8    38    1
    42     9    39    1
    43    10    40    1
    44    16    41    1
    45    17    42    1
    46    18    43    1
    47    19    44    1
    48    19    45    1
    49    21    46    1
    50    22    47    1
    51    22    48    1
    52    23    49    1
    53    23    50    1
    54    24    51    1
    55    26    52    1
    56    27    53    1
    57    29    54    1
    58    31    55    1
    59    32    56    1
    60    32    57    1
    61    33    58    1
    62    33    59    1
    63    34    60    1
    64    34    61    1
