
     RDKit          3D

 61 64  0  0  0  0  0  0  0  0999 V2000
    3.0980    0.4668    0.5672 O   0  0  0  0  0  0  0  0  0  0  0  0
    2.7793   -0.7228    0.3147 C   0  0  0  0  0  0  0  0  0  0  0  0
    3.7686   -1.7666   -0.0546 C   0  0  0  0  0  0  0  0  0  0  0  0
    5.1012   -1.1831   -0.0680 N   0  0  0  0  0  0  0  0  0  0  0  0
    5.3302   -0.1025   -0.9696 C   0  0  0  0  0  0  0  0  0  0  0  0
    4.3860    0.3189   -1.7262 O   0  0  0  0  0  0  0  0  0  0  0  0
    6.6069    0.5636   -1.0804 C   0  0  0  0  0  0  0  0  0  0  0  0
    6.8191    1.6062   -1.9539 C   0  0  0  0  0  0  0  0  0  0  0  0
    8.0279    2.2451   -2.0662 C   0  0  0  0  0  0  0  0  0  0  0  0
    9.0726    1.8397   -1.2846 C   0  0  0  0  0  0  0  0  0  0  0  0
    8.9104    0.8020   -0.3960 C   0  0  0  0  0  0  0  0  0  0  0  0
   10.0607    0.3786    0.4435 C   0  0  0  0  0  0  0  0  0  0  0  0
   11.2217    0.8622   -0.0992 F   0  0  0  0  0  0  0  0  0  0  0  0
    9.8500    0.8655    1.7319 F   0  0  0  0  0  0  0  0  0  0  0  0
   10.0387   -0.9992    0.4914 F   0  0  0  0  0  0  0  0  0  0  0  0
    7.6636    0.1661   -0.3014 C   0  0  0  0  0  0  0  0  0  0  0  0
    1.3961   -1.0440    0.3976 N   0  0  0  0  0  0  0  0  0  0  0  0
    0.3770   -0.1065    0.7446 C   0  0  0  0  0  0  0  0  0  0  0  0
   -0.7593   -0.1737   -0.2851 C   0  0  0  0  0  0  0  0  0  0  0  0
   -1.7479   -0.0948    0.7708 N   0  0  0  0  0  0  0  0  0  0  0  0
   -2.8216   -1.0343    0.7124 C   0  0  1  0  0  0  0  0  0  0  0  0
   -3.7361   -0.8004    1.8762 C   0  0  0  0  0  0  0  0  0  0  0  0
   -5.1873   -0.7053    1.4570 C   0  0  0  0  0  0  0  0  0  0  0  0
   -5.3238    0.4718    0.5116 C   0  0  2  0  0  0  0  0  0  0  0  0
   -6.7492    0.6719    0.1807 C   0  0  0  0  0  0  0  0  0  0  0  0
   -7.4824    1.6203    0.8609 C   0  0  0  0  0  0  0  0  0  0  0  0
   -8.8212    1.8444    0.5752 C   0  0  0  0  0  0  0  0  0  0  0  0
   -9.4184    1.1119   -0.3957 N   0  0  0  0  0  0  0  0  0  0  0  0
   -8.7469    0.1750   -1.0876 C   0  0  0  0  0  0  0  0  0  0  0  0
   -7.3970   -0.0446   -0.7930 C   0  0  0  0  0  0  0  0  0  0  0  0
   -6.7754   -1.0250   -1.5461 O   0  0  0  0  0  0  0  0  0  0  0  0
   -4.4033    0.3462   -0.6484 C   0  0  0  0  0  0  0  0  0  0  0  0
   -3.6148   -0.9448   -0.5737 C   0  0  0  0  0  0  0  0  0  0  0  0
   -0.6997   -0.5857    1.6796 C   0  0  0  0  0  0  0  0  0  0  0  0
    3.7199   -2.6576    0.6010 H   0  0  0  0  0  0  0  0  0  0  0  0
    3.5506   -2.1068   -1.1053 H   0  0  0  0  0  0  0  0  0  0  0  0
    5.8329   -1.5449    0.5504 H   0  0  0  0  0  0  0  0  0  0  0  0
    5.9530    1.9042   -2.5669 H   0  0  0  0  0  0  0  0  0  0  0  0
    8.1493    3.0477   -2.7550 H   0  0  0  0  0  0  0  0  0  0  0  0
   10.0632    2.3180   -1.3351 H   0  0  0  0  0  0  0  0  0  0  0  0
    7.6260   -0.6321    0.4162 H   0  0  0  0  0  0  0  0  0  0  0  0
    1.1106   -2.0366    0.1892 H   0  0  0  0  0  0  0  0  0  0  0  0
    0.7455    0.9081    0.9489 H   0  0  0  0  0  0  0  0  0  0  0  0
   -0.7205    0.7329   -0.9103 H   0  0  0  0  0  0  0  0  0  0  0  0
   -0.7664   -1.0896   -0.8842 H   0  0  0  0  0  0  0  0  0  0  0  0
   -2.4436   -2.0858    0.7810 H   0  0  0  0  0  0  0  0  0  0  0  0
   -3.4906    0.1485    2.4123 H   0  0  0  0  0  0  0  0  0  0  0  0
   -3.6325   -1.6093    2.6527 H   0  0  0  0  0  0  0  0  0  0  0  0
   -5.7852   -0.4372    2.3621 H   0  0  0  0  0  0  0  0  0  0  0  0
   -5.5916   -1.6378    1.0651 H   0  0  0  0  0  0  0  0  0  0  0  0
   -4.9690    1.3535    1.1148 H   0  0  0  0  0  0  0  0  0  0  0  0
   -7.0163    2.2100    1.6369 H   0  0  0  0  0  0  0  0  0  0  0  0
   -9.4242    2.5747    1.0843 H   0  0  0  0  0  0  0  0  0  0  0  0
   -9.2704   -0.3773   -1.8477 H   0  0  0  0  0  0  0  0  0  0  0  0
   -7.0047   -1.1249   -2.5324 H   0  0  0  0  0  0  0  0  0  0  0  0
   -3.7122    1.2309   -0.7189 H   0  0  0  0  0  0  0  0  0  0  0  0
   -4.9423    0.3463   -1.6150 H   0  0  0  0  0  0  0  0  0  0  0  0
   -4.3465   -1.7762   -0.5416 H   0  0  0  0  0  0  0  0  0  0  0  0
   -3.0002   -1.0812   -1.4658 H   0  0  0  0  0  0  0  0  0  0  0  0
   -0.7202    0.0559    2.5950 H   0  0  0  0  0  0  0  0  0  0  0  0
   -0.7381   -1.6564    1.8828 H   0  0  0  0  0  0  0  0  0  0  0  0
  1  2  2  0
  2  3  1  0
  3  4  1  0
  4  5  1  0
  5  6  2  0
  5  7  1  0
  7  8  2  0
  8  9  1  0
  9 10  2  0
 10 11  1  0
 11 12  1  0
 12 13  1  0
 12 14  1  0
 12 15  1  0
 11 16  2  0
  2 17  1  0
 17 18  1  0
 18 19  1  0
 19 20  1  0
 20 21  1  0
 21 22  1  0
 22 23  1  0
 23 24  1  0
 24 25  1  0
 25 26  2  0
 26 27  1  0
 27 28  2  0
 28 29  1  0
 29 30  2  0
 30 31  1  0
 24 32  1  0
 32 33  1  0
 20 34  1  0
 16  7  1  0
 34 18  1  0
 33 21  1  0
 30 25  1  0
  3 35  1  0
  3 36  1  0
  4 37  1  0
  8 38  1  0
  9 39  1  0
 10 40  1  0
 16 41  1  0
 17 42  1  0
 18 43  1  0
 19 44  1  0
 19 45  1  0
 21 46  1  1
 22 47  1  0
 22 48  1  0
 23 49  1  0
 23 50  1  0
 24 51  1  1
 26 52  1  0
 27 53  1  0
 29 54  1  0
 31 55  1  0
 32 56  1  0
 32 57  1  0
 33 58  1  0
 33 59  1  0
 34 60  1  0
 34 61  1  0
M  END
$$$$
