
     RDKit          3D

140148  0  0  0  0  0  0  0  0999 V2000
   -0.2955   -2.5532   -1.1053 C   0  0  0  0  0  0  0  0  0  0  0  0
    0.3225   -1.2761   -0.7168 C   0  0  1  0  0  0  0  0  0  0  0  0
    1.6347   -1.0480   -1.1359 O   0  0  0  0  0  0  0  0  0  0  0  0
    2.2634   -0.2215   -0.1460 C   0  0  2  0  0  0  0  0  0  0  0  0
    1.3130    0.8927    0.1621 C   0  0  0  0  0  0  0  0  0  0  0  0
    0.3893    1.1403   -1.0470 C   0  0  2  0  0  0  0  0  0  0  0  0
   -0.2298    2.3580   -0.9686 O   0  0  0  0  0  0  0  0  0  0  0  0
   -0.5299   -0.0303   -1.0921 C   0  0  2  0  0  0  0  0  0  0  0  0
   -1.6147    0.1252   -0.2742 O   0  0  0  0  0  0  0  0  0  0  0  0
   -2.8119   -0.3224   -0.7514 C   0  0  1  0  0  0  0  0  0  0  0  0
   -3.6612   -0.9194    0.3250 C   0  0  0  0  0  0  0  0  0  0  0  0
   -4.5997    0.1455    0.9078 C   0  0  2  0  0  0  0  0  0  0  0  0
   -5.2606   -0.4415    1.9732 O   0  0  0  0  0  0  0  0  0  0  0  0
   -5.6008    0.4176   -0.2183 C   0  0  2  0  0  0  0  0  0  0  0  0
   -6.5821   -0.5386   -0.0785 O   0  0  0  0  0  0  0  0  0  0  0  0
   -7.8623   -0.0469   -0.1201 C   0  0  1  0  0  0  0  0  0  0  0  0
   -8.8714   -0.9549   -0.7224 C   0  0  0  0  0  0  0  0  0  0  0  0
   -9.8891   -1.4003    0.3472 C   0  0  2  0  0  0  0  0  0  0  0  0
  -10.8751   -2.1128   -0.3126 O   0  0  0  0  0  0  0  0  0  0  0  0
  -10.5139   -0.1777    0.9816 C   0  0  2  0  0  0  0  0  0  0  0  0
  -11.6057    0.2506    0.2765 O   0  0  0  0  0  0  0  0  0  0  0  0
  -12.7557    0.4533    0.9855 C   0  0  2  0  0  0  0  0  0  0  0  0
  -13.6478   -0.5980    0.6309 O   0  0  0  0  0  0  0  0  0  0  0  0
  -14.9654   -0.1503    0.7874 C   0  0  2  0  0  0  0  0  0  0  0  0
  -15.8867   -1.3247    0.8183 C   0  0  0  0  0  0  0  0  0  0  0  0
  -15.5252   -2.1412    1.9167 O   0  0  0  0  0  0  0  0  0  0  0  0
  -15.3389    0.7622   -0.3706 C   0  0  1  0  0  0  0  0  0  0  0  0
  -16.3384    1.6228    0.0582 O   0  0  0  0  0  0  0  0  0  0  0  0
  -14.1088    1.5962   -0.7129 C   0  0  2  0  0  0  0  0  0  0  0  0
  -13.2640    0.9509   -1.6060 O   0  0  0  0  0  0  0  0  0  0  0  0
  -13.3345    1.7811    0.5892 C   0  0  1  0  0  0  0  0  0  0  0  0
  -14.0635    2.4158    1.5645 O   0  0  0  0  0  0  0  0  0  0  0  0
   -9.4380    0.8984    1.1558 C   0  0  1  0  0  0  0  0  0  0  0  0
   -9.6332    1.6806    2.4284 C   0  0  0  0  0  0  0  0  0  0  0  0
   -8.2311    0.1696    1.2782 O   0  0  0  0  0  0  0  0  0  0  0  0
   -4.8449    0.2421   -1.5424 C   0  0  1  0  0  0  0  0  0  0  0  0
   -5.5283    1.0496   -2.5855 C   0  0  0  0  0  0  0  0  0  0  0  0
   -3.5372    0.7804   -1.3323 O   0  0  0  0  0  0  0  0  0  0  0  0
    3.4377    0.2287   -0.6082 O   0  0  0  0  0  0  0  0  0  0  0  0
    4.5744   -0.3971   -0.1096 C   0  0  1  0  0  0  0  0  0  0  0  0
    5.4225   -0.8352   -1.2392 C   0  0  0  0  0  0  0  0  0  0  0  0
    6.5439    0.1063   -1.5723 C   0  0  0  0  0  0  0  0  0  0  0  0
    7.2650    0.6986   -0.4136 C   0  0  1  0  0  0  0  0  0  0  0  0
    6.9100    2.1980   -0.4220 C   0  0  0  0  0  0  0  0  0  0  0  0
    6.7798    0.1755    0.9312 C   0  0  2  0  0  0  0  0  0  0  0  0
    7.1333   -1.2638    1.1353 C   0  0  0  0  0  0  0  0  0  0  0  0
    8.3414   -1.6674    0.2841 C   0  0  0  0  0  0  0  0  0  0  0  0
    9.2893   -0.5247    0.3400 C   0  0  2  0  0  0  0  0  0  0  0  0
    8.7437    0.6371   -0.4695 C   0  0  2  0  0  0  0  0  0  0  0  0
    9.4476    1.8401    0.1441 C   0  0  0  0  0  0  0  0  0  0  0  0
   10.9224    1.6812   -0.0303 C   0  0  1  0  0  0  0  0  0  0  0  0
   11.5557    2.6712    0.7683 O   0  0  0  0  0  0  0  0  0  0  0  0
   11.5230    0.3724    0.4215 C   0  0  2  0  0  0  0  0  0  0  0  0
   11.6989    0.3607    1.9218 C   0  0  0  0  0  0  0  0  0  0  0  0
   12.8063    0.2071   -0.3354 C   0  0  2  0  0  0  0  0  0  0  0  0
   12.3200   -0.2794   -1.7024 C   0  0  0  0  0  0  0  0  0  0  0  0
   11.0328   -1.0714   -1.4260 C   0  0  0  0  0  0  0  0  0  0  0  0
   10.7137   -0.8136   -0.0108 C   0  0  2  0  0  0  0  0  0  0  0  0
   11.0648   -1.9569    0.7292 O   0  0  0  0  0  0  0  0  0  0  0  0
   13.7868   -0.7177    0.2085 C   0  0  0  0  0  0  0  0  0  0  0  0
   13.9812   -1.5104    1.2317 C   0  0  0  0  0  0  0  0  0  0  0  0
   15.2363   -2.2308    1.2281 C   0  0  0  0  0  0  0  0  0  0  0  0
   15.7571   -3.0513    2.0139 O   0  0  0  0  0  0  0  0  0  0  0  0
   15.8244   -1.7910    0.0544 O   0  0  0  0  0  0  0  0  0  0  0  0
   15.0406   -0.8269   -0.5890 C   0  0  0  0  0  0  0  0  0  0  0  0
    5.2821    0.3285    1.0068 C   0  0  0  0  0  0  0  0  0  0  0  0
   -0.8659   -2.4503   -2.0596 H   0  0  0  0  0  0  0  0  0  0  0  0
    0.4054   -3.4090   -1.1350 H   0  0  0  0  0  0  0  0  0  0  0  0
   -1.0808   -2.8845   -0.3517 H   0  0  0  0  0  0  0  0  0  0  0  0
    0.3514   -1.2352    0.3907 H   0  0  0  0  0  0  0  0  0  0  0  0
    2.3223   -0.9092    0.7490 H   0  0  0  0  0  0  0  0  0  0  0  0
    0.6262    0.6867    1.0116 H   0  0  0  0  0  0  0  0  0  0  0  0
    1.8100    1.8538    0.3691 H   0  0  0  0  0  0  0  0  0  0  0  0
    1.0603    1.1197   -1.9232 H   0  0  0  0  0  0  0  0  0  0  0  0
   -1.0859    2.3901   -1.4509 H   0  0  0  0  0  0  0  0  0  0  0  0
   -0.8688   -0.2777   -2.0927 H   0  0  0  0  0  0  0  0  0  0  0  0
   -2.6322   -0.9500   -1.6494 H   0  0  0  0  0  0  0  0  0  0  0  0
   -4.2821   -1.7054   -0.1035 H   0  0  0  0  0  0  0  0  0  0  0  0
   -3.0886   -1.3653    1.1508 H   0  0  0  0  0  0  0  0  0  0  0  0
   -4.0670    1.0355    1.2434 H   0  0  0  0  0  0  0  0  0  0  0  0
   -5.5656    0.2801    2.5835 H   0  0  0  0  0  0  0  0  0  0  0  0
   -5.9820    1.4348   -0.1739 H   0  0  0  0  0  0  0  0  0  0  0  0
   -7.8802    0.9776   -0.4926 H   0  0  0  0  0  0  0  0  0  0  0  0
   -8.3896   -1.8953   -1.0712 H   0  0  0  0  0  0  0  0  0  0  0  0
   -9.3947   -0.5156   -1.5941 H   0  0  0  0  0  0  0  0  0  0  0  0
   -9.3466   -2.0476    1.0523 H   0  0  0  0  0  0  0  0  0  0  0  0
  -11.2782   -2.8520    0.2310 H   0  0  0  0  0  0  0  0  0  0  0  0
  -10.8193   -0.4110    2.0170 H   0  0  0  0  0  0  0  0  0  0  0  0
  -12.6532    0.3946    2.0906 H   0  0  0  0  0  0  0  0  0  0  0  0
  -15.1168    0.4054    1.7276 H   0  0  0  0  0  0  0  0  0  0  0  0
  -15.7983   -1.9779   -0.0701 H   0  0  0  0  0  0  0  0  0  0  0  0
  -16.9180   -0.9809    0.9575 H   0  0  0  0  0  0  0  0  0  0  0  0
  -14.5282   -2.1764    1.9028 H   0  0  0  0  0  0  0  0  0  0  0  0
  -15.7010    0.1620   -1.2264 H   0  0  0  0  0  0  0  0  0  0  0  0
  -16.7588    2.0585   -0.7264 H   0  0  0  0  0  0  0  0  0  0  0  0
  -14.3585    2.5878   -1.1152 H   0  0  0  0  0  0  0  0  0  0  0  0
  -13.5950    0.0579   -1.8922 H   0  0  0  0  0  0  0  0  0  0  0  0
  -12.4595    2.4704    0.3604 H   0  0  0  0  0  0  0  0  0  0  0  0
  -14.5716    3.1672    1.1513 H   0  0  0  0  0  0  0  0  0  0  0  0
   -9.3236    1.5447    0.2897 H   0  0  0  0  0  0  0  0  0  0  0  0
   -9.1433    1.1814    3.2762 H   0  0  0  0  0  0  0  0  0  0  0  0
  -10.7182    1.7828    2.6708 H   0  0  0  0  0  0  0  0  0  0  0  0
   -9.2372    2.7185    2.3618 H   0  0  0  0  0  0  0  0  0  0  0  0
   -4.7746   -0.8121   -1.8371 H   0  0  0  0  0  0  0  0  0  0  0  0
   -6.5907    0.7055   -2.6394 H   0  0  0  0  0  0  0  0  0  0  0  0
   -5.0986    0.7910   -3.5971 H   0  0  0  0  0  0  0  0  0  0  0  0
   -5.4709    2.1433   -2.4576 H   0  0  0  0  0  0  0  0  0  0  0  0
    4.1586   -1.2959    0.4025 H   0  0  0  0  0  0  0  0  0  0  0  0
    4.7762   -0.8992   -2.1720 H   0  0  0  0  0  0  0  0  0  0  0  0
    5.8156   -1.8635   -1.1587 H   0  0  0  0  0  0  0  0  0  0  0  0
    7.2566   -0.4027   -2.2387 H   0  0  0  0  0  0  0  0  0  0  0  0
    6.0849    0.9061   -2.2383 H   0  0  0  0  0  0  0  0  0  0  0  0
    5.8210    2.3373   -0.6406 H   0  0  0  0  0  0  0  0  0  0  0  0
    7.1231    2.7011    0.5156 H   0  0  0  0  0  0  0  0  0  0  0  0
    7.3986    2.6911   -1.3177 H   0  0  0  0  0  0  0  0  0  0  0  0
    7.1980    0.8530    1.6946 H   0  0  0  0  0  0  0  0  0  0  0  0
    7.5295   -1.3237    2.2008 H   0  0  0  0  0  0  0  0  0  0  0  0
    6.3228   -1.9833    1.1179 H   0  0  0  0  0  0  0  0  0  0  0  0
    8.8448   -2.5352    0.8391 H   0  0  0  0  0  0  0  0  0  0  0  0
    8.0919   -1.9989   -0.7235 H   0  0  0  0  0  0  0  0  0  0  0  0
    9.3302   -0.1466    1.4092 H   0  0  0  0  0  0  0  0  0  0  0  0
    9.0778    0.5933   -1.5216 H   0  0  0  0  0  0  0  0  0  0  0  0
    9.1382    2.8055   -0.2481 H   0  0  0  0  0  0  0  0  0  0  0  0
    9.2396    1.8918    1.2427 H   0  0  0  0  0  0  0  0  0  0  0  0
   11.2515    1.9280   -1.0643 H   0  0  0  0  0  0  0  0  0  0  0  0
   10.8620    3.2502    1.1548 H   0  0  0  0  0  0  0  0  0  0  0  0
   11.2625   -0.5920    2.3108 H   0  0  0  0  0  0  0  0  0  0  0  0
   12.7137    0.5933    2.2311 H   0  0  0  0  0  0  0  0  0  0  0  0
   11.0250    1.1510    2.3353 H   0  0  0  0  0  0  0  0  0  0  0  0
   13.2903    1.2490   -0.4868 H   0  0  0  0  0  0  0  0  0  0  0  0
   12.0940    0.6023   -2.3401 H   0  0  0  0  0  0  0  0  0  0  0  0
   13.0673   -0.8678   -2.2540 H   0  0  0  0  0  0  0  0  0  0  0  0
   10.3114   -0.7929   -2.1891 H   0  0  0  0  0  0  0  0  0  0  0  0
   11.2857   -2.1568   -1.6411 H   0  0  0  0  0  0  0  0  0  0  0  0
   11.5243   -2.6221    0.1195 H   0  0  0  0  0  0  0  0  0  0  0  0
   13.3277   -1.6731    2.0645 H   0  0  0  0  0  0  0  0  0  0  0  0
   14.9087   -1.1419   -1.6282 H   0  0  0  0  0  0  0  0  0  0  0  0
   15.5432    0.1755   -0.6259 H   0  0  0  0  0  0  0  0  0  0  0  0
    5.0671    1.4067    1.0768 H   0  0  0  0  0  0  0  0  0  0  0  0
    5.0141   -0.0642    2.0071 H   0  0  0  0  0  0  0  0  0  0  0  0
  1  2  1  0
  2  3  1  0
  3  4  1  0
  4  5  1  0
  5  6  1  0
  6  7  1  0
  6  8  1  0
  8  9  1  0
  9 10  1  0
 10 11  1  0
 11 12  1  0
 12 13  1  0
 12 14  1  0
 14 15  1  0
 15 16  1  0
 16 17  1  0
 17 18  1  0
 18 19  1  0
 18 20  1  0
 20 21  1  0
 21 22  1  0
 22 23  1  0
 23 24  1  0
 24 25  1  0
 25 26  1  0
 24 27  1  0
 27 28  1  0
 27 29  1  0
 29 30  1  0
 29 31  1  0
 31 32  1  0
 20 33  1  0
 33 34  1  0
 33 35  1  0
 14 36  1  0
 36 37  1  0
 36 38  1  0
  4 39  1  0
 39 40  1  0
 40 41  1  0
 41 42  1  0
 42 43  1  0
 43 44  1  1
 43 45  1  0
 45 46  1  0
 46 47  1  0
 47 48  1  0
 48 49  1  0
 49 50  1  0
 50 51  1  0
 51 52  1  0
 51 53  1  0
 53 54  1  1
 53 55  1  0
 55 56  1  0
 56 57  1  0
 57 58  1  0
 58 59  1  1
 55 60  1  0
 60 61  2  0
 61 62  1  0
 62 63  2  0
 62 64  1  0
 64 65  1  0
 45 66  1  0
  8  2  1  0
 38 10  1  0
 66 40  1  0
 35 16  1  0
 49 43  1  0
 58 53  1  0
 65 60  1  0
 31 22  1  0
 58 48  1  0
  1 67  1  0
  1 68  1  0
  1 69  1  0
  2 70  1  1
  4 71  1  1
  5 72  1  0
  5 73  1  0
  6 74  1  6
  7 75  1  0
  8 76  1  6
 10 77  1  6
 11 78  1  0
 11 79  1  0
 12 80  1  1
 13 81  1  0
 14 82  1  1
 16 83  1  6
 17 84  1  0
 17 85  1  0
 18 86  1  1
 19 87  1  0
 20 88  1  1
 22 89  1  1
 24 90  1  1
 25 91  1  0
 25 92  1  0
 26 93  1  0
 27 94  1  6
 28 95  1  0
 29 96  1  6
 30 97  1  0
 31 98  1  6
 32 99  1  0
 33100  1  6
 34101  1  0
 34102  1  0
 34103  1  0
 36104  1  6
 37105  1  0
 37106  1  0
 37107  1  0
 40108  1  1
 41109  1  0
 41110  1  0
 42111  1  0
 42112  1  0
 44113  1  0
 44114  1  0
 44115  1  0
 45116  1  1
 46117  1  0
 46118  1  0
 47119  1  0
 47120  1  0
 48121  1  1
 49122  1  6
 50123  1  0
 50124  1  0
 51125  1  6
 52126  1  0
 54127  1  0
 54128  1  0
 54129  1  0
 55130  1  6
 56131  1  0
 56132  1  0
 57133  1  0
 57134  1  0
 59135  1  0
 61136  1  0
 65137  1  0
 65138  1  0
 66139  1  0
 66140  1  0
M  END
$$$$
