@<TRIPOS>MOLECULE
*****
 140 148 0 0 0
SMALL
GASTEIGER

@<TRIPOS>ATOM
      1 C          -0.2955   -2.5532   -1.1053 C.3     1  UNL1       -0.0361
      2 C           0.3225   -1.2761   -0.7168 C.3     1  UNL1        0.0875
      3 O           1.6347   -1.0480   -1.1359 O.3     1  UNL1       -0.3456
      4 C           2.2634   -0.2215   -0.1460 C.3     1  UNL1        0.1624
      5 C           1.3130    0.8927    0.1621 C.3     1  UNL1        0.0270
      6 C           0.3893    1.1403   -1.0470 C.3     1  UNL1        0.0884
      7 O          -0.2298    2.3580   -0.9686 O.3     1  UNL1       -0.3890
      8 C          -0.5299   -0.0303   -1.0921 C.3     1  UNL1        0.1134
      9 O          -1.6147    0.1252   -0.2742 O.3     1  UNL1       -0.3429
     10 C          -2.8119   -0.3224   -0.7514 C.3     1  UNL1        0.1626
     11 C          -3.6612   -0.9194    0.3250 C.3     1  UNL1        0.0270
     12 C          -4.5997    0.1455    0.9078 C.3     1  UNL1        0.0884
     13 O          -5.2606   -0.4415    1.9732 O.3     1  UNL1       -0.3890
     14 C          -5.6008    0.4176   -0.2183 C.3     1  UNL1        0.1134
     15 O          -6.5821   -0.5386   -0.0785 O.3     1  UNL1       -0.3429
     16 C          -7.8623   -0.0469   -0.1201 C.3     1  UNL1        0.1626
     17 C          -8.8714   -0.9549   -0.7224 C.3     1  UNL1        0.0270
     18 C          -9.8891   -1.4003    0.3472 C.3     1  UNL1        0.0884
     19 O         -10.8751   -2.1128   -0.3126 O.3     1  UNL1       -0.3890
     20 C         -10.5139   -0.1777    0.9816 C.3     1  UNL1        0.1136
     21 O         -11.6057    0.2506    0.2765 O.3     1  UNL1       -0.3403
     22 C         -12.7557    0.4533    0.9855 C.3     1  UNL1        0.1884
     23 O         -13.6478   -0.5980    0.6309 O.3     1  UNL1       -0.3405
     24 C         -14.9654   -0.1503    0.7874 C.3     1  UNL1        0.1130
     25 C         -15.8867   -1.3247    0.8183 C.3     1  UNL1        0.0730
     26 O         -15.5252   -2.1412    1.9167 O.3     1  UNL1       -0.3924
     27 C         -15.3389    0.7622   -0.3706 C.3     1  UNL1        0.1119
     28 O         -16.3384    1.6228    0.0582 O.3     1  UNL1       -0.3865
     29 C         -14.1088    1.5962   -0.7129 C.3     1  UNL1        0.1141
     30 O         -13.2640    0.9509   -1.6060 O.3     1  UNL1       -0.3864
     31 C         -13.3345    1.7811    0.5892 C.3     1  UNL1        0.1341
     32 O         -14.0635    2.4158    1.5645 O.3     1  UNL1       -0.3841
     33 C          -9.4380    0.8984    1.1558 C.3     1  UNL1        0.0875
     34 C          -9.6332    1.6806    2.4284 C.3     1  UNL1       -0.0361
     35 O          -8.2311    0.1696    1.2782 O.3     1  UNL1       -0.3456
     36 C          -4.8449    0.2421   -1.5424 C.3     1  UNL1        0.0875
     37 C          -5.5283    1.0496   -2.5855 C.3     1  UNL1       -0.0361
     38 O          -3.5372    0.7804   -1.3323 O.3     1  UNL1       -0.3456
     39 O           3.4377    0.2287   -0.6082 O.3     1  UNL1       -0.3480
     40 C           4.5744   -0.3971   -0.1096 C.3     1  UNL1        0.0620
     41 C           5.4225   -0.8352   -1.2392 C.3     1  UNL1       -0.0260
     42 C           6.5439    0.1063   -1.5723 C.3     1  UNL1       -0.0448
     43 C           7.2650    0.6986   -0.4136 C.3     1  UNL1       -0.0258
     44 C           6.9100    2.1980   -0.4220 C.3     1  UNL1       -0.0590
     45 C           6.7798    0.1755    0.9312 C.3     1  UNL1       -0.0330
     46 C           7.1333   -1.2638    1.1353 C.3     1  UNL1       -0.0493
     47 C           8.3414   -1.6674    0.2841 C.3     1  UNL1       -0.0470
     48 C           9.2893   -0.5247    0.3400 C.3     1  UNL1       -0.0081
     49 C           8.7437    0.6371   -0.4695 C.3     1  UNL1       -0.0276
     50 C           9.4476    1.8401    0.1441 C.3     1  UNL1       -0.0225
     51 C          10.9224    1.6812   -0.0303 C.3     1  UNL1        0.0641
     52 O          11.5557    2.6712    0.7683 O.3     1  UNL1       -0.3911
     53 C          11.5230    0.3724    0.4215 C.3     1  UNL1        0.0295
     54 C          11.6989    0.3607    1.9218 C.3     1  UNL1       -0.0540
     55 C          12.8063    0.2071   -0.3354 C.3     1  UNL1       -0.0057
     56 C          12.3200   -0.2794   -1.7024 C.3     1  UNL1       -0.0431
     57 C          11.0328   -1.0714   -1.4260 C.3     1  UNL1       -0.0226
     58 C          10.7137   -0.8136   -0.0108 C.3     1  UNL1        0.0774
     59 O          11.0648   -1.9569    0.7292 O.3     1  UNL1       -0.3876
     60 C          13.7868   -0.7177    0.2085 C.2     1  UNL1       -0.0221
     61 C          13.9812   -1.5104    1.2317 C.2     1  UNL1        0.0252
     62 C          15.2363   -2.2308    1.2281 C.2     1  UNL1        0.3323
     63 O          15.7571   -3.0513    2.0139 O.2     1  UNL1       -0.2456
     64 O          15.8244   -1.7910    0.0544 O.3     1  UNL1       -0.4571
     65 C          15.0406   -0.8269   -0.5890 C.3     1  UNL1        0.1147
     66 C           5.2821    0.3285    1.0068 C.3     1  UNL1       -0.0232
     67 H          -0.8659   -2.4503   -2.0596 H       1  UNL1        0.0255
     68 H           0.4054   -3.4090   -1.1350 H       1  UNL1        0.0255
     69 H          -1.0808   -2.8845   -0.3517 H       1  UNL1        0.0255
     70 H           0.3514   -1.2352    0.3907 H       1  UNL1        0.0621
     71 H           2.3223   -0.9092    0.7490 H       1  UNL1        0.0910
     72 H           0.6262    0.6867    1.0116 H       1  UNL1        0.0340
     73 H           1.8100    1.8538    0.3691 H       1  UNL1        0.0340
     74 H           1.0603    1.1197   -1.9232 H       1  UNL1        0.0622
     75 H          -1.0859    2.3901   -1.4509 H       1  UNL1        0.2099
     76 H          -0.8688   -0.2777   -2.0927 H       1  UNL1        0.0649
     77 H          -2.6322   -0.9500   -1.6494 H       1  UNL1        0.0910
     78 H          -4.2821   -1.7054   -0.1035 H       1  UNL1        0.0340
     79 H          -3.0886   -1.3653    1.1508 H       1  UNL1        0.0340
     80 H          -4.0670    1.0355    1.2434 H       1  UNL1        0.0622
     81 H          -5.5656    0.2801    2.5835 H       1  UNL1        0.2099
     82 H          -5.9820    1.4348   -0.1739 H       1  UNL1        0.0649
     83 H          -7.8802    0.9776   -0.4926 H       1  UNL1        0.0910
     84 H          -8.3896   -1.8953   -1.0712 H       1  UNL1        0.0340
     85 H          -9.3947   -0.5156   -1.5941 H       1  UNL1        0.0340
     86 H          -9.3466   -2.0476    1.0523 H       1  UNL1        0.0622
     87 H         -11.2782   -2.8520    0.2310 H       1  UNL1        0.2099
     88 H         -10.8193   -0.4110    2.0170 H       1  UNL1        0.0649
     89 H         -12.6532    0.3946    2.0906 H       1  UNL1        0.0938
     90 H         -15.1168    0.4054    1.7276 H       1  UNL1        0.0647
     91 H         -15.7983   -1.9779   -0.0701 H       1  UNL1        0.0584
     92 H         -16.9180   -0.9809    0.9575 H       1  UNL1        0.0584
     93 H         -14.5282   -2.1764    1.9028 H       1  UNL1        0.2095
     94 H         -15.7010    0.1620   -1.2264 H       1  UNL1        0.0647
     95 H         -16.7588    2.0585   -0.7264 H       1  UNL1        0.2100
     96 H         -14.3585    2.5878   -1.1152 H       1  UNL1        0.0648
     97 H         -13.5950    0.0579   -1.8922 H       1  UNL1        0.2100
     98 H         -12.4595    2.4704    0.3604 H       1  UNL1        0.0671
     99 H         -14.5716    3.1672    1.1513 H       1  UNL1        0.2101
    100 H          -9.3236    1.5447    0.2897 H       1  UNL1        0.0621
    101 H          -9.1433    1.1814    3.2762 H       1  UNL1        0.0255
    102 H         -10.7182    1.7828    2.6708 H       1  UNL1        0.0255
    103 H          -9.2372    2.7185    2.3618 H       1  UNL1        0.0255
    104 H          -4.7746   -0.8121   -1.8371 H       1  UNL1        0.0621
    105 H          -6.5907    0.7055   -2.6394 H       1  UNL1        0.0255
    106 H          -5.0986    0.7910   -3.5971 H       1  UNL1        0.0255
    107 H          -5.4709    2.1433   -2.4576 H       1  UNL1        0.0255
    108 H           4.1586   -1.2959    0.4025 H       1  UNL1        0.0597
    109 H           4.7762   -0.8992   -2.1720 H       1  UNL1        0.0290
    110 H           5.8156   -1.8635   -1.1587 H       1  UNL1        0.0290
    111 H           7.2566   -0.4027   -2.2387 H       1  UNL1        0.0271
    112 H           6.0849    0.9061   -2.2383 H       1  UNL1        0.0271
    113 H           5.8210    2.3373   -0.6406 H       1  UNL1        0.0235
    114 H           7.1231    2.7011    0.5156 H       1  UNL1        0.0235
    115 H           7.3986    2.6911   -1.3177 H       1  UNL1        0.0235
    116 H           7.1980    0.8530    1.6946 H       1  UNL1        0.0307
    117 H           7.5295   -1.3237    2.2008 H       1  UNL1        0.0268
    118 H           6.3228   -1.9833    1.1179 H       1  UNL1        0.0268
    119 H           8.8448   -2.5352    0.8391 H       1  UNL1        0.0269
    120 H           8.0919   -1.9989   -0.7235 H       1  UNL1        0.0269
    121 H           9.3302   -0.1466    1.4092 H       1  UNL1        0.0331
    122 H           9.0778    0.5933   -1.5216 H       1  UNL1        0.0310
    123 H           9.1382    2.8055   -0.2481 H       1  UNL1        0.0293
    124 H           9.2396    1.8918    1.2427 H       1  UNL1        0.0293
    125 H          11.2515    1.9280   -1.0643 H       1  UNL1        0.0600
    126 H          10.8620    3.2502    1.1548 H       1  UNL1        0.2098
    127 H          11.2625   -0.5920    2.3108 H       1  UNL1        0.0237
    128 H          12.7137    0.5933    2.2311 H       1  UNL1        0.0237
    129 H          11.0250    1.1510    2.3353 H       1  UNL1        0.0237
    130 H          13.2903    1.2490   -0.4868 H       1  UNL1        0.0354
    131 H          12.0940    0.6023   -2.3401 H       1  UNL1        0.0272
    132 H          13.0673   -0.8678   -2.2540 H       1  UNL1        0.0272
    133 H          10.3114   -0.7929   -2.1891 H       1  UNL1        0.0293
    134 H          11.2857   -2.1568   -1.6411 H       1  UNL1        0.0293
    135 H          11.5243   -2.6221    0.1195 H       1  UNL1        0.2102
    136 H          13.3277   -1.6731    2.0645 H       1  UNL1        0.0689
    137 H          14.9087   -1.1419   -1.6282 H       1  UNL1        0.0746
    138 H          15.5432    0.1755   -0.6259 H       1  UNL1        0.0746
    139 H           5.0671    1.4067    1.0768 H       1  UNL1        0.0293
    140 H           5.0141   -0.0642    2.0071 H       1  UNL1        0.0293
@<TRIPOS>BOND
     1     1     2    1
     2     2     3    1
     3     3     4    1
     4     4     5    1
     5     5     6    1
     6     6     7    1
     7     6     8    1
     8     8     9    1
     9     9    10    1
    10    10    11    1
    11    11    12    1
    12    12    13    1
    13    12    14    1
    14    14    15    1
    15    15    16    1
    16    16    17    1
    17    17    18    1
    18    18    19    1
    19    18    20    1
    20    20    21    1
    21    21    22    1
    22    22    23    1
    23    23    24    1
    24    24    25    1
    25    25    26    1
    26    24    27    1
    27    27    28    1
    28    27    29    1
    29    29    30    1
    30    29    31    1
    31    31    32    1
    32    20    33    1
    33    33    34    1
    34    33    35    1
    35    14    36    1
    36    36    37    1
    37    36    38    1
    38     4    39    1
    39    39    40    1
    40    40    41    1
    41    41    42    1
    42    42    43    1
    43    43    44    1
    44    43    45    1
    45    45    46    1
    46    46    47    1
    47    47    48    1
    48    48    49    1
    49    49    50    1
    50    50    51    1
    51    51    52    1
    52    51    53    1
    53    53    54    1
    54    53    55    1
    55    55    56    1
    56    56    57    1
    57    57    58    1
    58    58    59    1
    59    55    60    1
    60    60    61    2
    61    61    62    1
    62    62    63    2
    63    62    64    1
    64    64    65    1
    65    45    66    1
    66     8     2    1
    67    38    10    1
    68    66    40    1
    69    35    16    1
    70    49    43    1
    71    58    53    1
    72    65    60    1
    73    31    22    1
    74    58    48    1
    75     1    67    1
    76     1    68    1
    77     1    69    1
    78     2    70    1
    79     4    71    1
    80     5    72    1
    81     5    73    1
    82     6    74    1
    83     7    75    1
    84     8    76    1
    85    10    77    1
    86    11    78    1
    87    11    79    1
    88    12    80    1
    89    13    81    1
    90    14    82    1
    91    16    83    1
    92    17    84    1
    93    17    85    1
    94    18    86    1
    95    19    87    1
    96    20    88    1
    97    22    89    1
    98    24    90    1
    99    25    91    1
   100    25    92    1
   101    26    93    1
   102    27    94    1
   103    28    95    1
   104    29    96    1
   105    30    97    1
   106    31    98    1
   107    32    99    1
   108    33   100    1
   109    34   101    1
   110    34   102    1
   111    34   103    1
   112    36   104    1
   113    37   105    1
   114    37   106    1
   115    37   107    1
   116    40   108    1
   117    41   109    1
   118    41   110    1
   119    42   111    1
   120    42   112    1
   121    44   113    1
   122    44   114    1
   123    44   115    1
   124    45   116    1
   125    46   117    1
   126    46   118    1
   127    47   119    1
   128    47   120    1
   129    48   121    1
   130    49   122    1
   131    50   123    1
   132    50   124    1
   133    51   125    1
   134    52   126    1
   135    54   127    1
   136    54   128    1
   137    54   129    1
   138    55   130    1
   139    56   131    1
   140    56   132    1
   141    57   133    1
   142    57   134    1
   143    59   135    1
   144    61   136    1
   145    65   137    1
   146    65   138    1
   147    66   139    1
   148    66   140    1
