@<TRIPOS>MOLECULE
*****
 47 49 0 0 0
SMALL
GASTEIGER

@<TRIPOS>ATOM
      1 C          -7.6459    1.3946    1.1709 C.3     1  UNL1       -0.0370
      2 C          -6.3447    0.8408    0.6900 C.ar    1  UNL1       -0.0152
      3 C          -6.3042   -0.2336   -0.1689 C.ar    1  UNL1       -0.0555
      4 C          -5.0621   -0.6922   -0.5720 C.ar    1  UNL1       -0.0521
      5 C          -3.8658   -0.1682   -0.1895 C.ar    1  UNL1        0.0031
      6 C          -3.9931    0.9176    0.6811 C.ar    1  UNL1       -0.0170
      7 C          -5.1931    1.4327    1.1281 C.ar    1  UNL1        0.1269
      8 F          -5.2254    2.4903    1.9735 F       1  UNL1       -0.2052
      9 C          -2.5664   -0.6343   -0.6007 C.ar    1  UNL1        0.0719
     10 N          -1.4707   -0.0075   -0.1329 N.ar    1  UNL1       -0.2421
     11 C          -0.2051   -0.3441   -0.4405 C.ar    1  UNL1        0.1262
     12 C          -0.1148   -1.4150   -1.2996 C.ar    1  UNL1       -0.0311
     13 C          -1.1929   -2.1024   -1.8164 C.ar    1  UNL1       -0.0576
     14 C          -2.4651   -1.7064   -1.4610 C.ar    1  UNL1       -0.0356
     15 C           0.9430    0.3690    0.0968 C.2     1  UNL1        0.2650
     16 O           0.6619    1.6162    0.1628 O.2     1  UNL1       -0.2683
     17 N           2.1907   -0.1721    0.4984 N.am    1  UNL1       -0.2958
     18 C           2.7575   -1.5046    0.5257 C.3     1  UNL1        0.0151
     19 C           3.7781   -1.5852   -0.5548 C.3     1  UNL1       -0.0366
     20 C           4.5269   -0.3263   -0.7593 C.3     1  UNL1       -0.0450
     21 C           4.5034    0.6543    0.3808 C.3     1  UNL1       -0.0190
     22 C           4.8671    2.0134   -0.1830 C.3     1  UNL1       -0.0584
     23 C           5.5880    0.2662    1.3621 C.3     1  UNL1       -0.0584
     24 C           3.1585    0.7980    1.0192 C.3     1  UNL1        0.0202
     25 H          -8.0454    0.8346    2.0463 H       1  UNL1        0.0278
     26 H          -8.4136    1.3329    0.3624 H       1  UNL1        0.0278
     27 H          -7.4953    2.4763    1.4148 H       1  UNL1        0.0278
     28 H          -7.2344   -0.6775   -0.4956 H       1  UNL1        0.0621
     29 H          -5.0764   -1.5370   -1.2457 H       1  UNL1        0.0624
     30 H          -3.1077    1.4166    1.0528 H       1  UNL1        0.0653
     31 H           0.8590   -1.7662   -1.6101 H       1  UNL1        0.0640
     32 H          -1.0751   -2.9477   -2.4963 H       1  UNL1        0.0619
     33 H          -3.2835   -2.2474   -1.8687 H       1  UNL1        0.0639
     34 H           3.2427   -1.7064    1.5246 H       1  UNL1        0.0465
     35 H           1.9829   -2.2911    0.4550 H       1  UNL1        0.0465
     36 H           3.2439   -1.8028   -1.5207 H       1  UNL1        0.0281
     37 H           4.4534   -2.4683   -0.4331 H       1  UNL1        0.0281
     38 H           5.5948   -0.5720   -0.9465 H       1  UNL1        0.0271
     39 H           4.2119    0.2266   -1.6860 H       1  UNL1        0.0271
     40 H           4.2674    2.2871   -1.0710 H       1  UNL1        0.0235
     41 H           4.8500    2.7915    0.6066 H       1  UNL1        0.0235
     42 H           5.9261    1.9308   -0.5260 H       1  UNL1        0.0235
     43 H           6.0431   -0.7312    1.1112 H       1  UNL1        0.0235
     44 H           6.4423    0.9754    1.3421 H       1  UNL1        0.0235
     45 H           5.2225    0.2895    2.4233 H       1  UNL1        0.0235
     46 H           3.2891    0.4690    2.0925 H       1  UNL1        0.0470
     47 H           2.7766    1.8162    1.0741 H       1  UNL1        0.0470
@<TRIPOS>BOND
     1     1     2    1
     2     2     3   ar
     3     3     4   ar
     4     4     5   ar
     5     5     6   ar
     6     6     7   ar
     7     7     8    1
     8     5     9    1
     9     9    10   ar
    10    10    11   ar
    11    11    12   ar
    12    12    13   ar
    13    13    14   ar
    14    11    15    1
    15    15    16    2
    16    15    17   am
    17    17    18    1
    18    18    19    1
    19    19    20    1
    20    20    21    1
    21    21    22    1
    22    21    23    1
    23    21    24    1
    24     7     2   ar
    25    14     9   ar
    26    24    17    1
    27     1    25    1
    28     1    26    1
    29     1    27    1
    30     3    28    1
    31     4    29    1
    32     6    30    1
    33    12    31    1
    34    13    32    1
    35    14    33    1
    36    18    34    1
    37    18    35    1
    38    19    36    1
    39    19    37    1
    40    20    38    1
    41    20    39    1
    42    22    40    1
    43    22    41    1
    44    22    42    1
    45    23    43    1
    46    23    44    1
    47    23    45    1
    48    24    46    1
    49    24    47    1
