
     RDKit          3D

 42 45  0  0  0  0  0  0  0  0999 V2000
    5.9958   -0.5655    0.5869 C   0  0  0  0  0  0  0  0  0  0  0  0
    4.7695    0.1823    0.1625 C   0  0  0  0  0  0  0  0  0  0  0  0
    4.7237    1.5500    0.0718 C   0  0  0  0  0  0  0  0  0  0  0  0
    3.5115    1.8503   -0.3232 O   0  0  0  0  0  0  0  0  0  0  0  0
    2.8002    0.7592   -0.4842 C   0  0  0  0  0  0  0  0  0  0  0  0
    1.3999    0.7702   -0.9217 C   0  0  1  0  0  0  0  0  0  0  0  0
    0.7211   -0.5615   -0.7838 C   0  0  0  0  0  0  0  0  0  0  0  0
   -0.3659   -0.5039    0.3165 C   0  0  1  0  0  0  0  0  0  0  0  0
    0.3348   -0.4920    1.6111 C   0  0  0  0  0  0  0  0  0  0  0  0
    0.2800    1.1055    2.4697 S   0  0  0  0  0  0  0  0  0  0  0  0
   -1.4360    1.6184    2.2270 C   0  0  0  0  0  0  0  0  0  0  0  0
   -2.1040    2.3358    3.2401 N   0  0  0  0  0  0  0  0  0  0  0  0
   -1.9223    1.2769    1.1168 N   0  0  0  0  0  0  0  0  0  0  0  0
   -1.3663    0.5592    0.0130 C   0  0  2  0  0  0  0  0  0  0  0  0
   -2.5443   -0.0580   -0.6617 C   0  0  0  0  0  0  0  0  0  0  0  0
   -2.8661    0.2227   -1.9409 C   0  0  0  0  0  0  0  0  0  0  0  0
   -3.9756   -0.3497   -2.5783 C   0  0  0  0  0  0  0  0  0  0  0  0
   -4.7568   -1.2350   -1.8451 C   0  0  0  0  0  0  0  0  0  0  0  0
   -5.8252   -1.7711   -2.4961 F   0  0  0  0  0  0  0  0  0  0  0  0
   -4.4511   -1.5383   -0.5395 C   0  0  0  0  0  0  0  0  0  0  0  0
   -3.3379   -0.9393    0.0390 C   0  0  0  0  0  0  0  0  0  0  0  0
   -3.0614   -1.2617    1.3379 F   0  0  0  0  0  0  0  0  0  0  0  0
   -0.6764    1.6008   -0.8385 C   0  0  0  0  0  0  0  0  0  0  0  0
    0.6200    1.7258   -0.2750 O   0  0  0  0  0  0  0  0  0  0  0  0
    3.5747   -0.3162   -0.1824 N   0  0  0  0  0  0  0  0  0  0  0  0
    6.6971   -0.5766   -0.2721 H   0  0  0  0  0  0  0  0  0  0  0  0
    6.4440   -0.0016    1.4213 H   0  0  0  0  0  0  0  0  0  0  0  0
    5.7237   -1.6043    0.8530 H   0  0  0  0  0  0  0  0  0  0  0  0
    5.5184    2.2550    0.2803 H   0  0  0  0  0  0  0  0  0  0  0  0
    1.3499    1.0425   -2.0173 H   0  0  0  0  0  0  0  0  0  0  0  0
    1.4608   -1.3052   -0.4429 H   0  0  0  0  0  0  0  0  0  0  0  0
    0.2739   -0.9100   -1.7292 H   0  0  0  0  0  0  0  0  0  0  0  0
   -0.8746   -1.5044    0.2241 H   0  0  0  0  0  0  0  0  0  0  0  0
    1.4023   -0.7773    1.5191 H   0  0  0  0  0  0  0  0  0  0  0  0
   -0.0901   -1.2399    2.3450 H   0  0  0  0  0  0  0  0  0  0  0  0
   -2.8208    1.8453    3.8097 H   0  0  0  0  0  0  0  0  0  0  0  0
   -1.9182    3.3370    3.4515 H   0  0  0  0  0  0  0  0  0  0  0  0
   -2.2956    0.8916   -2.5187 H   0  0  0  0  0  0  0  0  0  0  0  0
   -4.1884   -0.0902   -3.6056 H   0  0  0  0  0  0  0  0  0  0  0  0
   -5.0912   -2.2312   -0.0185 H   0  0  0  0  0  0  0  0  0  0  0  0
   -1.1356    2.6014   -0.7502 H   0  0  0  0  0  0  0  0  0  0  0  0
   -0.4976    1.3401   -1.8715 H   0  0  0  0  0  0  0  0  0  0  0  0
  1  2  1  0
  2  3  2  0
  3  4  1  0
  4  5  1  0
  5  6  1  0
  6  7  1  0
  7  8  1  0
  8  9  1  0
  9 10  1  0
 10 11  1  0
 11 12  1  0
 11 13  2  0
 13 14  1  0
 14 15  1  6
 15 16  2  0
 16 17  1  0
 17 18  2  0
 18 19  1  0
 18 20  1  0
 20 21  2  0
 21 22  1  0
 14 23  1  0
 23 24  1  0
  5 25  2  0
 25  2  1  0
 24  6  1  0
 14  8  1  0
 21 15  1  0
  1 26  1  0
  1 27  1  0
  1 28  1  0
  3 29  1  0
  6 30  1  6
  7 31  1  0
  7 32  1  0
  8 33  1  1
  9 34  1  0
  9 35  1  0
 12 36  1  0
 12 37  1  0
 16 38  1  0
 17 39  1  0
 20 40  1  0
 23 41  1  0
 23 42  1  0
M  END
$$$$
