@<TRIPOS>MOLECULE
*****
 42 45 0 0 0
SMALL
GASTEIGER

@<TRIPOS>ATOM
      1 C           5.9958   -0.5655    0.5869 C.3     1  UNL1       -0.0193
      2 C           4.7695    0.1823    0.1625 C.ar    1  UNL1        0.0765
      3 C           4.7237    1.5500    0.0718 C.ar    1  UNL1        0.1151
      4 O           3.5115    1.8503   -0.3232 O.2     1  UNL1       -0.4450
      5 C           2.8002    0.7592   -0.4842 C.ar    1  UNL1        0.2245
      6 C           1.3999    0.7702   -0.9217 C.3     1  UNL1        0.1347
      7 C           0.7211   -0.5615   -0.7838 C.3     1  UNL1       -0.0117
      8 C          -0.3659   -0.5039    0.3165 C.3     1  UNL1        0.0029
      9 C           0.3348   -0.4920    1.6111 C.3     1  UNL1        0.0064
     10 S           0.2800    1.1055    2.4697 S.3     1  UNL1       -0.0907
     11 C          -1.4360    1.6184    2.2270 C.2     1  UNL1        0.1476
     12 N          -2.1040    2.3358    3.2401 N.pl3   1  UNL1       -0.3380
     13 N          -1.9223    1.2769    1.1168 N.2     1  UNL1       -0.2495
     14 C          -1.3663    0.5592    0.0130 C.3     1  UNL1        0.1185
     15 C          -2.5443   -0.0580   -0.6617 C.ar    1  UNL1        0.0178
     16 C          -2.8661    0.2227   -1.9409 C.ar    1  UNL1       -0.0507
     17 C          -3.9756   -0.3497   -2.5783 C.ar    1  UNL1       -0.0259
     18 C          -4.7568   -1.2350   -1.8451 C.ar    1  UNL1        0.1261
     19 F          -5.8252   -1.7711   -2.4961 F       1  UNL1       -0.2054
     20 C          -4.4511   -1.5383   -0.5395 C.ar    1  UNL1        0.0091
     21 C          -3.3379   -0.9393    0.0390 C.ar    1  UNL1        0.1317
     22 F          -3.0614   -1.2617    1.3379 F       1  UNL1       -0.2050
     23 C          -0.6764    1.6008   -0.8385 C.3     1  UNL1        0.0783
     24 O           0.6200    1.7258   -0.2750 O.3     1  UNL1       -0.3645
     25 N           3.5747   -0.3162   -0.1824 N.ar    1  UNL1       -0.2164
     26 H           6.6971   -0.5766   -0.2721 H       1  UNL1        0.0293
     27 H           6.4440   -0.0016    1.4213 H       1  UNL1        0.0293
     28 H           5.7237   -1.6043    0.8530 H       1  UNL1        0.0293
     29 H           5.5184    2.2550    0.2803 H       1  UNL1        0.1049
     30 H           1.3499    1.0425   -2.0173 H       1  UNL1        0.0694
     31 H           1.4608   -1.3052   -0.4429 H       1  UNL1        0.0299
     32 H           0.2739   -0.9100   -1.7292 H       1  UNL1        0.0299
     33 H          -0.8746   -1.5044    0.2241 H       1  UNL1        0.0337
     34 H           1.4023   -0.7773    1.5191 H       1  UNL1        0.0384
     35 H          -0.0901   -1.2399    2.3450 H       1  UNL1        0.0384
     36 H          -2.8208    1.8453    3.8097 H       1  UNL1        0.1442
     37 H          -1.9182    3.3370    3.4515 H       1  UNL1        0.1442
     38 H          -2.2956    0.8916   -2.5187 H       1  UNL1        0.0623
     39 H          -4.1884   -0.0902   -3.6056 H       1  UNL1        0.0646
     40 H          -5.0912   -2.2312   -0.0185 H       1  UNL1        0.0675
     41 H          -1.1356    2.6014   -0.7502 H       1  UNL1        0.0588
     42 H          -0.4976    1.3401   -1.8715 H       1  UNL1        0.0588
@<TRIPOS>BOND
     1     1     2    1
     2     2     3   ar
     3     3     4   ar
     4     4     5   ar
     5     5     6    1
     6     6     7    1
     7     7     8    1
     8     8     9    1
     9     9    10    1
    10    10    11    1
    11    11    12    1
    12    11    13    2
    13    13    14    1
    14    14    15    1
    15    15    16   ar
    16    16    17   ar
    17    17    18   ar
    18    18    19    1
    19    18    20   ar
    20    20    21   ar
    21    21    22    1
    22    14    23    1
    23    23    24    1
    24     5    25   ar
    25    25     2   ar
    26    24     6    1
    27    14     8    1
    28    21    15   ar
    29     1    26    1
    30     1    27    1
    31     1    28    1
    32     3    29    1
    33     6    30    1
    34     7    31    1
    35     7    32    1
    36     8    33    1
    37     9    34    1
    38     9    35    1
    39    12    36    1
    40    12    37    1
    41    16    38    1
    42    17    39    1
    43    20    40    1
    44    23    41    1
    45    23    42    1
