@<TRIPOS>MOLECULE
*****
 41 44 0 0 0
SMALL
GASTEIGER

@<TRIPOS>ATOM
      1 N          -2.1583   -3.7187    2.9260 N.1     1  UNL1       -0.1893
      2 C          -2.4028   -3.3427    1.8471 C.1     1  UNL1        0.1192
      3 C          -2.7074   -2.8557    0.5229 C.ar    1  UNL1        0.1438
      4 C          -3.7908   -3.1835   -0.2832 C.ar    1  UNL1        0.0643
      5 N          -3.6848   -2.5026   -1.4324 N.ar    1  UNL1       -0.2348
      6 C          -2.5662   -1.7512   -1.3819 C.ar    1  UNL1        0.1385
      7 C          -1.9741   -0.8719   -2.2669 C.ar    1  UNL1       -0.0181
      8 C          -0.7954   -0.2134   -1.9618 C.ar    1  UNL1       -0.0477
      9 C          -0.2060   -0.4517   -0.7350 C.ar    1  UNL1        0.0173
     10 C           1.0258    0.1897   -0.3115 C.ar    1  UNL1        0.0794
     11 C           1.1199    1.4735    0.1741 C.ar    1  UNL1        0.0986
     12 C           0.0318    2.4241    0.3676 C.ar    1  UNL1        0.0027
     13 C          -0.7189    2.9511   -0.6608 C.ar    1  UNL1       -0.0498
     14 C          -1.7472    3.8485   -0.4570 C.ar    1  UNL1       -0.0258
     15 C          -2.0773    4.2679    0.8131 C.ar    1  UNL1        0.1234
     16 F          -3.0806    5.1451    1.0161 F       1  UNL1       -0.2055
     17 C          -1.3426    3.7564    1.8601 C.ar    1  UNL1       -0.0258
     18 C          -0.3178    2.8615    1.6530 C.ar    1  UNL1       -0.0498
     19 N           2.4082    1.7409    0.4577 N.ar    1  UNL1       -0.2140
     20 C           3.1433    0.6654    0.1681 C.ar    1  UNL1        0.1942
     21 N           4.5514    0.5428    0.3256 N.pl3   1  UNL1       -0.3288
     22 N           2.2933   -0.2780   -0.3010 N.ar    1  UNL1       -0.3060
     23 C           2.7196   -1.5870   -0.7327 C.3     1  UNL1        0.0869
     24 C           2.7089   -2.5407    0.4420 C.3     1  UNL1        0.2569
     25 F           3.1274   -3.8006   -0.0072 F       1  UNL1       -0.2073
     26 F           3.6427   -2.1720    1.4006 F       1  UNL1       -0.2073
     27 C          -0.8554   -1.3441    0.0998 C.ar    1  UNL1        0.0216
     28 N          -1.9887   -1.9762   -0.1958 N.ar    1  UNL1       -0.2906
     29 H          -4.5449   -3.8815    0.0453 H       1  UNL1        0.0859
     30 H          -2.4622   -0.7082   -3.2189 H       1  UNL1        0.0654
     31 H          -0.3163    0.4733   -2.6326 H       1  UNL1        0.0626
     32 H          -0.4916    2.6516   -1.6644 H       1  UNL1        0.0625
     33 H          -2.3307    4.2530   -1.2970 H       1  UNL1        0.0646
     34 H          -1.6015    4.0855    2.8547 H       1  UNL1        0.0646
     35 H           0.2251    2.4908    2.4950 H       1  UNL1        0.0625
     36 H           5.0684   -0.2698   -0.1105 H       1  UNL1        0.1451
     37 H           5.0420    1.2705    0.8762 H       1  UNL1        0.1451
     38 H           2.0091   -2.0059   -1.4931 H       1  UNL1        0.0549
     39 H           3.7371   -1.4906   -1.1702 H       1  UNL1        0.0549
     40 H           1.7081   -2.6148    0.9051 H       1  UNL1        0.1037
     41 H          -0.4008   -1.5307    1.0639 H       1  UNL1        0.0820
@<TRIPOS>BOND
     1     1     2    3
     2     2     3    1
     3     3     4   ar
     4     4     5   ar
     5     5     6   ar
     6     6     7   ar
     7     7     8   ar
     8     8     9   ar
     9     9    10    1
    10    10    11   ar
    11    11    12    1
    12    12    13   ar
    13    13    14   ar
    14    14    15   ar
    15    15    16    1
    16    15    17   ar
    17    17    18   ar
    18    11    19   ar
    19    19    20   ar
    20    20    21    1
    21    20    22   ar
    22    22    23    1
    23    23    24    1
    24    24    25    1
    25    24    26    1
    26     9    27   ar
    27    27    28   ar
    28    28     3   ar
    29    28     6   ar
    30    22    10   ar
    31    18    12   ar
    32     4    29    1
    33     7    30    1
    34     8    31    1
    35    13    32    1
    36    14    33    1
    37    17    34    1
    38    18    35    1
    39    21    36    1
    40    21    37    1
    41    23    38    1
    42    23    39    1
    43    24    40    1
    44    27    41    1
