@<TRIPOS>MOLECULE
*****
 40 41 0 0 0
SMALL
GASTEIGER

@<TRIPOS>ATOM
      1 C           4.5015    0.7822   -1.0470 C.3     1  UNL1        0.1037
      2 O           5.1961   -0.0331   -1.9075 O.3     1  UNL1       -0.3872
      3 C           5.4008    1.6751   -0.2198 C.3     1  UNL1        0.0724
      4 O           6.1643    2.5072   -1.0233 O.3     1  UNL1       -0.3924
      5 C           3.5566    0.0357   -0.1370 C.3     1  UNL1        0.1013
      6 O           2.6564   -0.6237   -0.9480 O.3     1  UNL1       -0.2769
      7 N           1.7702   -1.3203   -0.2114 N.am    1  UNL1       -0.1904
      8 C           0.5352   -0.7850    0.2484 C.2     1  UNL1        0.2686
      9 O           0.4426    0.3797   -0.1405 O.2     1  UNL1       -0.2680
     10 C          -0.3593   -1.6136    1.0390 C.ar    1  UNL1        0.0628
     11 C          -0.0427   -2.8799    1.4351 C.ar    1  UNL1       -0.0449
     12 C          -0.9526   -3.5823    2.2232 C.ar    1  UNL1       -0.0228
     13 C          -2.1736   -3.0398    2.6218 C.ar    1  UNL1        0.1603
     14 F          -3.0000   -3.7770    3.3824 F       1  UNL1       -0.2024
     15 C          -2.4555   -1.7380    2.1910 C.ar    1  UNL1        0.1801
     16 F          -3.6612   -1.2987    2.6275 F       1  UNL1       -0.2005
     17 C          -1.5493   -1.0281    1.4008 C.ar    1  UNL1        0.0822
     18 N          -2.0692    0.2359    1.0645 N.pl3   1  UNL1       -0.3105
     19 C          -3.0672    0.8189    0.2384 C.ar    1  UNL1        0.0500
     20 C          -3.9228    1.5439    1.0806 C.ar    1  UNL1       -0.0381
     21 C          -5.0240    2.2350    0.5610 C.ar    1  UNL1       -0.0468
     22 C          -5.2211    2.1677   -0.7981 C.ar    1  UNL1        0.0149
     23 I          -6.8489    3.1705   -1.6944 I       1  UNL1       -0.0438
     24 C          -4.4030    1.4681   -1.6443 C.ar    1  UNL1       -0.0284
     25 C          -3.3331    0.8022   -1.1003 C.ar    1  UNL1        0.0630
     26 CL         -2.2070   -0.1444   -2.0180 Cl      1  UNL1       -0.0816
     27 H           3.8784    1.4592   -1.6715 H       1  UNL1        0.0640
     28 H           5.9751   -0.4684   -1.4825 H       1  UNL1        0.2100
     29 H           6.0360    1.0979    0.4700 H       1  UNL1        0.0584
     30 H           4.7570    2.3277    0.3980 H       1  UNL1        0.0584
     31 H           5.5473    3.0059   -1.6285 H       1  UNL1        0.2095
     32 H           3.0160    0.8156    0.4595 H       1  UNL1        0.0610
     33 H           4.0778   -0.6444    0.5542 H       1  UNL1        0.0610
     34 H           2.1223   -2.3052   -0.0298 H       1  UNL1        0.1828
     35 H           0.8824   -3.3549    1.1617 H       1  UNL1        0.0627
     36 H          -0.6679   -4.5919    2.5220 H       1  UNL1        0.0647
     37 H          -1.4417    0.8275    1.6776 H       1  UNL1        0.1523
     38 H          -3.8866    1.6835    2.1733 H       1  UNL1        0.0637
     39 H          -5.7283    2.8138    1.1344 H       1  UNL1        0.0628
     40 H          -4.5008    1.3755   -2.7115 H       1  UNL1        0.0643
@<TRIPOS>BOND
     1     1     2    1
     2     1     3    1
     3     3     4    1
     4     1     5    1
     5     5     6    1
     6     6     7    1
     7     7     8   am
     8     8     9    2
     9     8    10    1
    10    10    11   ar
    11    11    12   ar
    12    12    13   ar
    13    13    14    1
    14    13    15   ar
    15    15    16    1
    16    15    17   ar
    17    17    18    1
    18    18    19    1
    19    19    20   ar
    20    20    21   ar
    21    21    22   ar
    22    22    23    1
    23    22    24   ar
    24    24    25   ar
    25    25    26    1
    26    17    10   ar
    27    25    19   ar
    28     1    27    1
    29     2    28    1
    30     3    29    1
    31     3    30    1
    32     4    31    1
    33     5    32    1
    34     5    33    1
    35     7    34    1
    36    11    35    1
    37    12    36    1
    38    18    37    1
    39    20    38    1
    40    21    39    1
    41    24    40    1
