
     RDKit          3D

 46 47  0  0  0  0  0  0  0  0999 V2000
    8.1903   -2.0838   -1.6749 C   0  0  0  0  0  0  0  0  0  0  0  0
    7.6738   -1.3484   -0.7349 C   0  0  0  0  0  0  0  0  0  0  0  0
    6.2702   -0.9218   -0.8129 C   0  0  0  0  0  0  0  0  0  0  0  0
    5.5902   -1.2721   -1.7858 O   0  0  0  0  0  0  0  0  0  0  0  0
    5.6877   -0.1249    0.1964 N   0  0  0  0  0  0  0  0  0  0  0  0
    4.3710    0.3602    0.2697 C   0  0  0  0  0  0  0  0  0  0  0  0
    3.4228    0.1068   -0.6896 C   0  0  0  0  0  0  0  0  0  0  0  0
    2.1179    0.6224   -0.5492 C   0  0  0  0  0  0  0  0  0  0  0  0
    1.7585    1.3843    0.5375 C   0  0  0  0  0  0  0  0  0  0  0  0
    0.1224    1.9774    0.6313 S   0  0  0  0  0  6  0  0  0  0  0  0
    0.0897    3.3572    1.2522 O   0  0  0  0  0  0  0  0  0  0  0  0
   -0.4095    2.1286   -0.7795 O   0  0  0  0  0  0  0  0  0  0  0  0
   -0.8956    0.9024    1.5061 N   0  0  0  0  0  0  0  0  0  0  0  0
   -0.9509   -0.3554    0.8489 C   0  0  0  0  0  0  0  0  0  0  0  0
   -2.0687   -0.4442   -0.1442 C   0  0  0  0  0  0  0  0  0  0  0  0
   -3.3175   -0.2294    0.5522 N   0  0  0  0  0  0  0  0  0  0  0  0
   -4.5155   -0.8109    0.0077 C   0  0  0  0  0  0  0  0  0  0  0  0
   -4.4480   -1.4877   -1.0483 O   0  0  0  0  0  0  0  0  0  0  0  0
   -5.7446   -0.6536    0.6035 O   0  0  0  0  0  0  0  0  0  0  0  0
   -6.9523   -1.1978    0.1111 C   0  0  0  0  0  0  0  0  0  0  0  0
   -7.1979   -0.6230   -1.2647 C   0  0  0  0  0  0  0  0  0  0  0  0
   -3.3111    0.5516    1.7485 C   0  0  0  0  0  0  0  0  0  0  0  0
   -2.1615    1.5328    1.7201 C   0  0  0  0  0  0  0  0  0  0  0  0
    2.7086    1.6383    1.4988 C   0  0  0  0  0  0  0  0  0  0  0  0
    3.9782    1.1361    1.3605 C   0  0  0  0  0  0  0  0  0  0  0  0
    7.5895   -2.3818   -2.5135 H   0  0  0  0  0  0  0  0  0  0  0  0
    9.2184   -2.4036   -1.6319 H   0  0  0  0  0  0  0  0  0  0  0  0
    8.2464   -1.0359    0.1127 H   0  0  0  0  0  0  0  0  0  0  0  0
    6.3373    0.1379    1.0043 H   0  0  0  0  0  0  0  0  0  0  0  0
    3.6271   -0.4836   -1.5715 H   0  0  0  0  0  0  0  0  0  0  0  0
    1.4327    0.3817   -1.3458 H   0  0  0  0  0  0  0  0  0  0  0  0
   -1.0886   -1.1849    1.5862 H   0  0  0  0  0  0  0  0  0  0  0  0
    0.0049   -0.5781    0.3004 H   0  0  0  0  0  0  0  0  0  0  0  0
   -1.9686    0.4144   -0.8536 H   0  0  0  0  0  0  0  0  0  0  0  0
   -2.0610   -1.4136   -0.6871 H   0  0  0  0  0  0  0  0  0  0  0  0
   -6.9159   -2.3094    0.0691 H   0  0  0  0  0  0  0  0  0  0  0  0
   -7.7999   -0.9679    0.7988 H   0  0  0  0  0  0  0  0  0  0  0  0
   -7.9047    0.2304   -1.1248 H   0  0  0  0  0  0  0  0  0  0  0  0
   -6.2601   -0.1638   -1.6320 H   0  0  0  0  0  0  0  0  0  0  0  0
   -7.6117   -1.3843   -1.9621 H   0  0  0  0  0  0  0  0  0  0  0  0
   -3.2821   -0.0792    2.6567 H   0  0  0  0  0  0  0  0  0  0  0  0
   -4.2459    1.1504    1.7853 H   0  0  0  0  0  0  0  0  0  0  0  0
   -2.1091    1.9886    2.7530 H   0  0  0  0  0  0  0  0  0  0  0  0
   -2.3455    2.3610    1.0279 H   0  0  0  0  0  0  0  0  0  0  0  0
    2.4107    2.2382    2.3453 H   0  0  0  0  0  0  0  0  0  0  0  0
    4.7181    1.3386    2.1166 H   0  0  0  0  0  0  0  0  0  0  0  0
  1  2  2  3
  2  3  1  0
  3  4  2  0
  3  5  1  0
  5  6  1  0
  6  7  2  0
  7  8  1  0
  8  9  2  0
  9 10  1  0
 10 11  2  0
 10 12  2  0
 10 13  1  0
 13 14  1  0
 14 15  1  0
 15 16  1  0
 16 17  1  0
 17 18  2  0
 17 19  1  0
 19 20  1  0
 20 21  1  0
 16 22  1  0
 22 23  1  0
  9 24  1  0
 24 25  2  0
 25  6  1  0
 23 13  1  0
  1 26  1  0
  1 27  1  0
  2 28  1  0
  5 29  1  0
  7 30  1  0
  8 31  1  0
 14 32  1  0
 14 33  1  0
 15 34  1  0
 15 35  1  0
 20 36  1  0
 20 37  1  0
 21 38  1  0
 21 39  1  0
 21 40  1  0
 22 41  1  0
 22 42  1  0
 23 43  1  0
 23 44  1  0
 24 45  1  0
 25 46  1  0
M  END
$$$$
