@<TRIPOS>MOLECULE
*****
 46 47 0 0 0
SMALL
GASTEIGER

@<TRIPOS>ATOM
      1 C           8.1903   -2.0838   -1.6749 C.2     1  UNL1       -0.0938
      2 C           7.6738   -1.3484   -0.7349 C.2     1  UNL1       -0.0066
      3 C           6.2702   -0.9218   -0.8129 C.2     1  UNL1        0.2405
      4 O           5.5902   -1.2721   -1.7858 O.2     1  UNL1       -0.2705
      5 N           5.6877   -0.1249    0.1964 N.am    1  UNL1       -0.2820
      6 C           4.3710    0.3602    0.2697 C.ar    1  UNL1        0.0338
      7 C           3.4228    0.1068   -0.6896 C.ar    1  UNL1       -0.0386
      8 C           2.1179    0.6224   -0.5492 C.ar    1  UNL1       -0.0336
      9 C           1.7585    1.3843    0.5375 C.ar    1  UNL1        0.1056
     10 S           0.1224    1.9774    0.6313 S.O2    1  UNL1        0.0609
     11 O           0.0897    3.3572    1.2522 O.2     1  UNL1       -0.1528
     12 O          -0.4095    2.1286   -0.7795 O.2     1  UNL1       -0.1528
     13 N          -0.8956    0.9024    1.5061 N.3     1  UNL1       -0.1736
     14 C          -0.9509   -0.3554    0.8489 C.3     1  UNL1        0.0364
     15 C          -2.0687   -0.4442   -0.1442 C.3     1  UNL1        0.0323
     16 N          -3.3175   -0.2294    0.5522 N.am    1  UNL1       -0.2649
     17 C          -4.5155   -0.8109    0.0077 C.2     1  UNL1        0.4029
     18 O          -4.4480   -1.4877   -1.0483 O.2     1  UNL1       -0.2263
     19 O          -5.7446   -0.6536    0.6035 O.3     1  UNL1       -0.4505
     20 C          -6.9523   -1.1978    0.1111 C.3     1  UNL1        0.0913
     21 C          -7.1979   -0.6230   -1.2647 C.3     1  UNL1       -0.0305
     22 C          -3.3111    0.5516    1.7485 C.3     1  UNL1        0.0323
     23 C          -2.1615    1.5328    1.7201 C.3     1  UNL1        0.0364
     24 C           2.7086    1.6383    1.4988 C.ar    1  UNL1       -0.0336
     25 C           3.9782    1.1361    1.3605 C.ar    1  UNL1       -0.0386
     26 H           7.5895   -2.3818   -2.5135 H       1  UNL1        0.0536
     27 H           9.2184   -2.4036   -1.6319 H       1  UNL1        0.0536
     28 H           8.2464   -1.0359    0.1127 H       1  UNL1        0.0663
     29 H           6.3373    0.1379    1.0043 H       1  UNL1        0.1551
     30 H           3.6271   -0.4836   -1.5715 H       1  UNL1        0.0637
     31 H           1.4327    0.3817   -1.3458 H       1  UNL1        0.0638
     32 H          -1.0886   -1.1849    1.5862 H       1  UNL1        0.0459
     33 H           0.0049   -0.5781    0.3004 H       1  UNL1        0.0459
     34 H          -1.9686    0.4144   -0.8536 H       1  UNL1        0.0479
     35 H          -2.0610   -1.4136   -0.6871 H       1  UNL1        0.0479
     36 H          -6.9159   -2.3094    0.0691 H       1  UNL1        0.0695
     37 H          -7.7999   -0.9679    0.7988 H       1  UNL1        0.0695
     38 H          -7.9047    0.2304   -1.1248 H       1  UNL1        0.0262
     39 H          -6.2601   -0.1638   -1.6320 H       1  UNL1        0.0262
     40 H          -7.6117   -1.3843   -1.9621 H       1  UNL1        0.0262
     41 H          -3.2821   -0.0792    2.6567 H       1  UNL1        0.0479
     42 H          -4.2459    1.1504    1.7853 H       1  UNL1        0.0479
     43 H          -2.1091    1.9886    2.7530 H       1  UNL1        0.0459
     44 H          -2.3455    2.3610    1.0279 H       1  UNL1        0.0459
     45 H           2.4107    2.2382    2.3453 H       1  UNL1        0.0638
     46 H           4.7181    1.3386    2.1166 H       1  UNL1        0.0637
@<TRIPOS>BOND
     1     1     2    2
     2     2     3    1
     3     3     4    2
     4     3     5   am
     5     5     6    1
     6     6     7   ar
     7     7     8   ar
     8     8     9   ar
     9     9    10    1
    10    10    11    2
    11    10    12    2
    12    10    13    1
    13    13    14    1
    14    14    15    1
    15    15    16    1
    16    16    17   am
    17    17    18    2
    18    17    19    1
    19    19    20    1
    20    20    21    1
    21    16    22    1
    22    22    23    1
    23     9    24   ar
    24    24    25   ar
    25    25     6   ar
    26    23    13    1
    27     1    26    1
    28     1    27    1
    29     2    28    1
    30     5    29    1
    31     7    30    1
    32     8    31    1
    33    14    32    1
    34    14    33    1
    35    15    34    1
    36    15    35    1
    37    20    36    1
    38    20    37    1
    39    21    38    1
    40    21    39    1
    41    21    40    1
    42    22    41    1
    43    22    42    1
    44    23    43    1
    45    23    44    1
    46    24    45    1
    47    25    46    1
