@<TRIPOS>MOLECULE
*****
 52 56 0 0 0
SMALL
GASTEIGER

@<TRIPOS>ATOM
      1 N          -5.9947    0.7486   -1.5042 N.pl3   1  UNL1       -0.3575
      2 C          -5.6888    0.6697   -0.1241 C.ar    1  UNL1        0.0324
      3 C          -6.5746    1.1827    0.8146 C.ar    1  UNL1       -0.0404
      4 C          -6.2911    1.1135    2.1633 C.ar    1  UNL1       -0.0594
      5 C          -5.1006    0.5174    2.5232 C.ar    1  UNL1       -0.0539
      6 C          -4.2091    0.0021    1.5943 C.ar    1  UNL1       -0.0160
      7 C          -3.0223   -0.5913    1.9684 C.ar    1  UNL1       -0.0520
      8 C          -2.1355   -1.1046    1.0327 C.ar    1  UNL1       -0.0370
      9 C          -2.4226   -1.0335   -0.3134 C.ar    1  UNL1        0.0536
     10 N          -1.5060   -1.5646   -1.2910 N.ar    1  UNL1       -0.2437
     11 C          -0.3233   -1.0784   -1.6623 C.ar    1  UNL1        0.1693
     12 C           0.2777    0.1374   -1.1149 C.ar    1  UNL1        0.0243
     13 C          -0.4088    1.3404   -1.1578 C.ar    1  UNL1       -0.0327
     14 C           0.2308    2.4381   -0.6193 C.ar    1  UNL1        0.0304
     15 N           1.4429    2.3432   -0.0877 N.ar    1  UNL1       -0.2405
     16 C           2.1595    1.1931   -0.0192 C.ar    1  UNL1        0.1195
     17 N           3.4467    1.1424    0.5615 N.pl3   1  UNL1       -0.3261
     18 C           4.2536   -0.0383    0.6510 C.3     1  UNL1        0.0261
     19 C           5.5612    0.2282    1.3768 C.3     1  UNL1       -0.0109
     20 C           6.5076    1.0764    0.5620 C.3     1  UNL1        0.0493
     21 O           6.6652    0.6028   -0.7268 O.3     1  UNL1       -0.3796
     22 C           6.0772   -0.6398   -0.9204 C.3     1  UNL1        0.0493
     23 C           4.5815   -0.6228   -0.6995 C.3     1  UNL1       -0.0109
     24 C           1.5398    0.0816   -0.5516 C.ar    1  UNL1       -0.0112
     25 N           0.1640   -1.9067   -2.5967 N.ar    1  UNL1       -0.1509
     26 N          -0.6828   -2.8935   -2.8161 N.ar    1  UNL1       -0.2260
     27 C          -1.7295   -2.6841   -2.0015 C.ar    1  UNL1        0.3489
     28 O          -2.7574   -3.3995   -1.9014 O.2     1  UNL1       -0.2446
     29 C          -3.6108   -0.4390   -0.6816 C.ar    1  UNL1       -0.0282
     30 C          -4.4979    0.0744    0.2531 C.ar    1  UNL1        0.0047
     31 H          -5.2985    1.0536   -2.2102 H       1  UNL1        0.1423
     32 H          -6.9436    0.4966   -1.8407 H       1  UNL1        0.1423
     33 H          -7.5129    1.6527    0.5361 H       1  UNL1        0.0636
     34 H          -6.9910    1.5182    2.8940 H       1  UNL1        0.0618
     35 H          -4.8423    0.4442    3.5739 H       1  UNL1        0.0624
     36 H          -2.8101   -0.6404    3.0237 H       1  UNL1        0.0624
     37 H          -1.2099   -1.5668    1.3347 H       1  UNL1        0.0638
     38 H          -1.3851    1.3742   -1.5956 H       1  UNL1        0.0640
     39 H          -0.3346    3.3746   -0.6667 H       1  UNL1        0.0830
     40 H           3.8332    2.0420    0.9545 H       1  UNL1        0.1477
     41 H           3.7147   -0.8029    1.2381 H       1  UNL1        0.0499
     42 H           5.3752    0.7945    2.3245 H       1  UNL1        0.0305
     43 H           6.0330   -0.7237    1.6935 H       1  UNL1        0.0305
     44 H           6.2092    2.1434    0.5941 H       1  UNL1        0.0560
     45 H           7.5015    1.0108    1.0562 H       1  UNL1        0.0560
     46 H           6.5204   -1.3390   -0.1872 H       1  UNL1        0.0560
     47 H           6.3011   -1.0291   -1.9173 H       1  UNL1        0.0560
     48 H           4.2689   -1.6845   -0.6993 H       1  UNL1        0.0305
     49 H           4.0515   -0.0751   -1.5053 H       1  UNL1        0.0305
     50 H           2.0205   -0.8856   -0.5466 H       1  UNL1        0.0659
     51 H          -0.5915   -3.6841   -3.4739 H       1  UNL1        0.1937
     52 H          -3.8615   -0.3694   -1.7270 H       1  UNL1        0.0645
@<TRIPOS>BOND
     1     1     2    1
     2     2     3   ar
     3     3     4   ar
     4     4     5   ar
     5     5     6   ar
     6     6     7   ar
     7     7     8   ar
     8     8     9   ar
     9     9    10    1
    10    10    11   ar
    11    11    12    1
    12    12    13   ar
    13    13    14   ar
    14    14    15   ar
    15    15    16   ar
    16    16    17    1
    17    17    18    1
    18    18    19    1
    19    19    20    1
    20    20    21    1
    21    21    22    1
    22    22    23    1
    23    16    24   ar
    24    11    25   ar
    25    25    26   ar
    26    26    27   ar
    27    27    28    2
    28     9    29   ar
    29    29    30   ar
    30    30     2   ar
    31    30     6   ar
    32    27    10   ar
    33    24    12   ar
    34    23    18    1
    35     1    31    1
    36     1    32    1
    37     3    33    1
    38     4    34    1
    39     5    35    1
    40     7    36    1
    41     8    37    1
    42    13    38    1
    43    14    39    1
    44    17    40    1
    45    18    41    1
    46    19    42    1
    47    19    43    1
    48    20    44    1
    49    20    45    1
    50    22    46    1
    51    22    47    1
    52    23    48    1
    53    23    49    1
    54    24    50    1
    55    26    51    1
    56    29    52    1
