@<TRIPOS>MOLECULE
*****
 44 45 0 0 0
SMALL
GASTEIGER

@<TRIPOS>ATOM
      1 C          -4.5078   -1.3793   -1.3702 C.3     1  UNL1        0.0365
      2 O          -5.4059   -0.3733   -1.2068 O.3     1  UNL1       -0.3812
      3 C          -4.9656    0.8640   -0.9705 C.3     1  UNL1        0.0652
      4 C          -4.2546    1.2755    0.2520 C.3     1  UNL1        0.0466
      5 N          -3.0341    0.6626    0.5973 N.ar    1  UNL1       -0.3453
      6 C          -2.8046   -0.3489    1.4479 C.ar    1  UNL1        0.0166
      7 C          -3.8067   -1.0750    2.2725 C.3     1  UNL1       -0.0242
      8 C          -1.4532   -0.6458    1.4787 C.ar    1  UNL1       -0.0304
      9 C          -0.8216    0.2196    0.6105 C.ar    1  UNL1        0.0415
     10 C           0.6054    0.2808    0.3139 C.2     1  UNL1        0.2020
     11 O           1.0057    1.1429   -0.5121 O.2     1  UNL1       -0.2883
     12 C           1.5155   -0.6692    0.9942 C.3     1  UNL1        0.1551
     13 O           2.8489   -0.5029    0.6211 O.3     1  UNL1       -0.4531
     14 C           3.3613   -0.6194   -0.6432 C.2     1  UNL1        0.3407
     15 O           2.5674   -0.9045   -1.5766 O.2     1  UNL1       -0.2449
     16 C           4.7875   -0.4126   -0.8623 C.ar    1  UNL1        0.0729
     17 C           5.3662   -0.5159   -2.1140 C.ar    1  UNL1       -0.0467
     18 C           6.7187   -0.3141   -2.2864 C.ar    1  UNL1       -0.0609
     19 C           7.5161   -0.0026   -1.1926 C.ar    1  UNL1       -0.0607
     20 C           6.9718    0.1072    0.0626 C.ar    1  UNL1       -0.0470
     21 C           5.6168   -0.1019    0.1931 C.ar    1  UNL1        0.0318
     22 BR          4.8385    0.0485    1.9476 Br      1  UNL1       -0.0495
     23 C          -1.8247    1.0025    0.0929 C.ar    1  UNL1        0.0265
     24 C          -1.6016    2.0921   -0.9026 C.3     1  UNL1       -0.0236
     25 H          -3.7696   -1.1654   -2.2113 H       1  UNL1        0.0523
     26 H          -5.0672   -2.3080   -1.7875 H       1  UNL1        0.0523
     27 H          -4.0140   -1.7801   -0.4895 H       1  UNL1        0.0523
     28 H          -5.9101    1.5438   -1.0340 H       1  UNL1        0.0577
     29 H          -4.3554    1.1611   -1.9055 H       1  UNL1        0.0577
     30 H          -5.0089    1.1413    1.1127 H       1  UNL1        0.0514
     31 H          -4.1608    2.4236    0.2670 H       1  UNL1        0.0514
     32 H          -4.8077   -0.9629    1.8167 H       1  UNL1        0.0292
     33 H          -3.5522   -2.1647    2.2296 H       1  UNL1        0.0292
     34 H          -3.8492   -0.6955    3.3082 H       1  UNL1        0.0292
     35 H          -0.9239   -1.3949    2.0470 H       1  UNL1        0.0642
     36 H           1.1620   -1.7237    0.9006 H       1  UNL1        0.0782
     37 H           1.4539   -0.4379    2.0954 H       1  UNL1        0.0782
     38 H           4.7471   -0.7621   -2.9897 H       1  UNL1        0.0626
     39 H           7.2099   -0.3859   -3.2501 H       1  UNL1        0.0618
     40 H           8.5907    0.1642   -1.2902 H       1  UNL1        0.0618
     41 H           7.6020    0.3536    0.9286 H       1  UNL1        0.0629
     42 H          -0.7539    2.7564   -0.5786 H       1  UNL1        0.0292
     43 H          -2.4895    2.7681   -0.9546 H       1  UNL1        0.0292
     44 H          -1.3424    1.6387   -1.8626 H       1  UNL1        0.0292
@<TRIPOS>BOND
     1     1     2    1
     2     2     3    1
     3     3     4    1
     4     4     5    1
     5     5     6   ar
     6     6     7    1
     7     6     8   ar
     8     8     9   ar
     9     9    10    1
    10    10    11    2
    11    10    12    1
    12    12    13    1
    13    13    14    1
    14    14    15    2
    15    14    16    1
    16    16    17   ar
    17    17    18   ar
    18    18    19   ar
    19    19    20   ar
    20    20    21   ar
    21    21    22    1
    22     9    23   ar
    23    23    24    1
    24    23     5   ar
    25    21    16   ar
    26     1    25    1
    27     1    26    1
    28     1    27    1
    29     3    28    1
    30     3    29    1
    31     4    30    1
    32     4    31    1
    33     7    32    1
    34     7    33    1
    35     7    34    1
    36     8    35    1
    37    12    36    1
    38    12    37    1
    39    17    38    1
    40    18    39    1
    41    19    40    1
    42    20    41    1
    43    24    42    1
    44    24    43    1
    45    24    44    1
