@<TRIPOS>MOLECULE
*****
 39 41 0 0 0
SMALL
GASTEIGER

@<TRIPOS>ATOM
      1 C          -4.6172    2.3663    1.3491 C.3     1  UNL1        0.0789
      2 O          -3.8052    1.4036    0.6699 O.3     1  UNL1       -0.4933
      3 C          -4.3583    0.4536   -0.1749 C.ar    1  UNL1        0.1412
      4 C          -5.7394    0.3784   -0.4198 C.ar    1  UNL1       -0.0181
      5 C          -6.2759   -0.5795   -1.2693 C.ar    1  UNL1       -0.0582
      6 C          -5.4097   -1.4659   -1.8729 C.ar    1  UNL1       -0.0598
      7 C          -4.0411   -1.4133   -1.6477 C.ar    1  UNL1       -0.0369
      8 C          -3.5406   -0.4424   -0.7943 C.ar    1  UNL1        0.0748
      9 N          -2.1266   -0.3714   -0.5767 N.am    1  UNL1       -0.2937
     10 C          -1.5342   -0.6346    0.6625 C.2     1  UNL1        0.1412
     11 S          -2.5802   -0.9925    1.8990 S.2     1  UNL1       -0.0182
     12 N          -0.1572   -0.6042    0.9728 N.am    1  UNL1       -0.2634
     13 C           0.9180   -0.3379    0.1159 C.2     1  UNL1        0.2565
     14 O           0.5996   -0.0914   -1.1137 O.2     1  UNL1       -0.2696
     15 C           2.3396   -0.3016    0.4268 C.ar    1  UNL1        0.1219
     16 C           3.2675   -0.0140   -0.5876 C.ar    1  UNL1       -0.0320
     17 C           4.6071    0.0198   -0.2890 C.ar    1  UNL1        0.0183
     18 C           5.5292    0.3046   -1.2885 C.ar    1  UNL1       -0.0511
     19 C           6.8907    0.3412   -0.9894 C.ar    1  UNL1       -0.0610
     20 C           7.3457    0.1000    0.2825 C.ar    1  UNL1       -0.0582
     21 C           6.4379   -0.1833    1.2785 C.ar    1  UNL1       -0.0186
     22 C           5.0841   -0.2227    0.9931 C.ar    1  UNL1        0.1391
     23 O           4.1898   -0.4852    1.9037 O.2     1  UNL1       -0.4216
     24 C           2.8753   -0.5294    1.6583 C.ar    1  UNL1        0.3495
     25 O           2.1280   -0.7966    2.6319 O.2     1  UNL1       -0.2443
     26 H          -5.5403    1.8540    1.7594 H       1  UNL1        0.0660
     27 H          -4.0421    2.8888    2.1473 H       1  UNL1        0.0660
     28 H          -4.9133    3.1327    0.6074 H       1  UNL1        0.0660
     29 H          -6.3947    1.0756    0.0570 H       1  UNL1        0.0655
     30 H          -7.3560   -0.6026   -1.4332 H       1  UNL1        0.0619
     31 H          -5.8073   -2.2218   -2.5364 H       1  UNL1        0.0618
     32 H          -3.3773   -2.1099   -2.1318 H       1  UNL1        0.0637
     33 H          -1.5558   -0.0999   -1.4398 H       1  UNL1        0.1539
     34 H           0.1063   -0.8074    1.9803 H       1  UNL1        0.1568
     35 H           2.8662    0.1710   -1.5695 H       1  UNL1        0.0634
     36 H           5.1863    0.4950   -2.2972 H       1  UNL1        0.0625
     37 H           7.6050    0.5642   -1.7709 H       1  UNL1        0.0618
     38 H           8.3991    0.1285    0.5129 H       1  UNL1        0.0619
     39 H           6.7971   -0.3698    2.2943 H       1  UNL1        0.0654
@<TRIPOS>BOND
     1     1     2    1
     2     2     3    1
     3     3     4   ar
     4     4     5   ar
     5     5     6   ar
     6     6     7   ar
     7     7     8   ar
     8     8     9    1
     9     9    10    1
    10    10    11    2
    11    10    12    1
    12    12    13   am
    13    13    14    2
    14    13    15    1
    15    15    16   ar
    16    16    17   ar
    17    17    18   ar
    18    18    19   ar
    19    19    20   ar
    20    20    21   ar
    21    21    22   ar
    22    22    23   ar
    23    23    24   ar
    24    24    25    2
    25     8     3   ar
    26    24    15   ar
    27    22    17   ar
    28     1    26    1
    29     1    27    1
    30     1    28    1
    31     4    29    1
    32     5    30    1
    33     6    31    1
    34     7    32    1
    35     9    33    1
    36    12    34    1
    37    16    35    1
    38    18    36    1
    39    19    37    1
    40    20    38    1
    41    21    39    1
