@<TRIPOS>MOLECULE
*****
 63 66 0 0 0
SMALL
GASTEIGER

@<TRIPOS>ATOM
      1 C           0.6079    1.5347   -2.9089 C.3     1  UNL1       -0.0421
      2 C           0.6284    0.1238   -2.3590 C.3     1  UNL1        0.0515
      3 C           1.9450   -0.1608   -1.8042 C.ar    1  UNL1       -0.0271
      4 C           2.9591    0.7763   -1.8540 C.ar    1  UNL1       -0.0562
      5 C           4.2016    0.5354   -1.3421 C.ar    1  UNL1       -0.0523
      6 C           4.5059   -0.6806   -0.7405 C.ar    1  UNL1        0.0004
      7 C           5.8551   -0.8420   -0.2166 C.ar    1  UNL1        0.0710
      8 C           6.2013   -2.0239    0.3896 C.ar    1  UNL1       -0.0345
      9 C           7.4785   -2.2184    0.9081 C.ar    1  UNL1       -0.0409
     10 C           8.3833   -1.1928    0.7965 C.ar    1  UNL1        0.0699
     11 C           9.6975   -1.3935    1.3322 C.1     1  UNL1        0.1007
     12 N          10.7718   -1.5520    1.7828 N.1     1  UNL1       -0.1908
     13 C           8.0021   -0.0009    0.1738 C.ar    1  UNL1        0.0456
     14 N           6.7683    0.1569   -0.3152 N.ar    1  UNL1       -0.2537
     15 C           3.5187   -1.6145   -0.6849 C.ar    1  UNL1       -0.0523
     16 C           2.2385   -1.3615   -1.2129 C.ar    1  UNL1       -0.0562
     17 N          -0.4576   -0.1421   -1.4696 N.am    1  UNL1       -0.2605
     18 C          -1.5541   -1.0473   -1.7261 C.3     1  UNL1        0.0224
     19 C          -2.8116   -0.2120   -1.4493 C.3     1  UNL1        0.0076
     20 C          -2.8576    0.1423    0.0570 C.3     1  UNL1        0.1440
     21 C          -3.7103   -0.9490    0.6473 C.3     1  UNL1        0.0199
     22 C          -3.9342   -0.9176    2.1055 C.3     1  UNL1        0.0645
     23 C          -2.6707   -1.0262    2.9044 C.3     1  UNL1       -0.0362
     24 C          -4.7586   -2.1711    2.4492 C.3     1  UNL1       -0.0362
     25 O          -4.7091    0.1431    2.5563 O.3     1  UNL1       -0.3890
     26 C          -3.5424    1.4700    0.1692 C.ar    1  UNL1       -0.0040
     27 C          -3.4163    2.2895    1.2594 C.ar    1  UNL1       -0.0548
     28 C          -4.0667    3.5081    1.3745 C.ar    1  UNL1       -0.0614
     29 C          -4.8739    3.9024    0.3390 C.ar    1  UNL1       -0.0617
     30 C          -5.0369    3.1314   -0.7668 C.ar    1  UNL1       -0.0614
     31 C          -4.3688    1.9099   -0.8525 C.ar    1  UNL1       -0.0548
     32 O          -1.5700    0.2295    0.6143 O.3     1  UNL1       -0.4387
     33 C          -0.5021    0.5338   -0.2113 C.2     1  UNL1        0.4042
     34 O           0.4135    1.3479    0.0666 O.2     1  UNL1       -0.2262
     35 H          -0.4214    1.6733   -3.3469 H       1  UNL1        0.0251
     36 H           0.6727    2.2644   -2.0858 H       1  UNL1        0.0251
     37 H           1.2972    1.6819   -3.7385 H       1  UNL1        0.0251
     38 H           0.4629   -0.5266   -3.2696 H       1  UNL1        0.0549
     39 H           2.7467    1.7271   -2.3129 H       1  UNL1        0.0621
     40 H           4.9468    1.3143   -1.4095 H       1  UNL1        0.0624
     41 H           5.5062   -2.8573    0.4937 H       1  UNL1        0.0639
     42 H           7.7157   -3.1729    1.3811 H       1  UNL1        0.0631
     43 H           8.7673    0.7652    0.1204 H       1  UNL1        0.0843
     44 H           3.7035   -2.5612   -0.2349 H       1  UNL1        0.0624
     45 H           1.4557   -2.1047   -1.1649 H       1  UNL1        0.0621
     46 H          -1.5772   -1.9006   -1.0288 H       1  UNL1        0.0467
     47 H          -1.6295   -1.3455   -2.7757 H       1  UNL1        0.0467
     48 H          -3.7268   -0.6666   -1.8041 H       1  UNL1        0.0322
     49 H          -2.6360    0.7293   -2.0064 H       1  UNL1        0.0322
     50 H          -4.6467   -0.9775    0.0441 H       1  UNL1        0.0335
     51 H          -3.1999   -1.9150    0.4003 H       1  UNL1        0.0335
     52 H          -2.9637   -1.3763    3.9324 H       1  UNL1        0.0257
     53 H          -2.1377   -0.0842    3.0028 H       1  UNL1        0.0257
     54 H          -2.0342   -1.8370    2.4889 H       1  UNL1        0.0257
     55 H          -5.1883   -1.9949    3.4540 H       1  UNL1        0.0257
     56 H          -4.1811   -3.0911    2.3893 H       1  UNL1        0.0257
     57 H          -5.6479   -2.2090    1.7488 H       1  UNL1        0.0257
     58 H          -4.3725    0.5488    3.3784 H       1  UNL1        0.2101
     59 H          -2.7588    1.9834    2.0884 H       1  UNL1        0.0622
     60 H          -3.9013    4.0782    2.2668 H       1  UNL1        0.0618
     61 H          -5.3891    4.8534    0.4146 H       1  UNL1        0.0618
     62 H          -5.6807    3.4511   -1.5923 H       1  UNL1        0.0618
     63 H          -4.5179    1.3214   -1.7294 H       1  UNL1        0.0622
@<TRIPOS>BOND
     1     1     2    1
     2     2     3    1
     3     3     4   ar
     4     4     5   ar
     5     5     6   ar
     6     6     7    1
     7     7     8   ar
     8     8     9   ar
     9     9    10   ar
    10    10    11    1
    11    11    12    3
    12    10    13   ar
    13    13    14   ar
    14     6    15   ar
    15    15    16   ar
    16     2    17    1
    17    17    18    1
    18    18    19    1
    19    19    20    1
    20    20    21    1
    21    21    22    1
    22    22    23    1
    23    22    24    1
    24    22    25    1
    25    20    26    1
    26    26    27   ar
    27    27    28   ar
    28    28    29   ar
    29    29    30   ar
    30    30    31   ar
    31    20    32    1
    32    32    33    1
    33    33    34    2
    34    16     3   ar
    35    33    17   am
    36    14     7   ar
    37    31    26   ar
    38     1    35    1
    39     1    36    1
    40     1    37    1
    41     2    38    1
    42     4    39    1
    43     5    40    1
    44     8    41    1
    45     9    42    1
    46    13    43    1
    47    15    44    1
    48    16    45    1
    49    18    46    1
    50    18    47    1
    51    19    48    1
    52    19    49    1
    53    21    50    1
    54    21    51    1
    55    23    52    1
    56    23    53    1
    57    23    54    1
    58    24    55    1
    59    24    56    1
    60    24    57    1
    61    25    58    1
    62    27    59    1
    63    28    60    1
    64    29    61    1
    65    30    62    1
    66    31    63    1
