
     RDKit          3D

 63 66  0  0  0  0  0  0  0  0999 V2000
    0.6079    1.5347   -2.9089 C   0  0  0  0  0  0  0  0  0  0  0  0
    0.6284    0.1238   -2.3590 C   0  0  1  0  0  0  0  0  0  0  0  0
    1.9450   -0.1608   -1.8042 C   0  0  0  0  0  0  0  0  0  0  0  0
    2.9591    0.7763   -1.8540 C   0  0  0  0  0  0  0  0  0  0  0  0
    4.2016    0.5354   -1.3421 C   0  0  0  0  0  0  0  0  0  0  0  0
    4.5059   -0.6806   -0.7405 C   0  0  0  0  0  0  0  0  0  0  0  0
    5.8551   -0.8420   -0.2166 C   0  0  0  0  0  0  0  0  0  0  0  0
    6.2013   -2.0239    0.3896 C   0  0  0  0  0  0  0  0  0  0  0  0
    7.4785   -2.2184    0.9081 C   0  0  0  0  0  0  0  0  0  0  0  0
    8.3833   -1.1928    0.7965 C   0  0  0  0  0  0  0  0  0  0  0  0
    9.6975   -1.3935    1.3322 C   0  0  0  0  0  0  0  0  0  0  0  0
   10.7718   -1.5520    1.7828 N   0  0  0  0  0  0  0  0  0  0  0  0
    8.0021   -0.0009    0.1738 C   0  0  0  0  0  0  0  0  0  0  0  0
    6.7683    0.1569   -0.3152 N   0  0  0  0  0  0  0  0  0  0  0  0
    3.5187   -1.6145   -0.6849 C   0  0  0  0  0  0  0  0  0  0  0  0
    2.2385   -1.3615   -1.2129 C   0  0  0  0  0  0  0  0  0  0  0  0
   -0.4576   -0.1421   -1.4696 N   0  0  0  0  0  0  0  0  0  0  0  0
   -1.5541   -1.0473   -1.7261 C   0  0  0  0  0  0  0  0  0  0  0  0
   -2.8116   -0.2120   -1.4493 C   0  0  0  0  0  0  0  0  0  0  0  0
   -2.8576    0.1423    0.0570 C   0  0  2  0  0  0  0  0  0  0  0  0
   -3.7103   -0.9490    0.6473 C   0  0  0  0  0  0  0  0  0  0  0  0
   -3.9342   -0.9176    2.1055 C   0  0  0  0  0  0  0  0  0  0  0  0
   -2.6707   -1.0262    2.9044 C   0  0  0  0  0  0  0  0  0  0  0  0
   -4.7586   -2.1711    2.4492 C   0  0  0  0  0  0  0  0  0  0  0  0
   -4.7091    0.1431    2.5563 O   0  0  0  0  0  0  0  0  0  0  0  0
   -3.5424    1.4700    0.1692 C   0  0  0  0  0  0  0  0  0  0  0  0
   -3.4163    2.2895    1.2594 C   0  0  0  0  0  0  0  0  0  0  0  0
   -4.0667    3.5081    1.3745 C   0  0  0  0  0  0  0  0  0  0  0  0
   -4.8739    3.9024    0.3390 C   0  0  0  0  0  0  0  0  0  0  0  0
   -5.0369    3.1314   -0.7668 C   0  0  0  0  0  0  0  0  0  0  0  0
   -4.3688    1.9099   -0.8525 C   0  0  0  0  0  0  0  0  0  0  0  0
   -1.5700    0.2295    0.6143 O   0  0  0  0  0  0  0  0  0  0  0  0
   -0.5021    0.5338   -0.2113 C   0  0  0  0  0  0  0  0  0  0  0  0
    0.4135    1.3479    0.0666 O   0  0  0  0  0  0  0  0  0  0  0  0
   -0.4214    1.6733   -3.3469 H   0  0  0  0  0  0  0  0  0  0  0  0
    0.6727    2.2644   -2.0858 H   0  0  0  0  0  0  0  0  0  0  0  0
    1.2972    1.6819   -3.7385 H   0  0  0  0  0  0  0  0  0  0  0  0
    0.4629   -0.5266   -3.2696 H   0  0  0  0  0  0  0  0  0  0  0  0
    2.7467    1.7271   -2.3129 H   0  0  0  0  0  0  0  0  0  0  0  0
    4.9468    1.3143   -1.4095 H   0  0  0  0  0  0  0  0  0  0  0  0
    5.5062   -2.8573    0.4937 H   0  0  0  0  0  0  0  0  0  0  0  0
    7.7157   -3.1729    1.3811 H   0  0  0  0  0  0  0  0  0  0  0  0
    8.7673    0.7652    0.1204 H   0  0  0  0  0  0  0  0  0  0  0  0
    3.7035   -2.5612   -0.2349 H   0  0  0  0  0  0  0  0  0  0  0  0
    1.4557   -2.1047   -1.1649 H   0  0  0  0  0  0  0  0  0  0  0  0
   -1.5772   -1.9006   -1.0288 H   0  0  0  0  0  0  0  0  0  0  0  0
   -1.6295   -1.3455   -2.7757 H   0  0  0  0  0  0  0  0  0  0  0  0
   -3.7268   -0.6666   -1.8041 H   0  0  0  0  0  0  0  0  0  0  0  0
   -2.6360    0.7293   -2.0064 H   0  0  0  0  0  0  0  0  0  0  0  0
   -4.6467   -0.9775    0.0441 H   0  0  0  0  0  0  0  0  0  0  0  0
   -3.1999   -1.9150    0.4003 H   0  0  0  0  0  0  0  0  0  0  0  0
   -2.9637   -1.3763    3.9324 H   0  0  0  0  0  0  0  0  0  0  0  0
   -2.1377   -0.0842    3.0028 H   0  0  0  0  0  0  0  0  0  0  0  0
   -2.0342   -1.8370    2.4889 H   0  0  0  0  0  0  0  0  0  0  0  0
   -5.1883   -1.9949    3.4540 H   0  0  0  0  0  0  0  0  0  0  0  0
   -4.1811   -3.0911    2.3893 H   0  0  0  0  0  0  0  0  0  0  0  0
   -5.6479   -2.2090    1.7488 H   0  0  0  0  0  0  0  0  0  0  0  0
   -4.3725    0.5488    3.3784 H   0  0  0  0  0  0  0  0  0  0  0  0
   -2.7588    1.9834    2.0884 H   0  0  0  0  0  0  0  0  0  0  0  0
   -3.9013    4.0782    2.2668 H   0  0  0  0  0  0  0  0  0  0  0  0
   -5.3891    4.8534    0.4146 H   0  0  0  0  0  0  0  0  0  0  0  0
   -5.6807    3.4511   -1.5923 H   0  0  0  0  0  0  0  0  0  0  0  0
   -4.5179    1.3214   -1.7294 H   0  0  0  0  0  0  0  0  0  0  0  0
  1  2  1  0
  2  3  1  0
  3  4  2  0
  4  5  1  0
  5  6  2  0
  6  7  1  0
  7  8  2  0
  8  9  1  0
  9 10  2  0
 10 11  1  0
 11 12  3  0
 10 13  1  0
 13 14  2  0
  6 15  1  0
 15 16  2  0
  2 17  1  0
 17 18  1  0
 18 19  1  0
 19 20  1  0
 20 21  1  1
 21 22  1  0
 22 23  1  0
 22 24  1  0
 22 25  1  0
 20 26  1  0
 26 27  2  0
 27 28  1  0
 28 29  2  0
 29 30  1  0
 30 31  2  0
 20 32  1  0
 32 33  1  0
 33 34  2  0
 16  3  1  0
 33 17  1  0
 14  7  1  0
 31 26  1  0
  1 35  1  0
  1 36  1  0
  1 37  1  0
  2 38  1  6
  4 39  1  0
  5 40  1  0
  8 41  1  0
  9 42  1  0
 13 43  1  0
 15 44  1  0
 16 45  1  0
 18 46  1  0
 18 47  1  0
 19 48  1  0
 19 49  1  0
 21 50  1  0
 21 51  1  0
 23 52  1  0
 23 53  1  0
 23 54  1  0
 24 55  1  0
 24 56  1  0
 24 57  1  0
 25 58  1  0
 27 59  1  0
 28 60  1  0
 29 61  1  0
 30 62  1  0
 31 63  1  0
M  END
$$$$
