@<TRIPOS>MOLECULE
*****
 57 61 0 0 0
SMALL
GASTEIGER

@<TRIPOS>ATOM
      1 C          -6.9072   -0.4070   -1.2541 C.3     1  UNL1       -0.0394
      2 C          -5.4489   -0.6509   -1.1385 C.ar    1  UNL1       -0.0454
      3 C          -4.7573   -1.1601   -2.2157 C.ar    1  UNL1       -0.0577
      4 C          -3.3869   -1.3802   -2.0784 C.ar    1  UNL1       -0.0472
      5 C          -2.7162   -1.0992   -0.8920 C.ar    1  UNL1        0.0642
      6 C          -1.2888   -1.3266   -0.7257 C.2     1  UNL1        0.2491
      7 O          -0.9186   -2.4484   -0.3128 O.2     1  UNL1       -0.2699
      8 N          -0.3035   -0.3480   -1.0059 N.am    1  UNL1       -0.2897
      9 C          -0.6621    0.9715   -1.4852 C.3     1  UNL1        0.0388
     10 C           0.3873    1.5876   -2.3809 C.3     1  UNL1        0.0635
     11 O           1.6861    1.3440   -1.9591 O.3     1  UNL1       -0.3764
     12 C           1.8595   -0.0513   -1.9751 C.3     1  UNL1        0.0666
     13 C           1.1020   -0.6360   -0.8200 C.3     1  UNL1        0.0537
     14 C           1.5985   -0.1058    0.5123 C.3     1  UNL1       -0.0041
     15 C           3.0434   -0.4052    0.6998 C.ar    1  UNL1       -0.0097
     16 C           4.0116    0.5641    0.5492 C.ar    1  UNL1       -0.0450
     17 C           5.3497    0.3173    0.7143 C.ar    1  UNL1        0.0229
     18 C           6.3370    1.3759    0.5432 C.ar    1  UNL1        0.2018
     19 N           7.2920    1.3936   -0.4025 N.ar    1  UNL1       -0.1942
     20 C           7.9931    2.5233   -0.2309 C.ar    1  UNL1        0.2147
     21 O           7.5076    3.1947    0.7775 O.2     1  UNL1       -0.3411
     22 N           6.5147    2.5066    1.2416 N.ar    1  UNL1       -0.0564
     23 C           5.7216   -0.9807    1.0496 C.ar    1  UNL1       -0.0482
     24 C           4.7566   -1.9509    1.2006 C.ar    1  UNL1       -0.0255
     25 C           3.4159   -1.7084    1.0362 C.ar    1  UNL1        0.1267
     26 F           2.4826   -2.6871    1.1917 F       1  UNL1       -0.2052
     27 C          -3.4263   -0.5920    0.1687 C.ar    1  UNL1        0.1013
     28 N          -2.7743   -0.2848    1.4095 N.ar    1  UNL1       -0.1493
     29 N          -2.2983    0.9115    1.6931 N.ar    1  UNL1       -0.1556
     30 C          -1.7498    0.8939    2.9113 C.ar    1  UNL1        0.0697
     31 C          -1.9072   -0.3881    3.3835 C.ar    1  UNL1        0.0697
     32 N          -2.5413   -1.0700    2.4238 N.ar    1  UNL1       -0.1556
     33 C          -4.7805   -0.3676    0.0529 C.ar    1  UNL1       -0.0197
     34 C          -5.5478    0.1781    1.1928 C.3     1  UNL1       -0.0374
     35 H          -7.3862   -0.7538   -0.3151 H       1  UNL1        0.0278
     36 H          -7.3468   -0.8530   -2.1441 H       1  UNL1        0.0278
     37 H          -7.0313    0.7095   -1.3223 H       1  UNL1        0.0278
     38 H          -5.2644   -1.3905   -3.1640 H       1  UNL1        0.0620
     39 H          -2.8384   -1.7813   -2.9253 H       1  UNL1        0.0626
     40 H          -0.8101    1.6211   -0.5833 H       1  UNL1        0.0487
     41 H          -1.5953    0.8953   -2.0805 H       1  UNL1        0.0487
     42 H           0.2240    1.2318   -3.4281 H       1  UNL1        0.0575
     43 H           0.2392    2.6905   -2.3193 H       1  UNL1        0.0575
     44 H           2.9240   -0.3424   -2.0003 H       1  UNL1        0.0578
     45 H           1.3316   -0.3927   -2.9050 H       1  UNL1        0.0578
     46 H           1.2510   -1.7432   -0.7962 H       1  UNL1        0.0526
     47 H           1.4339    0.9916    0.5987 H       1  UNL1        0.0333
     48 H           1.0613   -0.5788    1.3532 H       1  UNL1        0.0333
     49 H           3.7116    1.5802    0.2860 H       1  UNL1        0.0628
     50 H           8.8344    2.7939   -0.8664 H       1  UNL1        0.1283
     51 H           6.7555   -1.2187    1.1882 H       1  UNL1        0.0625
     52 H           5.0304   -2.9775    1.4641 H       1  UNL1        0.0646
     53 H          -1.2656    1.6923    3.4665 H       1  UNL1        0.0864
     54 H          -1.5615   -0.7237    4.3585 H       1  UNL1        0.0864
     55 H          -6.0467    1.1364    0.9523 H       1  UNL1        0.0278
     56 H          -6.3666   -0.5407    1.4362 H       1  UNL1        0.0278
     57 H          -4.9279    0.2400    2.1078 H       1  UNL1        0.0278
@<TRIPOS>BOND
     1     1     2    1
     2     2     3   ar
     3     3     4   ar
     4     4     5   ar
     5     5     6    1
     6     6     7    2
     7     6     8   am
     8     8     9    1
     9     9    10    1
    10    10    11    1
    11    11    12    1
    12    12    13    1
    13    13    14    1
    14    14    15    1
    15    15    16   ar
    16    16    17   ar
    17    17    18    1
    18    18    19   ar
    19    19    20   ar
    20    20    21   ar
    21    21    22   ar
    22    17    23   ar
    23    23    24   ar
    24    24    25   ar
    25    25    26    1
    26     5    27   ar
    27    27    28    1
    28    28    29   ar
    29    29    30   ar
    30    30    31   ar
    31    31    32   ar
    32    27    33   ar
    33    33    34    1
    34    33     2   ar
    35    13     8    1
    36    25    15   ar
    37    32    28   ar
    38    22    18   ar
    39     1    35    1
    40     1    36    1
    41     1    37    1
    42     3    38    1
    43     4    39    1
    44     9    40    1
    45     9    41    1
    46    10    42    1
    47    10    43    1
    48    12    44    1
    49    12    45    1
    50    13    46    1
    51    14    47    1
    52    14    48    1
    53    16    49    1
    54    20    50    1
    55    23    51    1
    56    24    52    1
    57    30    53    1
    58    31    54    1
    59    34    55    1
    60    34    56    1
    61    34    57    1
