
     RDKit          3D

 76 80  0  0  0  0  0  0  0  0999 V2000
   -9.4666    1.9104   -2.7603 C   0  0  0  0  0  0  0  0  0  0  0  0
   -8.6502    0.9223   -3.5816 C   0  0  0  0  0  0  0  0  0  0  0  0
   -7.5131    0.5545   -2.7978 O   0  0  0  0  0  0  0  0  0  0  0  0
   -7.6194   -0.0465   -1.5657 C   0  0  0  0  0  0  0  0  0  0  0  0
   -8.7300   -0.3858   -0.9104 N   0  0  0  0  0  0  0  0  0  0  0  0
   -8.4233   -0.9495    0.2578 N   0  0  0  0  0  0  0  0  0  0  0  0
   -9.3354   -1.4716    1.2679 C   0  0  0  0  0  0  0  0  0  0  0  0
   -9.7436   -0.4057    2.2496 C   0  0  0  0  0  0  0  0  0  0  0  0
   -7.0658   -0.9613    0.3332 C   0  0  0  0  0  0  0  0  0  0  0  0
   -6.5217   -0.4051   -0.7888 C   0  0  0  0  0  0  0  0  0  0  0  0
   -5.1550   -0.2254   -1.0828 N   0  0  0  0  0  0  0  0  0  0  0  0
   -4.0729   -0.6917   -0.2983 C   0  0  0  0  0  0  0  0  0  0  0  0
   -4.2407   -1.4079    0.8278 N   0  0  0  0  0  0  0  0  0  0  0  0
   -3.2233   -1.8784    1.5714 C   0  0  0  0  0  0  0  0  0  0  0  0
   -1.9228   -1.6421    1.2035 C   0  0  0  0  0  0  0  0  0  0  0  0
   -0.7417   -2.1232    1.9638 C   0  0  0  0  0  0  0  0  0  0  0  0
   -1.7450   -0.8975    0.0344 C   0  0  0  0  0  0  0  0  0  0  0  0
   -0.3658   -0.6402   -0.3431 C   0  0  0  0  0  0  0  0  0  0  0  0
    0.5895   -1.5882   -0.6436 C   0  0  0  0  0  0  0  0  0  0  0  0
    1.7546   -0.9536   -0.9729 N   0  0  0  0  0  0  0  0  0  0  0  0
    1.5789    0.3579   -0.8930 C   0  0  0  0  0  0  0  0  0  0  0  0
    2.4682    1.4095   -1.1158 C   0  0  0  0  0  0  0  0  0  0  0  0
    3.7949    1.1036   -1.5151 N   0  0  0  0  0  0  0  0  0  0  0  0
    4.8521    0.8828   -0.6006 C   0  0  0  0  0  0  0  0  0  0  0  0
    4.5898    0.9674    0.6260 O   0  0  0  0  0  0  0  0  0  0  0  0
    6.1902    0.5663   -1.1410 C   0  0  1  0  0  0  0  0  0  0  0  0
    6.6892    1.7647   -1.9272 C   0  0  0  0  0  0  0  0  0  0  0  0
    7.1600    0.1472   -0.1950 N   0  0  0  0  0  0  0  0  0  0  0  0
    6.8354   -1.0686    0.5102 C   0  0  0  0  0  0  0  0  0  0  0  0
    7.6679   -1.2418    1.7590 C   0  0  0  0  0  0  0  0  0  0  0  0
    8.9740   -0.6789    1.6552 N   0  0  0  0  0  0  0  0  0  0  0  0
    9.6071   -0.7272    2.9691 C   0  0  0  0  0  0  0  0  0  0  0  0
    9.0679    0.6410    1.1393 C   0  0  0  0  0  0  0  0  0  0  0  0
    7.7296    1.1528    0.6430 C   0  0  0  0  0  0  0  0  0  0  0  0
    1.9742    2.6804   -0.9274 C   0  0  0  0  0  0  0  0  0  0  0  0
    0.6643    2.9154   -0.5376 C   0  0  0  0  0  0  0  0  0  0  0  0
   -0.2059    1.8699   -0.3206 C   0  0  0  0  0  0  0  0  0  0  0  0
    0.2606    0.5869   -0.5009 C   0  0  0  0  0  0  0  0  0  0  0  0
   -2.7945   -0.4488   -0.6736 N   0  0  0  0  0  0  0  0  0  0  0  0
   -9.6896    2.8250   -3.3075 H   0  0  0  0  0  0  0  0  0  0  0  0
   -8.9261    2.2017   -1.8335 H   0  0  0  0  0  0  0  0  0  0  0  0
  -10.4202    1.4153   -2.4851 H   0  0  0  0  0  0  0  0  0  0  0  0
   -8.2495    1.3919   -4.5040 H   0  0  0  0  0  0  0  0  0  0  0  0
   -9.2451    0.0324   -3.8672 H   0  0  0  0  0  0  0  0  0  0  0  0
  -10.1954   -1.9051    0.7398 H   0  0  0  0  0  0  0  0  0  0  0  0
   -8.8109   -2.2999    1.8025 H   0  0  0  0  0  0  0  0  0  0  0  0
  -10.8635   -0.2972    2.2108 H   0  0  0  0  0  0  0  0  0  0  0  0
   -9.4685   -0.7426    3.2906 H   0  0  0  0  0  0  0  0  0  0  0  0
   -9.2817    0.5832    2.0484 H   0  0  0  0  0  0  0  0  0  0  0  0
   -6.5436   -1.3716    1.1958 H   0  0  0  0  0  0  0  0  0  0  0  0
   -4.9117    0.2976   -1.9615 H   0  0  0  0  0  0  0  0  0  0  0  0
   -3.3848   -2.4574    2.4815 H   0  0  0  0  0  0  0  0  0  0  0  0
    0.1080   -1.3809    1.8756 H   0  0  0  0  0  0  0  0  0  0  0  0
   -0.9383   -2.2027    3.0560 H   0  0  0  0  0  0  0  0  0  0  0  0
   -0.4339   -3.1342    1.6258 H   0  0  0  0  0  0  0  0  0  0  0  0
    0.4529   -2.6451   -0.6251 H   0  0  0  0  0  0  0  0  0  0  0  0
    2.6404   -1.4325   -1.2452 H   0  0  0  0  0  0  0  0  0  0  0  0
    3.9888    1.0388   -2.5366 H   0  0  0  0  0  0  0  0  0  0  0  0
    6.0639   -0.2574   -1.8997 H   0  0  0  0  0  0  0  0  0  0  0  0
    7.7773    1.6967   -2.1328 H   0  0  0  0  0  0  0  0  0  0  0  0
    6.1632    1.7610   -2.9026 H   0  0  0  0  0  0  0  0  0  0  0  0
    6.4830    2.7257   -1.4383 H   0  0  0  0  0  0  0  0  0  0  0  0
    6.9134   -1.9433   -0.1366 H   0  0  0  0  0  0  0  0  0  0  0  0
    5.7812   -0.9998    0.8404 H   0  0  0  0  0  0  0  0  0  0  0  0
    7.7905   -2.3475    1.9004 H   0  0  0  0  0  0  0  0  0  0  0  0
    7.1399   -0.8806    2.6856 H   0  0  0  0  0  0  0  0  0  0  0  0
    8.9658   -0.1655    3.6671 H   0  0  0  0  0  0  0  0  0  0  0  0
    9.6279   -1.7850    3.3105 H   0  0  0  0  0  0  0  0  0  0  0  0
   10.6190   -0.2708    2.9663 H   0  0  0  0  0  0  0  0  0  0  0  0
    9.7922    0.7316    0.3022 H   0  0  0  0  0  0  0  0  0  0  0  0
    9.3863    1.3367    1.9605 H   0  0  0  0  0  0  0  0  0  0  0  0
    7.0352    1.3726    1.4805 H   0  0  0  0  0  0  0  0  0  0  0  0
    7.9523    2.0638    0.0352 H   0  0  0  0  0  0  0  0  0  0  0  0
    2.6963    3.4855   -1.1064 H   0  0  0  0  0  0  0  0  0  0  0  0
    0.3138    3.9248   -0.3995 H   0  0  0  0  0  0  0  0  0  0  0  0
   -1.2407    2.0294   -0.0118 H   0  0  0  0  0  0  0  0  0  0  0  0
  1  2  1  0
  2  3  1  0
  3  4  1  0
  4  5  2  0
  5  6  1  0
  6  7  1  0
  7  8  1  0
  6  9  1  0
  9 10  2  0
 10 11  1  0
 11 12  1  0
 12 13  2  0
 13 14  1  0
 14 15  2  0
 15 16  1  0
 15 17  1  0
 17 18  1  0
 18 19  2  0
 19 20  1  0
 20 21  1  0
 21 22  2  0
 22 23  1  0
 23 24  1  0
 24 25  2  0
 24 26  1  0
 26 27  1  0
 26 28  1  0
 28 29  1  0
 29 30  1  0
 30 31  1  0
 31 32  1  0
 31 33  1  0
 33 34  1  0
 22 35  1  0
 35 36  2  0
 36 37  1  0
 37 38  2  0
 17 39  2  0
 10  4  1  0
 39 12  1  0
 38 18  1  0
 38 21  1  0
 34 28  1  0
  1 40  1  0
  1 41  1  0
  1 42  1  0
  2 43  1  0
  2 44  1  0
  7 45  1  0
  7 46  1  0
  8 47  1  0
  8 48  1  0
  8 49  1  0
  9 50  1  0
 11 51  1  0
 14 52  1  0
 16 53  1  0
 16 54  1  0
 16 55  1  0
 19 56  1  0
 20 57  1  0
 23 58  1  0
 26 59  1  6
 27 60  1  0
 27 61  1  0
 27 62  1  0
 29 63  1  0
 29 64  1  0
 30 65  1  0
 30 66  1  0
 32 67  1  0
 32 68  1  0
 32 69  1  0
 33 70  1  0
 33 71  1  0
 34 72  1  0
 34 73  1  0
 35 74  1  0
 36 75  1  0
 37 76  1  0
M  END
$$$$
