@<TRIPOS>MOLECULE
*****
 76 80 0 0 0
SMALL
GASTEIGER

@<TRIPOS>ATOM
      1 C          -9.4666    1.9104   -2.7603 C.3     1  UNL1       -0.0306
      2 C          -8.6502    0.9223   -3.5816 C.3     1  UNL1        0.0885
      3 O          -7.5131    0.5545   -2.7978 O.3     1  UNL1       -0.4744
      4 C          -7.6194   -0.0465   -1.5657 C.ar    1  UNL1        0.2555
      5 N          -8.7300   -0.3858   -0.9104 N.ar    1  UNL1       -0.1315
      6 N          -8.4233   -0.9495    0.2578 N.ar    1  UNL1       -0.2664
      7 C          -9.3354   -1.4716    1.2679 C.3     1  UNL1        0.0389
      8 C          -9.7436   -0.4057    2.2496 C.3     1  UNL1       -0.0455
      9 C          -7.0658   -0.9613    0.3332 C.ar    1  UNL1        0.0506
     10 C          -6.5217   -0.4051   -0.7888 C.ar    1  UNL1        0.1152
     11 N          -5.1550   -0.2254   -1.0828 N.pl3   1  UNL1       -0.2782
     12 C          -4.0729   -0.6917   -0.2983 C.ar    1  UNL1        0.2202
     13 N          -4.2407   -1.4079    0.8278 N.ar    1  UNL1       -0.2224
     14 C          -3.2233   -1.8784    1.5714 C.ar    1  UNL1        0.0361
     15 C          -1.9228   -1.6421    1.2035 C.ar    1  UNL1       -0.0062
     16 C          -0.7417   -2.1232    1.9638 C.3     1  UNL1       -0.0362
     17 C          -1.7450   -0.8975    0.0344 C.ar    1  UNL1        0.0809
     18 C          -0.3658   -0.6402   -0.3431 C.ar    1  UNL1        0.0258
     19 C           0.5895   -1.5882   -0.6436 C.ar    1  UNL1        0.0120
     20 N           1.7546   -0.9536   -0.9729 N.ar    1  UNL1       -0.3586
     21 C           1.5789    0.3579   -0.8930 C.ar    1  UNL1        0.0686
     22 C           2.4682    1.4095   -1.1158 C.ar    1  UNL1        0.0576
     23 N           3.7949    1.1036   -1.5151 N.am    1  UNL1       -0.2825
     24 C           4.8521    0.8828   -0.6006 C.2     1  UNL1        0.2342
     25 O           4.5898    0.9674    0.6260 O.2     1  UNL1       -0.2738
     26 C           6.1902    0.5663   -1.1410 C.3     1  UNL1        0.0848
     27 C           6.6892    1.7647   -1.9272 C.3     1  UNL1       -0.0409
     28 N           7.1600    0.1472   -0.1950 N.3     1  UNL1       -0.2893
     29 C           6.8354   -1.0686    0.5102 C.3     1  UNL1        0.0124
     30 C           7.6679   -1.2418    1.7590 C.3     1  UNL1        0.0114
     31 N           8.9740   -0.6789    1.6552 N.3     1  UNL1       -0.3029
     32 C           9.6071   -0.7272    2.9691 C.3     1  UNL1       -0.0127
     33 C           9.0679    0.6410    1.1393 C.3     1  UNL1        0.0114
     34 C           7.7296    1.1528    0.6430 C.3     1  UNL1        0.0124
     35 C           1.9742    2.6804   -0.9274 C.ar    1  UNL1       -0.0384
     36 C           0.6643    2.9154   -0.5376 C.ar    1  UNL1       -0.0593
     37 C          -0.2059    1.8699   -0.3206 C.ar    1  UNL1       -0.0518
     38 C           0.2606    0.5869   -0.5009 C.ar    1  UNL1        0.0107
     39 N          -2.7945   -0.4488   -0.6736 N.ar    1  UNL1       -0.2139
     40 H          -9.6896    2.8250   -3.3075 H       1  UNL1        0.0262
     41 H          -8.9261    2.2017   -1.8335 H       1  UNL1        0.0262
     42 H         -10.4202    1.4153   -2.4851 H       1  UNL1        0.0262
     43 H          -8.2495    1.3919   -4.5040 H       1  UNL1        0.0694
     44 H          -9.2451    0.0324   -3.8672 H       1  UNL1        0.0694
     45 H         -10.1954   -1.9051    0.7398 H       1  UNL1        0.0506
     46 H          -8.8109   -2.2999    1.8025 H       1  UNL1        0.0506
     47 H         -10.8635   -0.2972    2.2108 H       1  UNL1        0.0247
     48 H          -9.4685   -0.7426    3.2906 H       1  UNL1        0.0247
     49 H          -9.2817    0.5832    2.0484 H       1  UNL1        0.0247
     50 H          -6.5436   -1.3716    1.1958 H       1  UNL1        0.0846
     51 H          -4.9117    0.2976   -1.9615 H       1  UNL1        0.1552
     52 H          -3.3848   -2.4574    2.4815 H       1  UNL1        0.0834
     53 H           0.1080   -1.3809    1.8756 H       1  UNL1        0.0279
     54 H          -0.9383   -2.2027    3.0560 H       1  UNL1        0.0279
     55 H          -0.4339   -3.1342    1.6258 H       1  UNL1        0.0279
     56 H           0.4529   -2.6451   -0.6251 H       1  UNL1        0.0814
     57 H           2.6404   -1.4325   -1.2452 H       1  UNL1        0.1654
     58 H           3.9888    1.0388   -2.5366 H       1  UNL1        0.1549
     59 H           6.0639   -0.2574   -1.8997 H       1  UNL1        0.0556
     60 H           7.7773    1.6967   -2.1328 H       1  UNL1        0.0249
     61 H           6.1632    1.7610   -2.9026 H       1  UNL1        0.0249
     62 H           6.4830    2.7257   -1.4383 H       1  UNL1        0.0249
     63 H           6.9134   -1.9433   -0.1366 H       1  UNL1        0.0439
     64 H           5.7812   -0.9998    0.8404 H       1  UNL1        0.0439
     65 H           7.7905   -2.3475    1.9004 H       1  UNL1        0.0439
     66 H           7.1399   -0.8806    2.6856 H       1  UNL1        0.0439
     67 H           8.9658   -0.1655    3.6671 H       1  UNL1        0.0391
     68 H           9.6279   -1.7850    3.3105 H       1  UNL1        0.0391
     69 H          10.6190   -0.2708    2.9663 H       1  UNL1        0.0391
     70 H           9.7922    0.7316    0.3022 H       1  UNL1        0.0439
     71 H           9.3863    1.3367    1.9605 H       1  UNL1        0.0439
     72 H           7.0352    1.3726    1.4805 H       1  UNL1        0.0439
     73 H           7.9523    2.0638    0.0352 H       1  UNL1        0.0439
     74 H           2.6963    3.4855   -1.1064 H       1  UNL1        0.0637
     75 H           0.3138    3.9248   -0.3995 H       1  UNL1        0.0618
     76 H          -1.2407    2.0294   -0.0118 H       1  UNL1        0.0624
@<TRIPOS>BOND
     1     1     2    1
     2     2     3    1
     3     3     4    1
     4     4     5   ar
     5     5     6   ar
     6     6     7    1
     7     7     8    1
     8     6     9   ar
     9     9    10   ar
    10    10    11    1
    11    11    12    1
    12    12    13   ar
    13    13    14   ar
    14    14    15   ar
    15    15    16    1
    16    15    17   ar
    17    17    18    1
    18    18    19   ar
    19    19    20   ar
    20    20    21   ar
    21    21    22   ar
    22    22    23    1
    23    23    24   am
    24    24    25    2
    25    24    26    1
    26    26    27    1
    27    26    28    1
    28    28    29    1
    29    29    30    1
    30    30    31    1
    31    31    32    1
    32    31    33    1
    33    33    34    1
    34    22    35   ar
    35    35    36   ar
    36    36    37   ar
    37    37    38   ar
    38    17    39   ar
    39    10     4   ar
    40    39    12   ar
    41    38    18   ar
    42    38    21   ar
    43    34    28    1
    44     1    40    1
    45     1    41    1
    46     1    42    1
    47     2    43    1
    48     2    44    1
    49     7    45    1
    50     7    46    1
    51     8    47    1
    52     8    48    1
    53     8    49    1
    54     9    50    1
    55    11    51    1
    56    14    52    1
    57    16    53    1
    58    16    54    1
    59    16    55    1
    60    19    56    1
    61    20    57    1
    62    23    58    1
    63    26    59    1
    64    27    60    1
    65    27    61    1
    66    27    62    1
    67    29    63    1
    68    29    64    1
    69    30    65    1
    70    30    66    1
    71    32    67    1
    72    32    68    1
    73    32    69    1
    74    33    70    1
    75    33    71    1
    76    34    72    1
    77    34    73    1
    78    35    74    1
    79    36    75    1
    80    37    76    1
