@<TRIPOS>MOLECULE
*****
 61 64 0 0 0
SMALL
GASTEIGER

@<TRIPOS>ATOM
      1 C          -7.7617    1.1386   -1.4358 C.3     1  UNL1       -0.0614
      2 C          -6.6460    0.6485   -0.5274 C.3     1  UNL1       -0.0080
      3 C          -5.3840    1.3411   -0.9096 C.3     1  UNL1        0.1956
      4 O          -4.2695    0.9801   -0.1510 O.3     1  UNL1       -0.4776
      5 C          -3.5709   -0.1960   -0.1942 C.ar    1  UNL1        0.1220
      6 C          -3.8682   -1.2646   -1.0060 C.ar    1  UNL1       -0.0199
      7 C          -3.1041   -2.4185   -0.9848 C.ar    1  UNL1       -0.0580
      8 C          -2.0234   -2.5411   -0.1551 C.ar    1  UNL1       -0.0566
      9 C          -1.6950   -1.4886    0.6741 C.ar    1  UNL1       -0.0243
     10 C          -0.5186   -1.6739    1.5522 C.3     1  UNL1        0.0487
     11 N           0.7198   -1.1941    0.9948 N.ar    1  UNL1       -0.3389
     12 C           1.5743   -1.8809    0.2343 C.ar    1  UNL1        0.0279
     13 C           1.4141   -3.3043   -0.1970 C.3     1  UNL1       -0.0235
     14 C           2.6601   -1.0472   -0.0942 C.ar    1  UNL1        0.0504
     15 C           3.7615   -1.4439   -0.9284 C.2     1  UNL1        0.1954
     16 O           3.5162   -2.4004   -1.7735 O.2     1  UNL1       -0.2866
     17 C           5.1060   -0.9411   -0.9666 C.ar    1  UNL1        0.0224
     18 C           5.7816   -0.9377   -2.1941 C.ar    1  UNL1       -0.0495
     19 C           7.0803   -0.5242   -2.3316 C.ar    1  UNL1       -0.0427
     20 C           7.7746   -0.0869   -1.2260 C.ar    1  UNL1        0.0410
     21 CL          9.4371    0.4459   -1.3930 Cl      1  UNL1       -0.0835
     22 C           7.1114   -0.0887   -0.0124 C.ar    1  UNL1       -0.0427
     23 C           5.8117   -0.5031    0.1225 C.ar    1  UNL1       -0.0495
     24 C           2.3927    0.1570    0.5113 C.ar    1  UNL1        0.0112
     25 C           3.0463    1.3730    0.5619 C.ar    1  UNL1       -0.0484
     26 C           2.5812    2.4821    1.2385 C.ar    1  UNL1       -0.0189
     27 C           1.3697    2.3518    1.9100 C.ar    1  UNL1        0.1320
     28 O           0.9199    3.4679    2.5814 O.3     1  UNL1       -0.4057
     29 C           1.2504    3.7349    3.9349 C.3     1  UNL1        0.5752
     30 F           0.6717    4.9140    4.3627 F       1  UNL1       -0.1328
     31 F           2.6201    3.8486    4.1214 F       1  UNL1       -0.1328
     32 F           0.8345    2.6736    4.7436 F       1  UNL1       -0.1328
     33 C           0.6921    1.1562    1.8785 C.ar    1  UNL1        0.0045
     34 C           1.1788    0.0676    1.1952 C.ar    1  UNL1        0.0537
     35 C          -2.4531   -0.3561    0.6464 C.ar    1  UNL1       -0.0150
     36 C          -5.1084    1.3036   -2.3704 C.2     1  UNL1        0.3459
     37 O          -6.0060    1.5139   -3.2135 O.2     1  UNL1       -0.2468
     38 O          -3.8266    1.0321   -2.8005 O.3     1  UNL1       -0.4781
     39 H          -8.7118    1.0068   -0.8410 H       1  UNL1        0.0231
     40 H          -7.6786    2.1976   -1.6793 H       1  UNL1        0.0231
     41 H          -7.8762    0.4637   -2.3042 H       1  UNL1        0.0231
     42 H          -6.9134    1.0134    0.5077 H       1  UNL1        0.0304
     43 H          -6.6371   -0.4357   -0.5667 H       1  UNL1        0.0304
     44 H          -5.5857    2.4559   -0.6652 H       1  UNL1        0.0851
     45 H          -4.7330   -1.2043   -1.6809 H       1  UNL1        0.0654
     46 H          -3.3791   -3.2487   -1.6521 H       1  UNL1        0.0619
     47 H          -1.4445   -3.4780   -0.1668 H       1  UNL1        0.0621
     48 H          -0.4536   -2.7435    1.8296 H       1  UNL1        0.0541
     49 H          -0.7673   -1.1199    2.5060 H       1  UNL1        0.0541
     50 H           2.4085   -3.8204   -0.2248 H       1  UNL1        0.0292
     51 H           0.8129   -3.8742    0.5452 H       1  UNL1        0.0292
     52 H           0.8868   -3.3767   -1.1615 H       1  UNL1        0.0292
     53 H           5.2170   -1.2901   -3.0744 H       1  UNL1        0.0625
     54 H           7.5574   -0.5430   -3.3138 H       1  UNL1        0.0632
     55 H           7.7030    0.2666    0.8379 H       1  UNL1        0.0632
     56 H           5.3463   -0.4852    1.0823 H       1  UNL1        0.0625
     57 H           3.9776    1.4921    0.0224 H       1  UNL1        0.0625
     58 H           3.1282    3.4207    1.2534 H       1  UNL1        0.0654
     59 H          -0.2359    1.0747    2.4076 H       1  UNL1        0.0675
     60 H          -2.2138    0.4712    1.2850 H       1  UNL1        0.0657
     61 H          -3.4782    1.4179   -3.6912 H       1  UNL1        0.2952
@<TRIPOS>BOND
     1     1     2    1
     2     2     3    1
     3     3     4    1
     4     4     5    1
     5     5     6   ar
     6     6     7   ar
     7     7     8   ar
     8     8     9   ar
     9     9    10    1
    10    10    11    1
    11    11    12   ar
    12    12    13    1
    13    12    14   ar
    14    14    15    1
    15    15    16    2
    16    15    17    1
    17    17    18   ar
    18    18    19   ar
    19    19    20   ar
    20    20    21    1
    21    20    22   ar
    22    22    23   ar
    23    14    24   ar
    24    24    25   ar
    25    25    26   ar
    26    26    27   ar
    27    27    28    1
    28    28    29    1
    29    29    30    1
    30    29    31    1
    31    29    32    1
    32    27    33   ar
    33    33    34   ar
    34     9    35   ar
    35     3    36    1
    36    36    37    2
    37    36    38    1
    38    35     5   ar
    39    34    11   ar
    40    23    17   ar
    41    34    24   ar
    42     1    39    1
    43     1    40    1
    44     1    41    1
    45     2    42    1
    46     2    43    1
    47     3    44    1
    48     6    45    1
    49     7    46    1
    50     8    47    1
    51    10    48    1
    52    10    49    1
    53    13    50    1
    54    13    51    1
    55    13    52    1
    56    18    53    1
    57    19    54    1
    58    22    55    1
    59    23    56    1
    60    25    57    1
    61    26    58    1
    62    33    59    1
    63    35    60    1
    64    38    61    1
