@<TRIPOS>MOLECULE
*****
 39 42 0 0 0
SMALL
GASTEIGER

@<TRIPOS>ATOM
      1 N           7.2150    0.8003    0.9530 N.1     1  UNL1       -0.1909
      2 C           5.9652    1.0626    0.6413 C.1     1  UNL1        0.0992
      3 C           4.6303    1.3580    0.3003 C.ar    1  UNL1        0.0524
      4 C           4.1673    2.5593    0.3381 C.ar    1  UNL1       -0.0443
      5 C           2.8279    2.8933    0.0623 C.ar    1  UNL1       -0.0599
      6 C           1.9317    1.8658   -0.2623 C.ar    1  UNL1       -0.0524
      7 C           2.4848    0.5601   -0.2824 C.ar    1  UNL1        0.0037
      8 C           1.5964   -0.5457   -0.6684 C.ar    1  UNL1        0.0983
      9 N           2.1311   -1.5586   -1.4654 N.ar    1  UNL1       -0.2351
     10 C           1.1747   -2.4874   -1.6425 C.ar    1  UNL1        0.0973
     11 N           0.0793   -2.0295   -0.9376 N.ar    1  UNL1       -0.3229
     12 C          -1.1582   -2.7698   -0.8511 C.3     1  UNL1        0.0852
     13 C          -1.4951   -3.7562    0.1599 C.3     1  UNL1        0.2569
     14 F          -0.6564   -4.7840    0.3690 F       1  UNL1       -0.2073
     15 F          -2.6335   -4.4471   -0.5614 F       1  UNL1       -0.2073
     16 C           0.3402   -0.8133   -0.3410 C.ar    1  UNL1        0.0968
     17 C          -0.7699   -0.0770    0.3145 C.ar    1  UNL1        0.1103
     18 C          -1.3739   -0.6251    1.3911 C.ar    1  UNL1       -0.0290
     19 C          -2.6034   -0.3939    1.8592 C.ar    1  UNL1       -0.0153
     20 C          -3.3499    0.5825    1.1302 C.ar    1  UNL1        0.1555
     21 N          -4.5859    1.0620    1.3005 N.ar    1  UNL1       -0.2333
     22 C          -4.7579    2.0510    0.3499 C.ar    1  UNL1        0.0659
     23 C          -3.6050    2.1637   -0.3881 C.ar    1  UNL1        0.1618
     24 C          -3.0983    3.3193   -1.0959 C.1     1  UNL1        0.1208
     25 N          -2.6510    4.3195   -1.7042 N.1     1  UNL1       -0.1892
     26 N          -2.7564    1.1526    0.1053 N.ar    1  UNL1       -0.2023
     27 N          -1.5011    0.8865   -0.3858 N.ar    1  UNL1       -0.1623
     28 C           3.7679    0.2671   -0.0230 C.ar    1  UNL1       -0.0351
     29 H           4.7664    3.4160    0.6901 H       1  UNL1        0.0630
     30 H           2.4778    3.8888    0.0882 H       1  UNL1        0.0618
     31 H           0.9625    2.0192   -0.4733 H       1  UNL1        0.0624
     32 H           1.1852   -3.3979   -2.2482 H       1  UNL1        0.1029
     33 H          -1.4249   -3.1037   -1.9102 H       1  UNL1        0.0548
     34 H          -1.9667   -1.9133   -0.6610 H       1  UNL1        0.0548
     35 H          -2.0832   -3.3598    0.9953 H       1  UNL1        0.1037
     36 H          -0.7226   -1.3021    1.9914 H       1  UNL1        0.0641
     37 H          -3.1305   -0.7784    2.7181 H       1  UNL1        0.0655
     38 H          -5.6165    2.6561    0.1350 H       1  UNL1        0.0859
     39 H           4.2369   -0.7408    0.0089 H       1  UNL1        0.0637
@<TRIPOS>BOND
     1     1     2    3
     2     2     3    1
     3     3     4   ar
     4     4     5   ar
     5     5     6   ar
     6     6     7   ar
     7     7     8    1
     8     8     9   ar
     9     9    10   ar
    10    10    11   ar
    11    11    12    1
    12    12    13    1
    13    13    14    1
    14    13    15    1
    15    11    16   ar
    16    16    17    1
    17    17    18   ar
    18    18    19   ar
    19    19    20   ar
    20    20    21   ar
    21    21    22   ar
    22    22    23   ar
    23    23    24    1
    24    24    25    3
    25    23    26   ar
    26    26    27   ar
    27     7    28   ar
    28    28     3   ar
    29    16     8   ar
    30    27    17   ar
    31    26    20   ar
    32     4    29    1
    33     5    30    1
    34     6    31    1
    35    10    32    1
    36    12    33    1
    37    12    34    1
    38    13    35    1
    39    18    36    1
    40    19    37    1
    41    22    38    1
    42    28    39    1
