
     RDKit          3D

 39 42  0  0  0  0  0  0  0  0999 V2000
    7.2150    0.8003    0.9530 N   0  0  0  0  0  0  0  0  0  0  0  0
    5.9652    1.0626    0.6413 C   0  0  0  0  0  0  0  0  0  0  0  0
    4.6303    1.3580    0.3003 C   0  0  0  0  0  0  0  0  0  0  0  0
    4.1673    2.5593    0.3381 C   0  0  0  0  0  0  0  0  0  0  0  0
    2.8279    2.8933    0.0623 C   0  0  0  0  0  0  0  0  0  0  0  0
    1.9317    1.8658   -0.2623 C   0  0  0  0  0  0  0  0  0  0  0  0
    2.4848    0.5601   -0.2824 C   0  0  0  0  0  0  0  0  0  0  0  0
    1.5964   -0.5457   -0.6684 C   0  0  0  0  0  0  0  0  0  0  0  0
    2.1311   -1.5586   -1.4654 N   0  0  0  0  0  0  0  0  0  0  0  0
    1.1747   -2.4874   -1.6425 C   0  0  0  0  0  0  0  0  0  0  0  0
    0.0793   -2.0295   -0.9376 N   0  0  0  0  0  0  0  0  0  0  0  0
   -1.1582   -2.7698   -0.8511 C   0  0  0  0  0  0  0  0  0  0  0  0
   -1.4951   -3.7562    0.1599 C   0  0  0  0  0  0  0  0  0  0  0  0
   -0.6564   -4.7840    0.3690 F   0  0  0  0  0  0  0  0  0  0  0  0
   -2.6335   -4.4471   -0.5614 F   0  0  0  0  0  0  0  0  0  0  0  0
    0.3402   -0.8133   -0.3410 C   0  0  0  0  0  0  0  0  0  0  0  0
   -0.7699   -0.0770    0.3145 C   0  0  0  0  0  0  0  0  0  0  0  0
   -1.3739   -0.6251    1.3911 C   0  0  0  0  0  0  0  0  0  0  0  0
   -2.6034   -0.3939    1.8592 C   0  0  0  0  0  0  0  0  0  0  0  0
   -3.3499    0.5825    1.1302 C   0  0  0  0  0  0  0  0  0  0  0  0
   -4.5859    1.0620    1.3005 N   0  0  0  0  0  0  0  0  0  0  0  0
   -4.7579    2.0510    0.3499 C   0  0  0  0  0  0  0  0  0  0  0  0
   -3.6050    2.1637   -0.3881 C   0  0  0  0  0  0  0  0  0  0  0  0
   -3.0983    3.3193   -1.0959 C   0  0  0  0  0  0  0  0  0  0  0  0
   -2.6510    4.3195   -1.7042 N   0  0  0  0  0  0  0  0  0  0  0  0
   -2.7564    1.1526    0.1053 N   0  0  0  0  0  0  0  0  0  0  0  0
   -1.5011    0.8865   -0.3858 N   0  0  0  0  0  0  0  0  0  0  0  0
    3.7679    0.2671   -0.0230 C   0  0  0  0  0  0  0  0  0  0  0  0
    4.7664    3.4160    0.6901 H   0  0  0  0  0  0  0  0  0  0  0  0
    2.4778    3.8888    0.0882 H   0  0  0  0  0  0  0  0  0  0  0  0
    0.9625    2.0192   -0.4733 H   0  0  0  0  0  0  0  0  0  0  0  0
    1.1852   -3.3979   -2.2482 H   0  0  0  0  0  0  0  0  0  0  0  0
   -1.4249   -3.1037   -1.9102 H   0  0  0  0  0  0  0  0  0  0  0  0
   -1.9667   -1.9133   -0.6610 H   0  0  0  0  0  0  0  0  0  0  0  0
   -2.0832   -3.3598    0.9953 H   0  0  0  0  0  0  0  0  0  0  0  0
   -0.7226   -1.3021    1.9914 H   0  0  0  0  0  0  0  0  0  0  0  0
   -3.1305   -0.7784    2.7181 H   0  0  0  0  0  0  0  0  0  0  0  0
   -5.6165    2.6561    0.1350 H   0  0  0  0  0  0  0  0  0  0  0  0
    4.2369   -0.7408    0.0089 H   0  0  0  0  0  0  0  0  0  0  0  0
  1  2  3  0
  2  3  1  0
  3  4  2  0
  4  5  1  0
  5  6  2  0
  6  7  1  0
  7  8  1  0
  8  9  1  0
  9 10  2  0
 10 11  1  0
 11 12  1  0
 12 13  1  0
 13 14  1  0
 13 15  1  0
 11 16  1  0
 16 17  1  0
 17 18  1  0
 18 19  2  0
 19 20  1  0
 20 21  2  0
 21 22  1  0
 22 23  2  0
 23 24  1  0
 24 25  3  0
 23 26  1  0
 26 27  1  0
  7 28  2  0
 28  3  1  0
 16  8  2  0
 27 17  2  0
 26 20  1  0
  4 29  1  0
  5 30  1  0
  6 31  1  0
 10 32  1  0
 12 33  1  0
 12 34  1  0
 13 35  1  0
 18 36  1  0
 19 37  1  0
 22 38  1  0
 28 39  1  0
M  END
$$$$
