@<TRIPOS>MOLECULE
*****
 41 41 0 0 0
SMALL
GASTEIGER

@<TRIPOS>ATOM
      1 C           4.2135   -1.4202   -0.8806 C.3     1  UNL1       -0.0499
      2 C           4.0340    0.0531   -0.8602 C.3     1  UNL1        0.0021
      3 C           5.2721    0.8310   -0.4829 C.3     1  UNL1       -0.0499
      4 N           2.9787    0.4893    0.0328 N.3     1  UNL1       -0.3112
      5 C           3.1448    0.0917    1.3760 C.3     1  UNL1        0.0254
      6 C           2.1094    0.6904    2.2790 C.3     1  UNL1        0.1015
      7 O           2.1085    2.0957    2.2798 O.3     1  UNL1       -0.3872
      8 C           0.7524    0.1503    2.0317 C.3     1  UNL1        0.1166
      9 O           0.2213    0.6104    0.8197 O.3     1  UNL1       -0.4894
     10 C          -1.0200    0.2437    0.3868 C.ar    1  UNL1        0.1206
     11 C          -1.5763    0.6781   -0.8055 C.ar    1  UNL1       -0.0197
     12 C          -2.8300    0.2991   -1.2300 C.ar    1  UNL1       -0.0547
     13 C          -3.5735   -0.5517   -0.4389 C.ar    1  UNL1       -0.0384
     14 C          -4.9060   -0.9063   -0.9765 C.3     1  UNL1        0.0489
     15 C          -5.8622    0.1107   -0.4675 C.2     1  UNL1        0.2148
     16 N          -7.2426    0.0487   -0.8020 N.am    1  UNL1       -0.3291
     17 O          -5.5096    1.0618    0.2710 O.2     1  UNL1       -0.2757
     18 C          -3.0536   -1.0083    0.7603 C.ar    1  UNL1       -0.0547
     19 C          -1.8034   -0.6151    1.1581 C.ar    1  UNL1       -0.0197
     20 H           5.1054   -1.7013   -1.4834 H       1  UNL1        0.0245
     21 H           4.3646   -1.8741    0.1121 H       1  UNL1        0.0245
     22 H           3.3250   -1.8792   -1.3644 H       1  UNL1        0.0245
     23 H           3.6754    0.3621   -1.8872 H       1  UNL1        0.0455
     24 H           5.8262    1.1070   -1.3998 H       1  UNL1        0.0245
     25 H           5.9149    0.2670    0.2231 H       1  UNL1        0.0245
     26 H           5.0185    1.7803    0.0376 H       1  UNL1        0.0245
     27 H           2.0430    0.3765   -0.3983 H       1  UNL1        0.1223
     28 H           4.1476    0.4664    1.7316 H       1  UNL1        0.0450
     29 H           3.2181   -1.0113    1.5247 H       1  UNL1        0.0450
     30 H           2.3736    0.4367    3.3660 H       1  UNL1        0.0640
     31 H           1.4366    2.3884    1.6248 H       1  UNL1        0.2100
     32 H           0.0938    0.4458    2.8840 H       1  UNL1        0.0723
     33 H           0.8052   -0.9753    1.9979 H       1  UNL1        0.0723
     34 H          -0.9180    1.3488   -1.3701 H       1  UNL1        0.0654
     35 H          -3.1696    0.6936   -2.1720 H       1  UNL1        0.0622
     36 H          -5.1527   -1.9195   -0.5591 H       1  UNL1        0.0407
     37 H          -4.8827   -0.9350   -2.0797 H       1  UNL1        0.0407
     38 H          -8.0950   -0.5293   -0.6630 H       1  UNL1        0.1449
     39 H          -7.5532    0.8323   -1.3883 H       1  UNL1        0.1449
     40 H          -3.6674   -1.6718    1.3482 H       1  UNL1        0.0622
     41 H          -1.3668   -0.9608    2.1014 H       1  UNL1        0.0654
@<TRIPOS>BOND
     1     1     2    1
     2     2     3    1
     3     2     4    1
     4     4     5    1
     5     5     6    1
     6     6     7    1
     7     6     8    1
     8     8     9    1
     9     9    10    1
    10    10    11   ar
    11    11    12   ar
    12    12    13   ar
    13    13    14    1
    14    14    15    1
    15    15    16   am
    16    15    17    2
    17    13    18   ar
    18    18    19   ar
    19    19    10   ar
    20     1    20    1
    21     1    21    1
    22     1    22    1
    23     2    23    1
    24     3    24    1
    25     3    25    1
    26     3    26    1
    27     4    27    1
    28     5    28    1
    29     5    29    1
    30     6    30    1
    31     7    31    1
    32     8    32    1
    33     8    33    1
    34    11    34    1
    35    12    35    1
    36    14    36    1
    37    14    37    1
    38    16    38    1
    39    16    39    1
    40    18    40    1
    41    19    41    1
