
     RDKit          3D

 53 56  0  0  0  0  0  0  0  0999 V2000
   -1.2368    0.2313    0.8987 C   0  0  2  0  0  0  0  0  0  0  0  0
   -2.3071   -0.5165    1.5833 C   0  0  0  0  0  0  0  0  0  0  0  0
   -3.4016    0.5516    1.5493 C   0  0  0  0  0  0  0  0  0  0  0  0
   -3.2607    1.0621    0.1126 C   0  0  2  0  0  0  0  0  0  0  0  0
   -4.3924    0.4783   -0.6508 C   0  0  0  0  0  0  0  0  0  0  0  0
   -4.9146   -0.8571   -0.9385 C   0  0  0  0  0  0  0  0  0  0  0  0
   -5.1514    1.2746   -1.2322 O   0  0  0  0  0  0  0  0  0  0  0  0
   -1.9320    0.6779   -0.3966 C   0  0  2  0  0  0  0  0  0  0  0  0
   -1.8965   -0.3948   -1.4427 C   0  0  0  0  0  0  0  0  0  0  0  0
   -1.0803    1.8517   -0.8406 C   0  0  0  0  0  0  0  0  0  0  0  0
    0.3460    1.4745   -1.0236 C   0  0  0  0  0  0  0  0  0  0  0  0
    0.9330    0.6888    0.1143 C   0  0  1  0  0  0  0  0  0  0  0  0
   -0.0033   -0.4594    0.5007 C   0  0  1  0  0  0  0  0  0  0  0  0
    0.6324   -1.3063    1.5695 C   0  0  0  0  0  0  0  0  0  0  0  0
    1.7676   -2.0342    0.8392 C   0  0  0  0  0  0  0  0  0  0  0  0
    2.7345   -1.0001    0.4361 C   0  0  0  0  0  0  0  0  0  0  0  0
    4.0107   -1.2929    0.6265 C   0  0  0  0  0  0  0  0  0  0  0  0
    5.0539   -0.3172    0.2526 C   0  0  0  0  0  0  0  0  0  0  0  0
    6.1902   -0.6853   -0.0700 O   0  0  0  0  0  0  0  0  0  0  0  0
    4.6797    1.1081    0.2818 C   0  0  0  0  0  0  0  0  0  0  0  0
    3.2269    1.3658    0.3899 C   0  0  0  0  0  0  0  0  0  0  0  0
    2.3261    0.2742   -0.1394 C   0  0  2  0  0  0  0  0  0  0  0  0
    2.5818    0.2284   -1.6486 C   0  0  0  0  0  0  0  0  0  0  0  0
   -1.0204    1.1603    1.4621 H   0  0  0  0  0  0  0  0  0  0  0  0
   -2.0223   -0.6212    2.6612 H   0  0  0  0  0  0  0  0  0  0  0  0
   -2.6021   -1.4584    1.1288 H   0  0  0  0  0  0  0  0  0  0  0  0
   -4.3920    0.1651    1.7842 H   0  0  0  0  0  0  0  0  0  0  0  0
   -3.0437    1.3604    2.2190 H   0  0  0  0  0  0  0  0  0  0  0  0
   -3.3688    2.1818    0.1436 H   0  0  0  0  0  0  0  0  0  0  0  0
   -5.9826   -0.9494   -0.6089 H   0  0  0  0  0  0  0  0  0  0  0  0
   -4.3068   -1.7031   -0.5340 H   0  0  0  0  0  0  0  0  0  0  0  0
   -4.9514   -1.0184   -2.0337 H   0  0  0  0  0  0  0  0  0  0  0  0
   -2.0022   -1.4248   -1.0533 H   0  0  0  0  0  0  0  0  0  0  0  0
   -2.7162   -0.2339   -2.1714 H   0  0  0  0  0  0  0  0  0  0  0  0
   -0.9630   -0.3176   -2.0635 H   0  0  0  0  0  0  0  0  0  0  0  0
   -1.4679    2.1962   -1.8187 H   0  0  0  0  0  0  0  0  0  0  0  0
   -1.1649    2.6489   -0.0768 H   0  0  0  0  0  0  0  0  0  0  0  0
    0.5477    1.0492   -2.0275 H   0  0  0  0  0  0  0  0  0  0  0  0
    0.9169    2.4506   -1.0284 H   0  0  0  0  0  0  0  0  0  0  0  0
    0.8852    1.3903    0.9997 H   0  0  0  0  0  0  0  0  0  0  0  0
   -0.0991   -1.1055   -0.3924 H   0  0  0  0  0  0  0  0  0  0  0  0
   -0.1222   -2.0913    1.8409 H   0  0  0  0  0  0  0  0  0  0  0  0
    0.9691   -0.7666    2.4549 H   0  0  0  0  0  0  0  0  0  0  0  0
    1.2849   -2.4341   -0.0885 H   0  0  0  0  0  0  0  0  0  0  0  0
    2.1778   -2.8194    1.4714 H   0  0  0  0  0  0  0  0  0  0  0  0
    4.3190   -2.2539    1.0605 H   0  0  0  0  0  0  0  0  0  0  0  0
    5.0950    1.6198   -0.5987 H   0  0  0  0  0  0  0  0  0  0  0  0
    5.2008    1.5445    1.1818 H   0  0  0  0  0  0  0  0  0  0  0  0
    2.9439    1.4757    1.4769 H   0  0  0  0  0  0  0  0  0  0  0  0
    2.9111    2.3186   -0.0826 H   0  0  0  0  0  0  0  0  0  0  0  0
    3.6091   -0.1757   -1.8581 H   0  0  0  0  0  0  0  0  0  0  0  0
    1.8790   -0.4958   -2.1130 H   0  0  0  0  0  0  0  0  0  0  0  0
    2.5801    1.2294   -2.1071 H   0  0  0  0  0  0  0  0  0  0  0  0
  1  2  1  0
  2  3  1  0
  3  4  1  0
  4  5  1  0
  5  6  1  0
  5  7  2  0
  4  8  1  0
  8  9  1  6
  8 10  1  0
 10 11  1  0
 11 12  1  0
 12 13  1  0
 13 14  1  0
 14 15  1  0
 15 16  1  0
 16 17  2  0
 17 18  1  0
 18 19  2  0
 18 20  1  0
 20 21  1  0
 21 22  1  0
 22 23  1  6
  8  1  1  0
 22 12  1  0
 13  1  1  0
 22 16  1  0
  1 24  1  1
  2 25  1  0
  2 26  1  0
  3 27  1  0
  3 28  1  0
  4 29  1  1
  6 30  1  0
  6 31  1  0
  6 32  1  0
  9 33  1  0
  9 34  1  0
  9 35  1  0
 10 36  1  0
 10 37  1  0
 11 38  1  0
 11 39  1  0
 12 40  1  1
 13 41  1  6
 14 42  1  0
 14 43  1  0
 15 44  1  0
 15 45  1  0
 17 46  1  0
 20 47  1  0
 20 48  1  0
 21 49  1  0
 21 50  1  0
 23 51  1  0
 23 52  1  0
 23 53  1  0
M  END
$$$$
