
     RDKit          3D

 42 45  0  0  0  0  0  0  0  0999 V2000
   -5.8245   -1.3727    0.6921 N   0  0  0  0  0  0  0  0  0  0  0  0
   -4.7790   -0.4537    0.3877 C   0  0  0  0  0  0  0  0  0  0  0  0
   -3.7222   -0.8330   -0.2279 N   0  0  0  0  0  0  0  0  0  0  0  0
   -2.6511    0.0929   -0.5455 C   0  0  1  0  0  0  0  0  0  0  0  0
   -1.4340   -0.6928   -0.8638 C   0  0  0  0  0  0  0  0  0  0  0  0
   -0.2133   -0.5458   -0.2250 C   0  0  0  0  0  0  0  0  0  0  0  0
    0.9109   -1.2848   -0.5898 C   0  0  0  0  0  0  0  0  0  0  0  0
    2.1102   -1.0559    0.1307 N   0  0  0  0  0  0  0  0  0  0  0  0
    3.0716   -0.0842   -0.2505 C   0  0  0  0  0  0  0  0  0  0  0  0
    2.8249    0.5895   -1.2754 O   0  0  0  0  0  0  0  0  0  0  0  0
    4.3020    0.1414    0.4998 C   0  0  0  0  0  0  0  0  0  0  0  0
    4.6103   -0.5489    1.5965 N   0  0  0  0  0  0  0  0  0  0  0  0
    5.7579   -0.3484    2.3083 C   0  0  0  0  0  0  0  0  0  0  0  0
    6.6503    0.6076    1.8886 C   0  0  0  0  0  0  0  0  0  0  0  0
    8.1280    0.8882    2.7781 Cl  0  0  0  0  0  0  0  0  0  0  0  0
    6.3774    1.3506    0.7574 C   0  0  0  0  0  0  0  0  0  0  0  0
    5.1938    1.1008    0.0756 C   0  0  0  0  0  0  0  0  0  0  0  0
    4.9452    1.8374   -1.0276 F   0  0  0  0  0  0  0  0  0  0  0  0
    0.7806   -2.1865   -1.6246 C   0  0  0  0  0  0  0  0  0  0  0  0
   -0.4047   -2.3687   -2.2881 C   0  0  0  0  0  0  0  0  0  0  0  0
   -1.5195   -1.6137   -1.9011 C   0  0  0  0  0  0  0  0  0  0  0  0
   -2.6440   -1.8679   -2.5861 F   0  0  0  0  0  0  0  0  0  0  0  0
   -3.0183    0.9201   -1.7283 C   0  0  0  0  0  0  0  0  0  0  0  0
   -1.9824    1.8147   -2.0341 F   0  0  0  0  0  0  0  0  0  0  0  0
   -4.2180    1.5835   -1.6332 F   0  0  0  0  0  0  0  0  0  0  0  0
   -2.4087    0.9486    0.6890 C   0  0  1  0  0  0  0  0  0  0  0  0
   -2.7496    2.3768    0.6745 C   0  0  0  0  0  0  0  0  0  0  0  0
   -3.6964    1.4552    1.3192 C   0  0  1  0  0  0  0  0  0  0  0  0
   -4.8300    0.9038    0.7335 O   0  0  0  0  0  0  0  0  0  0  0  0
   -6.6924   -1.4311    0.1203 H   0  0  0  0  0  0  0  0  0  0  0  0
   -5.7113   -1.9979    1.5073 H   0  0  0  0  0  0  0  0  0  0  0  0
   -0.0823    0.1611    0.5793 H   0  0  0  0  0  0  0  0  0  0  0  0
    2.3447   -1.6130    1.0036 H   0  0  0  0  0  0  0  0  0  0  0  0
    5.9771   -0.9269    3.1946 H   0  0  0  0  0  0  0  0  0  0  0  0
    7.0824    2.0946    0.4397 H   0  0  0  0  0  0  0  0  0  0  0  0
    1.6879   -2.7446   -1.8778 H   0  0  0  0  0  0  0  0  0  0  0  0
   -0.4494   -3.0884   -3.0911 H   0  0  0  0  0  0  0  0  0  0  0  0
   -3.0947    0.2747   -2.6184 H   0  0  0  0  0  0  0  0  0  0  0  0
   -1.7417    0.5062    1.4344 H   0  0  0  0  0  0  0  0  0  0  0  0
   -2.9693    2.9286   -0.2572 H   0  0  0  0  0  0  0  0  0  0  0  0
   -2.1477    3.0134    1.3845 H   0  0  0  0  0  0  0  0  0  0  0  0
   -3.7706    1.4691    2.4507 H   0  0  0  0  0  0  0  0  0  0  0  0
  1  2  1  0
  2  3  2  0
  3  4  1  0
  4  5  1  0
  5  6  2  0
  6  7  1  0
  7  8  1  0
  8  9  1  0
  9 10  2  0
  9 11  1  0
 11 12  2  0
 12 13  1  0
 13 14  2  0
 14 15  1  0
 14 16  1  0
 16 17  2  0
 17 18  1  0
  7 19  2  0
 19 20  1  0
 20 21  2  0
 21 22  1  0
  4 23  1  6
 23 24  1  0
 23 25  1  0
  4 26  1  0
 26 27  1  0
 27 28  1  0
 28 29  1  0
 29  2  1  0
 21  5  1  0
 28 26  1  0
 17 11  1  0
  1 30  1  0
  1 31  1  0
  6 32  1  0
  8 33  1  0
 13 34  1  0
 16 35  1  0
 19 36  1  0
 20 37  1  0
 23 38  1  0
 26 39  1  1
 27 40  1  0
 27 41  1  0
 28 42  1  1
M  END
$$$$
