@<TRIPOS>MOLECULE
*****
 42 45 0 0 0
SMALL
GASTEIGER

@<TRIPOS>ATOM
      1 N          -5.8245   -1.3727    0.6921 N.pl3   1  UNL1       -0.3134
      2 C          -4.7790   -0.4537    0.3877 C.2     1  UNL1        0.2764
      3 N          -3.7222   -0.8330   -0.2279 N.2     1  UNL1       -0.2194
      4 C          -2.6511    0.0929   -0.5455 C.3     1  UNL1        0.1603
      5 C          -1.4340   -0.6928   -0.8638 C.ar    1  UNL1        0.0228
      6 C          -0.2133   -0.5458   -0.2250 C.ar    1  UNL1       -0.0321
      7 C           0.9109   -1.2848   -0.5898 C.ar    1  UNL1        0.0342
      8 N           2.1102   -1.0559    0.1307 N.am    1  UNL1       -0.2802
      9 C           3.0716   -0.0842   -0.2505 C.2     1  UNL1        0.2694
     10 O           2.8249    0.5895   -1.2754 O.2     1  UNL1       -0.2681
     11 C           4.3020    0.1414    0.4998 C.ar    1  UNL1        0.1608
     12 N           4.6103   -0.5489    1.5965 N.ar    1  UNL1       -0.2461
     13 C           5.7579   -0.3484    2.3083 C.ar    1  UNL1        0.0469
     14 C           6.6503    0.6076    1.8886 C.ar    1  UNL1        0.0618
     15 CL          8.1280    0.8882    2.7781 Cl      1  UNL1       -0.0819
     16 C           6.3774    1.3506    0.7574 C.ar    1  UNL1       -0.0044
     17 C           5.1938    1.1008    0.0756 C.ar    1  UNL1        0.1551
     18 F           4.9452    1.8374   -1.0276 F       1  UNL1       -0.2030
     19 C           0.7806   -2.1865   -1.6246 C.ar    1  UNL1       -0.0377
     20 C          -0.4047   -2.3687   -2.2881 C.ar    1  UNL1       -0.0243
     21 C          -1.5195   -1.6137   -1.9011 C.ar    1  UNL1        0.1292
     22 F          -2.6440   -1.8679   -2.5861 F       1  UNL1       -0.2051
     23 C          -3.0183    0.9201   -1.7283 C.3     1  UNL1        0.2686
     24 F          -1.9824    1.8147   -2.0341 F       1  UNL1       -0.2062
     25 F          -4.2180    1.5835   -1.6332 F       1  UNL1       -0.2062
     26 C          -2.4087    0.9486    0.6890 C.3     1  UNL1        0.0344
     27 C          -2.7496    2.3768    0.6745 C.3     1  UNL1       -0.0064
     28 C          -3.6964    1.4552    1.3192 C.3     1  UNL1        0.1091
     29 O          -4.8300    0.9038    0.7335 O.2     1  UNL1       -0.4622
     30 H          -6.6924   -1.4311    0.1203 H       1  UNL1        0.1466
     31 H          -5.7113   -1.9979    1.5073 H       1  UNL1        0.1466
     32 H          -0.0823    0.1611    0.5793 H       1  UNL1        0.0640
     33 H           2.3447   -1.6130    1.0036 H       1  UNL1        0.1552
     34 H           5.9771   -0.9269    3.1946 H       1  UNL1        0.0845
     35 H           7.0824    2.0946    0.4397 H       1  UNL1        0.0662
     36 H           1.6879   -2.7446   -1.8778 H       1  UNL1        0.0637
     37 H          -0.4494   -3.0884   -3.0911 H       1  UNL1        0.0647
     38 H          -3.0947    0.2747   -2.6184 H       1  UNL1        0.1047
     39 H          -1.7417    0.5062    1.4344 H       1  UNL1        0.0366
     40 H          -2.9693    2.9286   -0.2572 H       1  UNL1        0.0306
     41 H          -2.1477    3.0134    1.3845 H       1  UNL1        0.0306
     42 H          -3.7706    1.4691    2.4507 H       1  UNL1        0.0737
@<TRIPOS>BOND
     1     1     2    1
     2     2     3    2
     3     3     4    1
     4     4     5    1
     5     5     6   ar
     6     6     7   ar
     7     7     8    1
     8     8     9   am
     9     9    10    2
    10     9    11    1
    11    11    12   ar
    12    12    13   ar
    13    13    14   ar
    14    14    15    1
    15    14    16   ar
    16    16    17   ar
    17    17    18    1
    18     7    19   ar
    19    19    20   ar
    20    20    21   ar
    21    21    22    1
    22     4    23    1
    23    23    24    1
    24    23    25    1
    25     4    26    1
    26    26    27    1
    27    27    28    1
    28    28    29    1
    29    29     2    1
    30    21     5   ar
    31    28    26    1
    32    17    11   ar
    33     1    30    1
    34     1    31    1
    35     6    32    1
    36     8    33    1
    37    13    34    1
    38    16    35    1
    39    19    36    1
    40    20    37    1
    41    23    38    1
    42    26    39    1
    43    27    40    1
    44    27    41    1
    45    28    42    1
