@<TRIPOS>MOLECULE
*****
 32 34 0 0 0
SMALL
GASTEIGER

@<TRIPOS>ATOM
      1 N          -1.0851   -2.6087    3.5911 N.1     1  UNL1       -0.1876
      2 C          -1.0483   -2.0080    2.5947 C.1     1  UNL1        0.1400
      3 C          -0.9974   -1.2443    1.3756 C.ar    1  UNL1        0.2356
      4 N           0.1677   -0.8330    0.8583 N.ar    1  UNL1       -0.2011
      5 C           0.3423   -0.1312   -0.2500 C.ar    1  UNL1        0.1552
      6 N           1.5417    0.3111   -0.8084 N.pl3   1  UNL1       -0.2974
      7 C           2.8352    0.0423   -0.2576 C.ar    1  UNL1        0.0379
      8 C           3.0973   -0.9016    0.6832 C.ar    1  UNL1       -0.0051
      9 C           4.3667   -1.0925    1.1785 C.ar    1  UNL1        0.1279
     10 F           4.6281   -2.0480    2.1309 F       1  UNL1       -0.2053
     11 C           5.4074   -0.3264    0.7285 C.ar    1  UNL1        0.0089
     12 C           5.1549    0.6303   -0.2224 C.ar    1  UNL1        0.1279
     13 F           6.1479    1.4250   -0.7111 F       1  UNL1       -0.2053
     14 C           3.9033    0.8222   -0.7138 C.ar    1  UNL1       -0.0051
     15 C          -0.8318    0.2135   -0.9510 C.ar    1  UNL1        0.1478
     16 N          -1.0711    0.8974   -2.0825 N.ar    1  UNL1       -0.2306
     17 C          -2.4020    0.9089   -2.2666 C.ar    1  UNL1        0.0985
     18 N          -3.0119    0.2502   -1.2814 N.ar    1  UNL1       -0.3094
     19 C          -4.4314    0.0308   -1.1027 C.3     1  UNL1        0.0865
     20 C          -4.9737    1.1919   -0.2852 C.3     1  UNL1        0.2569
     21 F          -4.7686    2.3978   -0.9282 F       1  UNL1       -0.2073
     22 F          -4.2872    1.2275    0.8948 F       1  UNL1       -0.2073
     23 C          -2.0408   -0.1978   -0.4391 C.ar    1  UNL1        0.1668
     24 N          -2.1351   -0.9168    0.7071 N.ar    1  UNL1       -0.1987
     25 H           1.5224    0.8851   -1.7040 H       1  UNL1        0.1536
     26 H           2.2965   -1.5449    1.0674 H       1  UNL1        0.0665
     27 H           6.4155   -0.4379    1.0850 H       1  UNL1        0.0675
     28 H           3.7168    1.5770   -1.4600 H       1  UNL1        0.0665
     29 H          -2.9220    1.3915   -3.1089 H       1  UNL1        0.1029
     30 H          -4.8802   -0.0244   -2.1101 H       1  UNL1        0.0549
     31 H          -4.5985   -0.8942   -0.5387 H       1  UNL1        0.0549
     32 H          -6.0586    1.0071   -0.1627 H       1  UNL1        0.1037
@<TRIPOS>BOND
     1     1     2    3
     2     2     3    1
     3     3     4   ar
     4     4     5   ar
     5     5     6    1
     6     6     7    1
     7     7     8   ar
     8     8     9   ar
     9     9    10    1
    10     9    11   ar
    11    11    12   ar
    12    12    13    1
    13    12    14   ar
    14     5    15   ar
    15    15    16   ar
    16    16    17   ar
    17    17    18   ar
    18    18    19    1
    19    19    20    1
    20    20    21    1
    21    20    22    1
    22    18    23   ar
    23    23    24   ar
    24    24     3   ar
    25    14     7   ar
    26    23    15   ar
    27     6    25    1
    28     8    26    1
    29    11    27    1
    30    14    28    1
    31    17    29    1
    32    19    30    1
    33    19    31    1
    34    20    32    1
