@<TRIPOS>MOLECULE
*****
 46 49 0 0 0
SMALL
GASTEIGER

@<TRIPOS>ATOM
      1 C          -2.3921    1.4325   -3.0215 C.3     1  UNL1       -0.0369
      2 C          -1.6310    0.8917   -1.8289 C.ar    1  UNL1       -0.0132
      3 C          -0.2724    1.1582   -1.7586 C.ar    1  UNL1       -0.0348
      4 C           0.4305    0.6670   -0.6592 C.ar    1  UNL1        0.0345
      5 N           1.8408    0.8807   -0.5390 N.am    1  UNL1       -0.2802
      6 C           2.7243    1.1909   -1.5633 C.2     1  UNL1        0.2694
      7 O           2.2993    1.2848   -2.7610 O.2     1  UNL1       -0.2681
      8 C           4.1371    1.4174   -1.3369 C.ar    1  UNL1        0.1608
      9 N           5.0197    1.2420   -2.3623 N.ar    1  UNL1       -0.2462
     10 C           6.3161    1.4900   -2.1842 C.ar    1  UNL1        0.0460
     11 C           6.8208    1.9291   -0.9779 C.ar    1  UNL1        0.0726
     12 C           8.2497    2.1877   -0.8807 C.1     1  UNL1        0.1008
     13 N           9.3700    2.3983   -0.8212 N.1     1  UNL1       -0.1908
     14 C           5.9741    2.1165    0.0716 C.ar    1  UNL1       -0.0053
     15 C           4.6022    1.8495   -0.1330 C.ar    1  UNL1        0.1550
     16 F           3.8290    2.0868    0.9576 F       1  UNL1       -0.2030
     17 C          -0.2487   -0.0652    0.3154 C.ar    1  UNL1       -0.0320
     18 C          -1.5923   -0.3335    0.2515 C.ar    1  UNL1        0.0230
     19 C          -2.3069   -1.1284    1.2872 C.3     1  UNL1        0.1603
     20 C          -1.3103   -1.4734    2.3731 C.3     1  UNL1        0.2686
     21 F          -1.8787   -2.2130    3.3987 F       1  UNL1       -0.2062
     22 F          -0.9531   -0.2626    2.9647 F       1  UNL1       -0.2062
     23 N          -3.3793   -0.3900    1.9180 N.2     1  UNL1       -0.2194
     24 C          -4.3285   -1.0004    2.5184 C.2     1  UNL1        0.2764
     25 N          -5.3995   -0.3236    3.1519 N.pl3   1  UNL1       -0.3134
     26 O          -4.3015   -2.4170    2.5484 O.2     1  UNL1       -0.4622
     27 C          -3.9580   -3.0411    1.3195 C.3     1  UNL1        0.1091
     28 C          -2.6441   -3.6845    1.1021 C.3     1  UNL1       -0.0064
     29 C          -2.8785   -2.3276    0.5855 C.3     1  UNL1        0.0344
     30 C          -2.2493    0.1823   -0.8692 C.ar    1  UNL1        0.1320
     31 F          -3.5823   -0.0365   -0.9878 F       1  UNL1       -0.2048
     32 H          -1.9341    2.3850   -3.3580 H       1  UNL1        0.0278
     33 H          -3.4089    1.6418   -2.6637 H       1  UNL1        0.0278
     34 H          -2.4232    0.6613   -3.7914 H       1  UNL1        0.0278
     35 H           0.1517    1.7270   -2.5472 H       1  UNL1        0.0640
     36 H           2.1967    0.7677    0.4539 H       1  UNL1        0.1552
     37 H           7.0221    1.3460   -3.0114 H       1  UNL1        0.0843
     38 H           6.3485    2.4604    1.0091 H       1  UNL1        0.0660
     39 H           0.3640   -0.4243    1.1461 H       1  UNL1        0.0640
     40 H          -0.4493   -2.0453    2.0166 H       1  UNL1        0.1047
     41 H          -5.5498   -0.4868    4.1698 H       1  UNL1        0.1466
     42 H          -6.0349    0.3191    2.6507 H       1  UNL1        0.1466
     43 H          -4.8300   -3.4469    0.7683 H       1  UNL1        0.0737
     44 H          -2.0066   -3.9073    1.9579 H       1  UNL1        0.0306
     45 H          -2.6431   -4.5082    0.3291 H       1  UNL1        0.0306
     46 H          -3.1100   -2.1980   -0.5109 H       1  UNL1        0.0366
@<TRIPOS>BOND
     1     1     2    1
     2     2     3   ar
     3     3     4   ar
     4     4     5    1
     5     5     6   am
     6     6     7    2
     7     6     8    1
     8     8     9   ar
     9     9    10   ar
    10    10    11   ar
    11    11    12    1
    12    12    13    3
    13    11    14   ar
    14    14    15   ar
    15    15    16    1
    16     4    17   ar
    17    17    18   ar
    18    18    19    1
    19    19    20    1
    20    20    21    1
    21    20    22    1
    22    19    23    1
    23    23    24    2
    24    24    25    1
    25    24    26    1
    26    26    27    1
    27    27    28    1
    28    28    29    1
    29    18    30   ar
    30    30    31    1
    31    30     2   ar
    32    15     8   ar
    33    29    19    1
    34    29    27    1
    35     1    32    1
    36     1    33    1
    37     1    34    1
    38     3    35    1
    39     5    36    1
    40    10    37    1
    41    14    38    1
    42    17    39    1
    43    20    40    1
    44    25    41    1
    45    25    42    1
    46    27    43    1
    47    28    44    1
    48    28    45    1
    49    29    46    1
