
     RDKit          3D

 46 49  0  0  0  0  0  0  0  0999 V2000
   -2.3921    1.4325   -3.0215 C   0  0  0  0  0  0  0  0  0  0  0  0
   -1.6310    0.8917   -1.8289 C   0  0  0  0  0  0  0  0  0  0  0  0
   -0.2724    1.1582   -1.7586 C   0  0  0  0  0  0  0  0  0  0  0  0
    0.4305    0.6670   -0.6592 C   0  0  0  0  0  0  0  0  0  0  0  0
    1.8408    0.8807   -0.5390 N   0  0  0  0  0  0  0  0  0  0  0  0
    2.7243    1.1909   -1.5633 C   0  0  0  0  0  0  0  0  0  0  0  0
    2.2993    1.2848   -2.7610 O   0  0  0  0  0  0  0  0  0  0  0  0
    4.1371    1.4174   -1.3369 C   0  0  0  0  0  0  0  0  0  0  0  0
    5.0197    1.2420   -2.3623 N   0  0  0  0  0  0  0  0  0  0  0  0
    6.3161    1.4900   -2.1842 C   0  0  0  0  0  0  0  0  0  0  0  0
    6.8208    1.9291   -0.9779 C   0  0  0  0  0  0  0  0  0  0  0  0
    8.2497    2.1877   -0.8807 C   0  0  0  0  0  0  0  0  0  0  0  0
    9.3700    2.3983   -0.8212 N   0  0  0  0  0  0  0  0  0  0  0  0
    5.9741    2.1165    0.0716 C   0  0  0  0  0  0  0  0  0  0  0  0
    4.6022    1.8495   -0.1330 C   0  0  0  0  0  0  0  0  0  0  0  0
    3.8290    2.0868    0.9576 F   0  0  0  0  0  0  0  0  0  0  0  0
   -0.2487   -0.0652    0.3154 C   0  0  0  0  0  0  0  0  0  0  0  0
   -1.5923   -0.3335    0.2515 C   0  0  0  0  0  0  0  0  0  0  0  0
   -2.3069   -1.1284    1.2872 C   0  0  1  0  0  0  0  0  0  0  0  0
   -1.3103   -1.4734    2.3731 C   0  0  0  0  0  0  0  0  0  0  0  0
   -1.8787   -2.2130    3.3987 F   0  0  0  0  0  0  0  0  0  0  0  0
   -0.9531   -0.2626    2.9647 F   0  0  0  0  0  0  0  0  0  0  0  0
   -3.3793   -0.3900    1.9180 N   0  0  0  0  0  0  0  0  0  0  0  0
   -4.3285   -1.0004    2.5184 C   0  0  0  0  0  0  0  0  0  0  0  0
   -5.3995   -0.3236    3.1519 N   0  0  0  0  0  0  0  0  0  0  0  0
   -4.3015   -2.4170    2.5484 O   0  0  0  0  0  0  0  0  0  0  0  0
   -3.9580   -3.0411    1.3195 C   0  0  2  0  0  0  0  0  0  0  0  0
   -2.6441   -3.6845    1.1021 C   0  0  0  0  0  0  0  0  0  0  0  0
   -2.8785   -2.3276    0.5855 C   0  0  2  0  0  0  0  0  0  0  0  0
   -2.2493    0.1823   -0.8692 C   0  0  0  0  0  0  0  0  0  0  0  0
   -3.5823   -0.0365   -0.9878 F   0  0  0  0  0  0  0  0  0  0  0  0
   -1.9341    2.3850   -3.3580 H   0  0  0  0  0  0  0  0  0  0  0  0
   -3.4089    1.6418   -2.6637 H   0  0  0  0  0  0  0  0  0  0  0  0
   -2.4232    0.6613   -3.7914 H   0  0  0  0  0  0  0  0  0  0  0  0
    0.1517    1.7270   -2.5472 H   0  0  0  0  0  0  0  0  0  0  0  0
    2.1967    0.7677    0.4539 H   0  0  0  0  0  0  0  0  0  0  0  0
    7.0221    1.3460   -3.0114 H   0  0  0  0  0  0  0  0  0  0  0  0
    6.3485    2.4604    1.0091 H   0  0  0  0  0  0  0  0  0  0  0  0
    0.3640   -0.4243    1.1461 H   0  0  0  0  0  0  0  0  0  0  0  0
   -0.4493   -2.0453    2.0166 H   0  0  0  0  0  0  0  0  0  0  0  0
   -5.5498   -0.4868    4.1698 H   0  0  0  0  0  0  0  0  0  0  0  0
   -6.0349    0.3191    2.6507 H   0  0  0  0  0  0  0  0  0  0  0  0
   -4.8300   -3.4469    0.7683 H   0  0  0  0  0  0  0  0  0  0  0  0
   -2.0066   -3.9073    1.9579 H   0  0  0  0  0  0  0  0  0  0  0  0
   -2.6431   -4.5082    0.3291 H   0  0  0  0  0  0  0  0  0  0  0  0
   -3.1100   -2.1980   -0.5109 H   0  0  0  0  0  0  0  0  0  0  0  0
  1  2  1  0
  2  3  2  0
  3  4  1  0
  4  5  1  0
  5  6  1  0
  6  7  2  0
  6  8  1  0
  8  9  2  0
  9 10  1  0
 10 11  2  0
 11 12  1  0
 12 13  3  0
 11 14  1  0
 14 15  2  0
 15 16  1  0
  4 17  2  0
 17 18  1  0
 18 19  1  0
 19 20  1  1
 20 21  1  0
 20 22  1  0
 19 23  1  0
 23 24  2  0
 24 25  1  0
 24 26  1  0
 26 27  1  0
 27 28  1  0
 28 29  1  0
 18 30  2  0
 30 31  1  0
 30  2  1  0
 15  8  1  0
 29 19  1  0
 29 27  1  0
  1 32  1  0
  1 33  1  0
  1 34  1  0
  3 35  1  0
  5 36  1  0
 10 37  1  0
 14 38  1  0
 17 39  1  0
 20 40  1  0
 25 41  1  0
 25 42  1  0
 27 43  1  6
 28 44  1  0
 28 45  1  0
 29 46  1  6
M  END
$$$$
