@<TRIPOS>MOLECULE
*****
 69 72 0 0 0
SMALL
GASTEIGER

@<TRIPOS>ATOM
      1 C           6.8792   -1.5655    3.5926 C.3     1  UNL1       -0.0223
      2 C           5.8425   -1.9361    2.6071 C.ar    1  UNL1        0.0389
      3 C           5.2344   -1.0186    1.7746 C.ar    1  UNL1       -0.0285
      4 C           4.2697   -1.3923    0.8615 C.ar    1  UNL1        0.0402
      5 C           3.6602   -0.3920   -0.0021 C.2     1  UNL1        0.2505
      6 O           4.0377    0.8288    0.0926 O.2     1  UNL1       -0.2698
      7 N           2.6545   -0.6846   -0.9644 N.am    1  UNL1       -0.2518
      8 C           2.0893    0.3067   -1.7660 C.ar    1  UNL1        0.2035
      9 N           2.8328    0.7396   -2.8376 N.ar    1  UNL1       -0.2141
     10 C           2.1541    1.6613   -3.4766 C.ar    1  UNL1        0.0912
     11 C           2.4855    2.3889   -4.6079 C.ar    1  UNL1       -0.0342
     12 C           1.6127    3.3072   -5.0980 C.ar    1  UNL1       -0.0594
     13 C           0.4312    3.4756   -4.4449 C.ar    1  UNL1       -0.0568
     14 C           0.0720    2.7482   -3.2932 C.ar    1  UNL1       -0.0248
     15 C          -1.2134    3.0073   -2.6334 C.3     1  UNL1       -0.0377
     16 C           0.9468    1.8186   -2.7936 C.ar    1  UNL1        0.0733
     17 N           0.9293    0.9587   -1.7294 N.ar    1  UNL1       -0.3067
     18 C          -0.1375    0.7650   -0.8242 C.3     1  UNL1        0.0534
     19 C          -0.1782    1.4033    0.4888 C.3     1  UNL1       -0.0305
     20 C           0.8764    1.2534    1.4941 C.3     1  UNL1       -0.0497
     21 C           1.0116   -0.0159    2.2340 C.3     1  UNL1       -0.0371
     22 C           0.4618   -1.2450    1.6583 C.3     1  UNL1        0.0150
     23 N          -0.6538   -1.0759    0.7560 N.am    1  UNL1       -0.2960
     24 C          -1.9660   -1.2629    1.2520 C.2     1  UNL1        0.2392
     25 O          -2.0249   -1.5824    2.4928 O.2     1  UNL1       -0.2706
     26 C          -3.1983   -1.1360    0.5358 C.2     1  UNL1       -0.0024
     27 C          -4.3620   -1.3453    1.1421 C.2     1  UNL1       -0.0652
     28 C          -5.6589   -1.2276    0.4477 C.3     1  UNL1        0.0170
     29 N          -6.5134   -0.2192    1.0367 N.3     1  UNL1       -0.3047
     30 C          -5.9851    1.1154    0.8269 C.3     1  UNL1       -0.0127
     31 C          -7.8609   -0.2800    0.5287 C.3     1  UNL1       -0.0127
     32 C          -0.5167   -0.7321   -0.6327 C.3     1  UNL1        0.0359
     33 C           3.9419   -2.7223    0.8195 C.ar    1  UNL1       -0.0314
     34 C           4.5443   -3.6666    1.6524 C.ar    1  UNL1        0.0286
     35 N           5.4780   -3.2240    2.5180 N.ar    1  UNL1       -0.2601
     36 H           6.4343   -1.0928    4.5010 H       1  UNL1        0.0292
     37 H           7.4812   -2.4541    3.8771 H       1  UNL1        0.0292
     38 H           7.6170   -0.8534    3.1313 H       1  UNL1        0.0292
     39 H           5.5598    0.0293    1.8764 H       1  UNL1        0.0643
     40 H           2.3913   -1.6736   -1.0474 H       1  UNL1        0.1580
     41 H           3.4423    2.2121   -5.0873 H       1  UNL1        0.0639
     42 H           1.8462    3.8836   -5.9744 H       1  UNL1        0.0618
     43 H          -0.3047    4.1855   -4.7829 H       1  UNL1        0.0621
     44 H          -2.0492    2.3432   -2.9226 H       1  UNL1        0.0278
     45 H          -1.1713    3.3383   -1.5930 H       1  UNL1        0.0278
     46 H          -1.5920    3.9916   -3.1132 H       1  UNL1        0.0278
     47 H          -1.1387    1.1112   -1.2900 H       1  UNL1        0.0544
     48 H          -0.5065    2.5014    0.4467 H       1  UNL1        0.0286
     49 H          -1.1161    0.9941    1.0043 H       1  UNL1        0.0286
     50 H           0.5934    2.0176    2.3183 H       1  UNL1        0.0266
     51 H           1.8344    1.7306    1.1565 H       1  UNL1        0.0266
     52 H           0.6285    0.0523    3.3027 H       1  UNL1        0.0280
     53 H           2.1190   -0.1814    2.4158 H       1  UNL1        0.0280
     54 H           1.2098   -1.8701    1.1238 H       1  UNL1        0.0465
     55 H           0.0763   -1.9421    2.4637 H       1  UNL1        0.0465
     56 H          -3.2754   -0.8688   -0.5037 H       1  UNL1        0.0667
     57 H          -4.3432   -1.6115    2.1841 H       1  UNL1        0.0586
     58 H          -5.5381   -0.9615   -0.6201 H       1  UNL1        0.0470
     59 H          -6.2243   -2.1831    0.4751 H       1  UNL1        0.0470
     60 H          -6.3059    1.4161   -0.2026 H       1  UNL1        0.0391
     61 H          -6.4928    1.8202    1.5170 H       1  UNL1        0.0391
     62 H          -4.8976    1.1641    0.9681 H       1  UNL1        0.0391
     63 H          -8.4063   -1.1868    0.8620 H       1  UNL1        0.0391
     64 H          -7.8675   -0.2013   -0.5868 H       1  UNL1        0.0391
     65 H          -8.4080    0.5975    0.9646 H       1  UNL1        0.0391
     66 H          -1.4687   -0.9726   -1.2069 H       1  UNL1        0.0485
     67 H           0.2085   -1.3962   -1.1240 H       1  UNL1        0.0485
     68 H           3.2034   -3.0941    0.1399 H       1  UNL1        0.0640
     69 H           4.2841   -4.7203    1.6183 H       1  UNL1        0.0830
@<TRIPOS>BOND
     1     1     2    1
     2     2     3   ar
     3     3     4   ar
     4     4     5    1
     5     5     6    2
     6     5     7   am
     7     7     8    1
     8     8     9   ar
     9     9    10   ar
    10    10    11   ar
    11    11    12   ar
    12    12    13   ar
    13    13    14   ar
    14    14    15    1
    15    14    16   ar
    16    16    17   ar
    17    17    18    1
    18    18    19    1
    19    19    20    1
    20    20    21    1
    21    21    22    1
    22    22    23    1
    23    23    24   am
    24    24    25    2
    25    24    26    1
    26    26    27    2
    27    27    28    1
    28    28    29    1
    29    29    30    1
    30    29    31    1
    31    23    32    1
    32     4    33   ar
    33    33    34   ar
    34    34    35   ar
    35    35     2   ar
    36    17     8   ar
    37    32    18    1
    38    16    10   ar
    39     1    36    1
    40     1    37    1
    41     1    38    1
    42     3    39    1
    43     7    40    1
    44    11    41    1
    45    12    42    1
    46    13    43    1
    47    15    44    1
    48    15    45    1
    49    15    46    1
    50    18    47    1
    51    19    48    1
    52    19    49    1
    53    20    50    1
    54    20    51    1
    55    21    52    1
    56    21    53    1
    57    22    54    1
    58    22    55    1
    59    26    56    1
    60    27    57    1
    61    28    58    1
    62    28    59    1
    63    30    60    1
    64    30    61    1
    65    30    62    1
    66    31    63    1
    67    31    64    1
    68    31    65    1
    69    32    66    1
    70    32    67    1
    71    33    68    1
    72    34    69    1
