@<TRIPOS>MOLECULE
*****
 45 47 0 0 0
SMALL
GASTEIGER

@<TRIPOS>ATOM
      1 C           8.4754    0.2756    0.9444 C.3     1  UNL1       -0.0397
      2 C           7.0222    0.2616    0.6825 C.ar    1  UNL1       -0.0503
      3 C           6.4516   -0.6324   -0.1959 C.ar    1  UNL1       -0.0571
      4 C           5.1077   -0.6674   -0.4584 C.ar    1  UNL1       -0.0400
      5 C           4.2224    0.2271    0.1691 C.ar    1  UNL1        0.0363
      6 N           2.8523    0.1276   -0.1430 N.am    1  UNL1       -0.2701
      7 C           2.4288   -0.9735   -1.0243 C.3     1  UNL1        0.0086
      8 C           1.8748    0.9863    0.3290 C.2     1  UNL1        0.2572
      9 O           2.0902    1.9504    1.0931 O.2     1  UNL1       -0.2691
     10 C           0.4857    0.7822   -0.0725 C.ar    1  UNL1        0.0749
     11 C          -0.1168    0.7898   -1.2607 C.ar    1  UNL1       -0.0419
     12 C          -1.4419    0.5677   -1.3570 C.ar    1  UNL1       -0.0462
     13 C          -2.1391    0.3373   -0.2089 C.ar    1  UNL1        0.0201
     14 C          -3.5349    0.0665    0.0860 C.ar    1  UNL1       -0.0110
     15 C          -3.9832   -0.1218    1.3793 C.ar    1  UNL1       -0.0533
     16 C          -5.2973   -0.3823    1.6877 C.ar    1  UNL1       -0.0580
     17 C          -6.2321   -0.4644    0.6746 C.ar    1  UNL1       -0.0475
     18 C          -7.6774   -0.7439    0.9307 C.3     1  UNL1       -0.0395
     19 C          -5.7903   -0.2775   -0.6182 C.ar    1  UNL1       -0.0469
     20 C          -6.8183   -0.3709   -1.7084 C.3     1  UNL1       -0.0394
     21 C          -4.4709   -0.0169   -0.9163 C.ar    1  UNL1       -0.0504
     22 S          -0.8202    0.4479    1.0532 S.2     1  UNL1       -0.0837
     23 C           4.8014    1.1124    1.0418 C.ar    1  UNL1       -0.0400
     24 C           6.1795    1.1479    1.3107 C.ar    1  UNL1       -0.0571
     25 H           9.0257    0.9594    0.2496 H       1  UNL1        0.0278
     26 H           8.6275    0.6818    1.9619 H       1  UNL1        0.0278
     27 H           8.9030   -0.7271    0.7986 H       1  UNL1        0.0278
     28 H           7.1613   -1.3192   -0.6741 H       1  UNL1        0.0621
     29 H           4.7332   -1.4018   -1.1682 H       1  UNL1        0.0636
     30 H           1.3348   -1.1341   -0.9309 H       1  UNL1        0.0433
     31 H           2.8700   -1.9359   -0.6323 H       1  UNL1        0.0433
     32 H           2.7563   -0.7756   -2.0640 H       1  UNL1        0.0433
     33 H           0.4928    0.9840   -2.1887 H       1  UNL1        0.0631
     34 H          -2.0327    0.5552   -2.3203 H       1  UNL1        0.0629
     35 H          -3.2476   -0.0583    2.1878 H       1  UNL1        0.0624
     36 H          -5.6361   -0.5283    2.7066 H       1  UNL1        0.0620
     37 H          -8.0011   -1.6329    0.3666 H       1  UNL1        0.0278
     38 H          -8.2924    0.1604    0.6801 H       1  UNL1        0.0278
     39 H          -7.8496   -0.9441    2.0082 H       1  UNL1        0.0278
     40 H          -6.2606   -0.4934   -2.6660 H       1  UNL1        0.0278
     41 H          -7.4659   -1.2452   -1.5841 H       1  UNL1        0.0278
     42 H          -7.3613    0.5961   -1.7979 H       1  UNL1        0.0278
     43 H          -4.1524    0.1245   -1.9250 H       1  UNL1        0.0626
     44 H           4.1775    1.8177    1.5538 H       1  UNL1        0.0636
     45 H           6.5479    1.8877    2.0199 H       1  UNL1        0.0621
@<TRIPOS>BOND
     1     1     2    1
     2     2     3   ar
     3     3     4   ar
     4     4     5   ar
     5     5     6    1
     6     6     7    1
     7     6     8   am
     8     8     9    2
     9     8    10    1
    10    10    11   ar
    11    11    12   ar
    12    12    13   ar
    13    13    14    1
    14    14    15   ar
    15    15    16   ar
    16    16    17   ar
    17    17    18    1
    18    17    19   ar
    19    19    20    1
    20    19    21   ar
    21    13    22   ar
    22     5    23   ar
    23    23    24   ar
    24    24     2   ar
    25    22    10   ar
    26    21    14   ar
    27     1    25    1
    28     1    26    1
    29     1    27    1
    30     3    28    1
    31     4    29    1
    32     7    30    1
    33     7    31    1
    34     7    32    1
    35    11    33    1
    36    12    34    1
    37    15    35    1
    38    16    36    1
    39    18    37    1
    40    18    38    1
    41    18    39    1
    42    20    40    1
    43    20    41    1
    44    20    42    1
    45    21    43    1
    46    23    44    1
    47    24    45    1
