@<TRIPOS>MOLECULE
*****
 68 70 0 0 0
SMALL
GASTEIGER

@<TRIPOS>ATOM
      1 C          -5.2138   -2.7248    2.9155 C.2     1  UNL1       -0.1026
      2 C          -5.2158   -1.4540    2.5231 C.2     1  UNL1       -0.0893
      3 C          -3.9427   -0.6811    2.2622 C.3     1  UNL1       -0.0141
      4 C          -3.9210   -0.2082    0.8198 C.3     1  UNL1        0.0536
      5 N          -3.9626   -1.3633   -0.0156 N.am    1  UNL1       -0.3099
      6 C          -5.0468   -1.6227   -0.8946 C.2     1  UNL1        0.2102
      7 C          -5.0684   -2.8351   -1.7575 C.3     1  UNL1        0.0122
      8 O          -6.0376   -0.8452   -0.9876 O.2     1  UNL1       -0.2761
      9 C          -2.7669    0.7114    0.6317 C.3     1  UNL1        0.0862
     10 O          -2.6891    1.2322   -0.6517 O.3     1  UNL1       -0.3887
     11 C          -1.4445    0.1911    1.1550 C.3     1  UNL1        0.0243
     12 N          -0.4109    1.1461    1.2409 N.3     1  UNL1       -0.3065
     13 C           0.1843    1.6627    0.0963 C.3     1  UNL1        0.0416
     14 C           1.0421    2.9089    0.3537 C.3     1  UNL1        0.0070
     15 C           1.1489    3.6039   -1.0036 C.3     1  UNL1        0.1187
     16 C           0.1987    4.7408   -1.2183 C.3     1  UNL1        0.0135
     17 C           1.3575    5.6841   -0.9530 C.3     1  UNL1        0.0625
     18 O           1.5708    6.6590   -1.9069 O.3     1  UNL1       -0.3915
     19 C           2.3299    4.5250   -1.0854 C.3     1  UNL1        0.0135
     20 O           1.1794    2.6517   -2.0802 O.3     1  UNL1       -0.4693
     21 C           1.6106    1.3364   -1.8202 C.ar    1  UNL1        0.2200
     22 N           2.4372    0.6384   -2.5826 N.ar    1  UNL1       -0.2208
     23 C           2.8057   -0.6145   -2.2637 C.ar    1  UNL1        0.0346
     24 C           2.3270   -1.2084   -1.1237 C.ar    1  UNL1       -0.0282
     25 C           2.6880   -2.5747   -0.7183 C.3     1  UNL1       -0.0213
     26 C           3.9087   -2.6563    0.1569 C.3     1  UNL1       -0.0337
     27 C           5.1371   -2.1018   -0.5216 C.3     1  UNL1       -0.0598
     28 C           3.7325   -1.8993    1.4525 C.3     1  UNL1       -0.0598
     29 C           4.1326   -4.1046    0.5144 C.3     1  UNL1       -0.0598
     30 C           1.4501   -0.4984   -0.2935 C.ar    1  UNL1       -0.0474
     31 C           1.1054    0.7668   -0.6595 C.ar    1  UNL1        0.0314
     32 H          -6.1245   -3.2696    3.0996 H       1  UNL1        0.0532
     33 H          -4.2817   -3.2804    3.0703 H       1  UNL1        0.0532
     34 H          -6.1316   -0.9219    2.3746 H       1  UNL1        0.0567
     35 H          -3.7661    0.1131    2.9855 H       1  UNL1        0.0326
     36 H          -3.1426   -1.4647    2.4235 H       1  UNL1        0.0326
     37 H          -4.8430    0.4097    0.6361 H       1  UNL1        0.0527
     38 H          -3.1815   -2.0444    0.0104 H       1  UNL1        0.1491
     39 H          -5.4748   -3.7163   -1.1863 H       1  UNL1        0.0322
     40 H          -4.0444   -3.1306   -2.0681 H       1  UNL1        0.0322
     41 H          -5.7243   -2.6946   -2.6311 H       1  UNL1        0.0322
     42 H          -2.9937    1.6127    1.2817 H       1  UNL1        0.0624
     43 H          -2.7356    0.5547   -1.3628 H       1  UNL1        0.2099
     44 H          -1.5680   -0.3335    2.1269 H       1  UNL1        0.0450
     45 H          -1.1526   -0.6259    0.4317 H       1  UNL1        0.0450
     46 H           0.1369    1.1488    2.1197 H       1  UNL1        0.1226
     47 H          -0.5735    2.0043   -0.6320 H       1  UNL1        0.0513
     48 H           0.5856    3.5768    1.0858 H       1  UNL1        0.0322
     49 H           2.0524    2.5818    0.6727 H       1  UNL1        0.0322
     50 H          -0.6526    4.8347   -0.5442 H       1  UNL1        0.0329
     51 H          -0.0903    4.8362   -2.3043 H       1  UNL1        0.0329
     52 H           1.3005    6.0371    0.0984 H       1  UNL1        0.0596
     53 H           2.4958    6.6682   -2.2460 H       1  UNL1        0.2098
     54 H           3.0456    4.4437   -0.2292 H       1  UNL1        0.0329
     55 H           2.8861    4.5189   -2.0611 H       1  UNL1        0.0329
     56 H           3.4740   -1.1340   -2.9126 H       1  UNL1        0.0833
     57 H           2.8269   -3.1775   -1.6229 H       1  UNL1        0.0319
     58 H           1.8595   -3.0765   -0.1454 H       1  UNL1        0.0319
     59 H           5.9718   -2.2071    0.2047 H       1  UNL1        0.0235
     60 H           5.4052   -2.7486   -1.3816 H       1  UNL1        0.0235
     61 H           5.0330   -1.0412   -0.7664 H       1  UNL1        0.0235
     62 H           4.6920   -2.0199    2.0195 H       1  UNL1        0.0235
     63 H           2.9483   -2.3684    2.1027 H       1  UNL1        0.0235
     64 H           3.5289   -0.8174    1.2722 H       1  UNL1        0.0235
     65 H           3.1520   -4.5409    0.8413 H       1  UNL1        0.0235
     66 H           4.5588   -4.6506   -0.3513 H       1  UNL1        0.0235
     67 H           4.7992   -4.1620    1.4009 H       1  UNL1        0.0235
     68 H           1.1018   -0.9805    0.6024 H       1  UNL1        0.0626
@<TRIPOS>BOND
     1     1     2    2
     2     2     3    1
     3     3     4    1
     4     4     5    1
     5     5     6   am
     6     6     7    1
     7     6     8    2
     8     4     9    1
     9     9    10    1
    10     9    11    1
    11    11    12    1
    12    12    13    1
    13    13    14    1
    14    14    15    1
    15    15    16    1
    16    16    17    1
    17    17    18    1
    18    17    19    1
    19    15    20    1
    20    20    21    1
    21    21    22   ar
    22    22    23   ar
    23    23    24   ar
    24    24    25    1
    25    25    26    1
    26    26    27    1
    27    26    28    1
    28    26    29    1
    29    24    30   ar
    30    30    31   ar
    31    31    13    1
    32    19    15    1
    33    31    21   ar
    34     1    32    1
    35     1    33    1
    36     2    34    1
    37     3    35    1
    38     3    36    1
    39     4    37    1
    40     5    38    1
    41     7    39    1
    42     7    40    1
    43     7    41    1
    44     9    42    1
    45    10    43    1
    46    11    44    1
    47    11    45    1
    48    12    46    1
    49    13    47    1
    50    14    48    1
    51    14    49    1
    52    16    50    1
    53    16    51    1
    54    17    52    1
    55    18    53    1
    56    19    54    1
    57    19    55    1
    58    23    56    1
    59    25    57    1
    60    25    58    1
    61    27    59    1
    62    27    60    1
    63    27    61    1
    64    28    62    1
    65    28    63    1
    66    28    64    1
    67    29    65    1
    68    29    66    1
    69    29    67    1
    70    30    68    1
