
     RDKit          3D

 68 70  0  0  0  0  0  0  0  0999 V2000
   -5.2138   -2.7248    2.9155 C   0  0  0  0  0  0  0  0  0  0  0  0
   -5.2158   -1.4540    2.5231 C   0  0  0  0  0  0  0  0  0  0  0  0
   -3.9427   -0.6811    2.2622 C   0  0  0  0  0  0  0  0  0  0  0  0
   -3.9210   -0.2082    0.8198 C   0  0  2  0  0  0  0  0  0  0  0  0
   -3.9626   -1.3633   -0.0156 N   0  0  0  0  0  0  0  0  0  0  0  0
   -5.0468   -1.6227   -0.8946 C   0  0  0  0  0  0  0  0  0  0  0  0
   -5.0684   -2.8351   -1.7575 C   0  0  0  0  0  0  0  0  0  0  0  0
   -6.0376   -0.8452   -0.9876 O   0  0  0  0  0  0  0  0  0  0  0  0
   -2.7669    0.7114    0.6317 C   0  0  2  0  0  0  0  0  0  0  0  0
   -2.6891    1.2322   -0.6517 O   0  0  0  0  0  0  0  0  0  0  0  0
   -1.4445    0.1911    1.1550 C   0  0  0  0  0  0  0  0  0  0  0  0
   -0.4109    1.1461    1.2409 N   0  0  0  0  0  0  0  0  0  0  0  0
    0.1843    1.6627    0.0963 C   0  0  1  0  0  0  0  0  0  0  0  0
    1.0421    2.9089    0.3537 C   0  0  0  0  0  0  0  0  0  0  0  0
    1.1489    3.6039   -1.0036 C   0  0  1  0  0  0  0  0  0  0  0  0
    0.1987    4.7408   -1.2183 C   0  0  0  0  0  0  0  0  0  0  0  0
    1.3575    5.6841   -0.9530 C   0  0  2  0  0  0  0  0  0  0  0  0
    1.5708    6.6590   -1.9069 O   0  0  0  0  0  0  0  0  0  0  0  0
    2.3299    4.5250   -1.0854 C   0  0  0  0  0  0  0  0  0  0  0  0
    1.1794    2.6517   -2.0802 O   0  0  0  0  0  0  0  0  0  0  0  0
    1.6106    1.3364   -1.8202 C   0  0  0  0  0  0  0  0  0  0  0  0
    2.4372    0.6384   -2.5826 N   0  0  0  0  0  0  0  0  0  0  0  0
    2.8057   -0.6145   -2.2637 C   0  0  0  0  0  0  0  0  0  0  0  0
    2.3270   -1.2084   -1.1237 C   0  0  0  0  0  0  0  0  0  0  0  0
    2.6880   -2.5747   -0.7183 C   0  0  0  0  0  0  0  0  0  0  0  0
    3.9087   -2.6563    0.1569 C   0  0  0  0  0  0  0  0  0  0  0  0
    5.1371   -2.1018   -0.5216 C   0  0  0  0  0  0  0  0  0  0  0  0
    3.7325   -1.8993    1.4525 C   0  0  0  0  0  0  0  0  0  0  0  0
    4.1326   -4.1046    0.5144 C   0  0  0  0  0  0  0  0  0  0  0  0
    1.4501   -0.4984   -0.2935 C   0  0  0  0  0  0  0  0  0  0  0  0
    1.1054    0.7668   -0.6595 C   0  0  0  0  0  0  0  0  0  0  0  0
   -6.1245   -3.2696    3.0996 H   0  0  0  0  0  0  0  0  0  0  0  0
   -4.2817   -3.2804    3.0703 H   0  0  0  0  0  0  0  0  0  0  0  0
   -6.1316   -0.9219    2.3746 H   0  0  0  0  0  0  0  0  0  0  0  0
   -3.7661    0.1131    2.9855 H   0  0  0  0  0  0  0  0  0  0  0  0
   -3.1426   -1.4647    2.4235 H   0  0  0  0  0  0  0  0  0  0  0  0
   -4.8430    0.4097    0.6361 H   0  0  0  0  0  0  0  0  0  0  0  0
   -3.1815   -2.0444    0.0104 H   0  0  0  0  0  0  0  0  0  0  0  0
   -5.4748   -3.7163   -1.1863 H   0  0  0  0  0  0  0  0  0  0  0  0
   -4.0444   -3.1306   -2.0681 H   0  0  0  0  0  0  0  0  0  0  0  0
   -5.7243   -2.6946   -2.6311 H   0  0  0  0  0  0  0  0  0  0  0  0
   -2.9937    1.6127    1.2817 H   0  0  0  0  0  0  0  0  0  0  0  0
   -2.7356    0.5547   -1.3628 H   0  0  0  0  0  0  0  0  0  0  0  0
   -1.5680   -0.3335    2.1269 H   0  0  0  0  0  0  0  0  0  0  0  0
   -1.1526   -0.6259    0.4317 H   0  0  0  0  0  0  0  0  0  0  0  0
    0.1369    1.1488    2.1197 H   0  0  0  0  0  0  0  0  0  0  0  0
   -0.5735    2.0043   -0.6320 H   0  0  0  0  0  0  0  0  0  0  0  0
    0.5856    3.5768    1.0858 H   0  0  0  0  0  0  0  0  0  0  0  0
    2.0524    2.5818    0.6727 H   0  0  0  0  0  0  0  0  0  0  0  0
   -0.6526    4.8347   -0.5442 H   0  0  0  0  0  0  0  0  0  0  0  0
   -0.0903    4.8362   -2.3043 H   0  0  0  0  0  0  0  0  0  0  0  0
    1.3005    6.0371    0.0984 H   0  0  0  0  0  0  0  0  0  0  0  0
    2.4958    6.6682   -2.2460 H   0  0  0  0  0  0  0  0  0  0  0  0
    3.0456    4.4437   -0.2292 H   0  0  0  0  0  0  0  0  0  0  0  0
    2.8861    4.5189   -2.0611 H   0  0  0  0  0  0  0  0  0  0  0  0
    3.4740   -1.1340   -2.9126 H   0  0  0  0  0  0  0  0  0  0  0  0
    2.8269   -3.1775   -1.6229 H   0  0  0  0  0  0  0  0  0  0  0  0
    1.8595   -3.0765   -0.1454 H   0  0  0  0  0  0  0  0  0  0  0  0
    5.9718   -2.2071    0.2047 H   0  0  0  0  0  0  0  0  0  0  0  0
    5.4052   -2.7486   -1.3816 H   0  0  0  0  0  0  0  0  0  0  0  0
    5.0330   -1.0412   -0.7664 H   0  0  0  0  0  0  0  0  0  0  0  0
    4.6920   -2.0199    2.0195 H   0  0  0  0  0  0  0  0  0  0  0  0
    2.9483   -2.3684    2.1027 H   0  0  0  0  0  0  0  0  0  0  0  0
    3.5289   -0.8174    1.2722 H   0  0  0  0  0  0  0  0  0  0  0  0
    3.1520   -4.5409    0.8413 H   0  0  0  0  0  0  0  0  0  0  0  0
    4.5588   -4.6506   -0.3513 H   0  0  0  0  0  0  0  0  0  0  0  0
    4.7992   -4.1620    1.4009 H   0  0  0  0  0  0  0  0  0  0  0  0
    1.1018   -0.9805    0.6024 H   0  0  0  0  0  0  0  0  0  0  0  0
  1  2  2  3
  2  3  1  0
  3  4  1  0
  4  5  1  0
  5  6  1  0
  6  7  1  0
  6  8  2  0
  4  9  1  0
  9 10  1  0
  9 11  1  0
 11 12  1  0
 12 13  1  0
 13 14  1  0
 14 15  1  0
 15 16  1  0
 16 17  1  0
 17 18  1  0
 17 19  1  0
 15 20  1  6
 20 21  1  0
 21 22  2  0
 22 23  1  0
 23 24  2  0
 24 25  1  0
 25 26  1  0
 26 27  1  0
 26 28  1  0
 26 29  1  0
 24 30  1  0
 30 31  2  0
 31 13  1  0
 19 15  1  0
 31 21  1  0
  1 32  1  0
  1 33  1  0
  2 34  1  0
  3 35  1  0
  3 36  1  0
  4 37  1  6
  5 38  1  0
  7 39  1  0
  7 40  1  0
  7 41  1  0
  9 42  1  1
 10 43  1  0
 11 44  1  0
 11 45  1  0
 12 46  1  0
 13 47  1  6
 14 48  1  0
 14 49  1  0
 16 50  1  0
 16 51  1  0
 17 52  1  1
 18 53  1  0
 19 54  1  0
 19 55  1  0
 23 56  1  0
 25 57  1  0
 25 58  1  0
 27 59  1  0
 27 60  1  0
 27 61  1  0
 28 62  1  0
 28 63  1  0
 28 64  1  0
 29 65  1  0
 29 66  1  0
 29 67  1  0
 30 68  1  0
M  END
$$$$
