@<TRIPOS>MOLECULE
*****
 56 60 0 0 0
SMALL
GASTEIGER

@<TRIPOS>ATOM
      1 C          -0.5424   -0.0645    1.0085 C.3     1  UNL1       -0.0351
      2 C          -0.9358    0.9318   -0.1748 C.3     1  UNL1        0.0950
      3 C           0.3468    1.6795   -0.3897 C.ar    1  UNL1        0.0349
      4 C           1.5434    1.1618    0.1171 C.ar    1  UNL1       -0.0433
      5 C           2.7277    1.8443   -0.0956 C.ar    1  UNL1       -0.0036
      6 C           4.0012    1.3431    0.4306 C.2     1  UNL1       -0.0157
      7 C           4.3848    0.1019    0.4434 C.2     1  UNL1        0.1492
      8 F           3.5102   -0.8188   -0.0897 F       1  UNL1       -0.2032
      9 C           5.6277   -0.4233    0.9807 C.ar    1  UNL1        0.0990
     10 C           6.5007    0.4491    1.5889 C.ar    1  UNL1       -0.0322
     11 C           7.7160   -0.0027    2.1177 C.ar    1  UNL1       -0.0408
     12 C           8.0165   -1.3172    2.0167 C.ar    1  UNL1        0.0699
     13 C           9.3017   -1.8195    2.5850 C.1     1  UNL1        0.1007
     14 N          10.2480   -2.1779    2.9905 N.1     1  UNL1       -0.1908
     15 C           7.1510   -2.1931    1.4117 C.ar    1  UNL1        0.0457
     16 N           5.9642   -1.7088    0.9049 N.ar    1  UNL1       -0.2514
     17 C           2.6575    3.0185   -0.8099 C.ar    1  UNL1        0.0379
     18 N           1.4708    3.5018   -1.2959 N.ar    1  UNL1       -0.2267
     19 C           0.3266    2.8470   -1.0911 C.ar    1  UNL1        0.2187
     20 F          -0.8539    3.3837   -1.5781 F       1  UNL1       -0.1835
     21 N          -1.8765    1.7677    0.4981 N.2     1  UNL1       -0.2520
     22 C          -3.0143    2.0961    0.1374 C.2     1  UNL1        0.1485
     23 N          -3.8854    2.9563    0.9040 N.pl3   1  UNL1       -0.3380
     24 S          -3.6374    1.5221   -1.4112 S.3     1  UNL1       -0.0746
     25 C          -2.6833    0.0693   -1.8555 C.3     1  UNL1        0.1054
     26 C          -3.4026   -1.2235   -2.0278 C.2     1  UNL1        0.2325
     27 O          -3.1020   -2.0187   -2.9347 O.2     1  UNL1       -0.2741
     28 N          -4.4851   -1.6010   -1.1433 N.am    1  UNL1       -0.2975
     29 C          -4.9483   -0.8552   -0.0094 C.3     1  UNL1        0.0175
     30 C          -5.8336   -1.7687    0.7886 C.3     1  UNL1       -0.0044
     31 C          -6.4657   -2.5855   -0.3304 C.3     1  UNL1        0.1180
     32 F          -7.4549   -1.8132   -0.8870 F       1  UNL1       -0.2438
     33 C          -5.2882   -2.7856   -1.2950 C.3     1  UNL1        0.0459
     34 C          -1.4893    0.3490   -2.6906 C.3     1  UNL1       -0.0220
     35 C          -1.3411    0.0400   -1.2540 C.3     1  UNL1        0.0135
     36 H          -1.4964   -0.4457    1.4138 H       1  UNL1        0.0256
     37 H          -0.0057   -0.9189    0.5968 H       1  UNL1        0.0256
     38 H          -0.0442    0.4904    1.7909 H       1  UNL1        0.0256
     39 H           1.6089    0.2567    0.6670 H       1  UNL1        0.0629
     40 H           4.6789    2.0929    0.8389 H       1  UNL1        0.0653
     41 H           6.3155    1.4936    1.7048 H       1  UNL1        0.0640
     42 H           8.4065    0.7030    2.6010 H       1  UNL1        0.0631
     43 H           7.3865   -3.2158    1.3288 H       1  UNL1        0.0843
     44 H           3.5723    3.5756   -0.9968 H       1  UNL1        0.0836
     45 H          -3.8750    3.9870    0.8118 H       1  UNL1        0.1442
     46 H          -4.5443    2.4912    1.5714 H       1  UNL1        0.1442
     47 H          -4.1225   -0.5587    0.6757 H       1  UNL1        0.0465
     48 H          -5.5316    0.0476   -0.3241 H       1  UNL1        0.0465
     49 H          -6.5955   -1.2005    1.3682 H       1  UNL1        0.0309
     50 H          -5.1916   -2.3775    1.4522 H       1  UNL1        0.0309
     51 H          -6.8258   -3.5168    0.0981 H       1  UNL1        0.0667
     52 H          -5.6994   -2.9331   -2.3129 H       1  UNL1        0.0493
     53 H          -4.7835   -3.7112   -0.9158 H       1  UNL1        0.0493
     54 H          -1.2209   -0.4516   -3.4394 H       1  UNL1        0.0287
     55 H          -1.3834    1.3459   -3.1342 H       1  UNL1        0.0287
     56 H          -0.9037   -1.0396   -1.1250 H       1  UNL1        0.0346
@<TRIPOS>BOND
     1     2     1    1
     2     2     3    1
     3     3     4   ar
     4     4     5   ar
     5     5     6    1
     6     6     7    2
     7     7     8    1
     8     7     9    1
     9     9    10   ar
    10    10    11   ar
    11    11    12   ar
    12    12    13    1
    13    13    14    3
    14    12    15   ar
    15    15    16   ar
    16     5    17   ar
    17    17    18   ar
    18    18    19   ar
    19    19    20    1
    20     2    21    1
    21    21    22    2
    22    22    23    1
    23    22    24    1
    24    24    25    1
    25    25    26    1
    26    26    27    2
    27    26    28   am
    28    28    29    1
    29    29    30    1
    30    30    31    1
    31    31    32    1
    32    31    33    1
    33    25    34    1
    34    34    35    1
    35    35     2    1
    36    19     3   ar
    37    35    25    1
    38    16     9   ar
    39    33    28    1
    40     1    36    1
    41     1    37    1
    42     1    38    1
    43     4    39    1
    44     6    40    1
    45    10    41    1
    46    11    42    1
    47    15    43    1
    48    17    44    1
    49    23    45    1
    50    23    46    1
    51    29    47    1
    52    29    48    1
    53    30    49    1
    54    30    50    1
    55    31    51    1
    56    33    52    1
    57    33    53    1
    58    34    54    1
    59    34    55    1
    60    35    56    1
