@<TRIPOS>MOLECULE
*****
 42 44 0 0 0
SMALL
GASTEIGER

@<TRIPOS>ATOM
      1 N          -3.3790    3.9510   -1.1677 N.pl3   1  UNL1       -0.2906
      2 C          -2.5763    3.0945   -0.3315 C.2     1  UNL1        0.3749
      3 N          -2.4931    3.1612    0.9557 N.pl3   1  UNL1       -0.1313
      4 N          -1.8254    2.1008   -1.0360 N.am    1  UNL1       -0.1735
      5 C          -1.0293    1.2499   -0.2191 C.2     1  UNL1        0.2951
      6 O          -0.9119    1.2705    1.0297 O.2     1  UNL1       -0.2554
      7 C          -0.2305    0.1958   -0.9451 C.3     1  UNL1        0.1152
      8 N           0.5433   -0.6220   -0.0782 N.ar    1  UNL1       -0.3294
      9 C           1.7966   -0.4081    0.3498 C.ar    1  UNL1        0.0500
     10 C           2.1514   -1.4531    1.1784 C.ar    1  UNL1       -0.0356
     11 C           1.0668   -2.3306    1.2502 C.ar    1  UNL1       -0.0356
     12 C           0.0703   -1.7681    0.4410 C.ar    1  UNL1        0.0500
     13 C          -1.1757   -2.5143    0.3436 C.ar    1  UNL1       -0.0015
     14 C          -1.1013   -3.8988    0.1191 C.ar    1  UNL1       -0.0526
     15 C          -2.1843   -4.7709    0.0017 C.ar    1  UNL1       -0.0611
     16 C          -3.4274   -4.1879    0.1221 C.ar    1  UNL1       -0.0617
     17 C          -3.5685   -2.8440    0.3415 C.ar    1  UNL1       -0.0611
     18 C          -2.4677   -2.0491    0.4461 C.ar    1  UNL1       -0.0526
     19 C           2.7508    0.6591    0.1124 C.ar    1  UNL1       -0.0015
     20 C           3.3617    1.1957    1.2546 C.ar    1  UNL1       -0.0526
     21 C           4.3062    2.2083    1.2610 C.ar    1  UNL1       -0.0611
     22 C           4.6705    2.7263    0.0398 C.ar    1  UNL1       -0.0617
     23 C           4.1069    2.2410   -1.1123 C.ar    1  UNL1       -0.0611
     24 C           3.1723    1.2318   -1.0535 C.ar    1  UNL1       -0.0526
     25 H          -3.0214    4.7938   -1.7074 H       1  UNL1        0.2545
     26 H          -4.2903    3.4565   -1.0242 H       1  UNL1        0.2545
     27 H          -3.0612    3.9041    1.4196 H       1  UNL1        0.3060
     28 H          -1.8379    1.9817   -2.0724 H       1  UNL1        0.2542
     29 H          -0.9058   -0.3764   -1.6186 H       1  UNL1        0.0603
     30 H           0.4228    0.7715   -1.6213 H       1  UNL1        0.0603
     31 H           3.0955   -1.6326    1.7194 H       1  UNL1        0.0639
     32 H           1.0897   -3.2541    1.8511 H       1  UNL1        0.0639
     33 H          -0.0939   -4.3363    0.0273 H       1  UNL1        0.0624
     34 H          -1.9707   -5.8158   -0.1711 H       1  UNL1        0.0618
     35 H          -4.2625   -4.8745    0.0292 H       1  UNL1        0.0618
     36 H          -4.5502   -2.4123    0.4319 H       1  UNL1        0.0618
     37 H          -2.5795   -1.0091    0.6190 H       1  UNL1        0.0624
     38 H           3.1009    0.8131    2.2435 H       1  UNL1        0.0624
     39 H           4.7303    2.5675    2.1833 H       1  UNL1        0.0618
     40 H           5.4070    3.5230   -0.0206 H       1  UNL1        0.0618
     41 H           4.3699    2.6246   -2.0882 H       1  UNL1        0.0618
     42 H           2.7309    0.8366   -1.9559 H       1  UNL1        0.0624
@<TRIPOS>BOND
     1     1     2    1
     2     2     3    2
     3     2     4    1
     4     4     5   am
     5     5     6    2
     6     5     7    1
     7     7     8    1
     8     8     9   ar
     9     9    10   ar
    10    10    11   ar
    11    11    12   ar
    12    12    13    1
    13    13    14   ar
    14    14    15   ar
    15    15    16   ar
    16    16    17   ar
    17    17    18   ar
    18     9    19    1
    19    19    20   ar
    20    20    21   ar
    21    21    22   ar
    22    22    23   ar
    23    23    24   ar
    24    12     8   ar
    25    18    13   ar
    26    24    19   ar
    27     1    25    1
    28     1    26    1
    29     3    27    1
    30     4    28    1
    31     7    29    1
    32     7    30    1
    33    10    31    1
    34    11    32    1
    35    14    33    1
    36    15    34    1
    37    16    35    1
    38    17    36    1
    39    18    37    1
    40    20    38    1
    41    21    39    1
    42    22    40    1
    43    23    41    1
    44    24    42    1
