
     RDKit          3D

 42 44  0  0  0  0  0  0  0  0999 V2000
   -3.3790    3.9510   -1.1677 N   0  0  0  0  0  0  0  0  0  0  0  0
   -2.5763    3.0945   -0.3315 C   0  0  0  0  0  0  0  0  0  0  0  0
   -2.4931    3.1612    0.9557 N   0  0  0  0  0  0  0  0  0  0  0  0
   -1.8254    2.1008   -1.0360 N   0  0  0  0  0  0  0  0  0  0  0  0
   -1.0293    1.2499   -0.2191 C   0  0  0  0  0  0  0  0  0  0  0  0
   -0.9119    1.2705    1.0297 O   0  0  0  0  0  0  0  0  0  0  0  0
   -0.2305    0.1958   -0.9451 C   0  0  0  0  0  0  0  0  0  0  0  0
    0.5433   -0.6220   -0.0782 N   0  0  0  0  0  0  0  0  0  0  0  0
    1.7966   -0.4081    0.3498 C   0  0  0  0  0  0  0  0  0  0  0  0
    2.1514   -1.4531    1.1784 C   0  0  0  0  0  0  0  0  0  0  0  0
    1.0668   -2.3306    1.2502 C   0  0  0  0  0  0  0  0  0  0  0  0
    0.0703   -1.7681    0.4410 C   0  0  0  0  0  0  0  0  0  0  0  0
   -1.1757   -2.5143    0.3436 C   0  0  0  0  0  0  0  0  0  0  0  0
   -1.1013   -3.8988    0.1191 C   0  0  0  0  0  0  0  0  0  0  0  0
   -2.1843   -4.7709    0.0017 C   0  0  0  0  0  0  0  0  0  0  0  0
   -3.4274   -4.1879    0.1221 C   0  0  0  0  0  0  0  0  0  0  0  0
   -3.5685   -2.8440    0.3415 C   0  0  0  0  0  0  0  0  0  0  0  0
   -2.4677   -2.0491    0.4461 C   0  0  0  0  0  0  0  0  0  0  0  0
    2.7508    0.6591    0.1124 C   0  0  0  0  0  0  0  0  0  0  0  0
    3.3617    1.1957    1.2546 C   0  0  0  0  0  0  0  0  0  0  0  0
    4.3062    2.2083    1.2610 C   0  0  0  0  0  0  0  0  0  0  0  0
    4.6705    2.7263    0.0398 C   0  0  0  0  0  0  0  0  0  0  0  0
    4.1069    2.2410   -1.1123 C   0  0  0  0  0  0  0  0  0  0  0  0
    3.1723    1.2318   -1.0535 C   0  0  0  0  0  0  0  0  0  0  0  0
   -3.0214    4.7938   -1.7074 H   0  0  0  0  0  0  0  0  0  0  0  0
   -4.2903    3.4565   -1.0242 H   0  0  0  0  0  0  0  0  0  0  0  0
   -3.0612    3.9041    1.4196 H   0  0  0  0  0  0  0  0  0  0  0  0
   -1.8379    1.9817   -2.0724 H   0  0  0  0  0  0  0  0  0  0  0  0
   -0.9058   -0.3764   -1.6186 H   0  0  0  0  0  0  0  0  0  0  0  0
    0.4228    0.7715   -1.6213 H   0  0  0  0  0  0  0  0  0  0  0  0
    3.0955   -1.6326    1.7194 H   0  0  0  0  0  0  0  0  0  0  0  0
    1.0897   -3.2541    1.8511 H   0  0  0  0  0  0  0  0  0  0  0  0
   -0.0939   -4.3363    0.0273 H   0  0  0  0  0  0  0  0  0  0  0  0
   -1.9707   -5.8158   -0.1711 H   0  0  0  0  0  0  0  0  0  0  0  0
   -4.2625   -4.8745    0.0292 H   0  0  0  0  0  0  0  0  0  0  0  0
   -4.5502   -2.4123    0.4319 H   0  0  0  0  0  0  0  0  0  0  0  0
   -2.5795   -1.0091    0.6190 H   0  0  0  0  0  0  0  0  0  0  0  0
    3.1009    0.8131    2.2435 H   0  0  0  0  0  0  0  0  0  0  0  0
    4.7303    2.5675    2.1833 H   0  0  0  0  0  0  0  0  0  0  0  0
    5.4070    3.5230   -0.0206 H   0  0  0  0  0  0  0  0  0  0  0  0
    4.3699    2.6246   -2.0882 H   0  0  0  0  0  0  0  0  0  0  0  0
    2.7309    0.8366   -1.9559 H   0  0  0  0  0  0  0  0  0  0  0  0
  1  2  1  0
  2  3  2  3
  2  4  1  0
  4  5  1  0
  5  6  2  0
  5  7  1  0
  7  8  1  0
  8  9  1  0
  9 10  2  0
 10 11  1  0
 11 12  2  0
 12 13  1  0
 13 14  2  0
 14 15  1  0
 15 16  2  0
 16 17  1  0
 17 18  2  0
  9 19  1  0
 19 20  2  0
 20 21  1  0
 21 22  2  0
 22 23  1  0
 23 24  2  0
 12  8  1  0
 18 13  1  0
 24 19  1  0
  1 25  1  0
  1 26  1  0
  3 27  1  0
  4 28  1  0
  7 29  1  0
  7 30  1  0
 10 31  1  0
 11 32  1  0
 14 33  1  0
 15 34  1  0
 16 35  1  0
 17 36  1  0
 18 37  1  0
 20 38  1  0
 21 39  1  0
 22 40  1  0
 23 41  1  0
 24 42  1  0
M  END
$$$$
