@<TRIPOS>MOLECULE
*****
 54 58 0 0 0
SMALL
GASTEIGER

@<TRIPOS>ATOM
      1 C          -5.7040    1.7546    1.1168 C.3     1  UNL1       -0.0376
      2 C          -4.9632    1.1966   -0.0439 C.ar    1  UNL1       -0.0226
      3 C          -5.6175    0.8026   -1.1912 C.ar    1  UNL1       -0.0567
      4 C          -4.9323    0.2774   -2.2870 C.ar    1  UNL1       -0.0607
      5 C          -3.5479    0.1542   -2.2032 C.ar    1  UNL1       -0.0475
      6 C          -2.8708    0.5415   -1.0657 C.ar    1  UNL1        0.0642
      7 C          -1.4060    0.4233   -0.9472 C.2     1  UNL1        0.2491
      8 O          -0.7686    1.4411   -1.3380 O.2     1  UNL1       -0.2699
      9 N          -0.7936   -0.7394   -0.4373 N.am    1  UNL1       -0.2897
     10 C          -1.6329   -1.8426   -0.0211 C.3     1  UNL1        0.0388
     11 C          -1.1363   -3.0710   -0.7870 C.3     1  UNL1        0.0635
     12 O           0.2019   -3.2199   -0.5180 O.3     1  UNL1       -0.3764
     13 C           0.9996   -2.1975   -1.0024 C.3     1  UNL1        0.0666
     14 C           0.6339   -0.8989   -0.3037 C.3     1  UNL1        0.0537
     15 C           1.4372    0.2427   -0.8303 C.3     1  UNL1       -0.0068
     16 C           2.8803   -0.0940   -0.6102 C.ar    1  UNL1       -0.0449
     17 C           3.6343   -0.7672   -1.5442 C.ar    1  UNL1       -0.0585
     18 C           4.9660   -1.0819   -1.3495 C.ar    1  UNL1       -0.0608
     19 C           5.5791   -0.7051   -0.1590 C.ar    1  UNL1       -0.0509
     20 C           4.8487   -0.0333    0.7873 C.ar    1  UNL1        0.0227
     21 C           5.4980    0.3542    2.0237 C.ar    1  UNL1        0.2018
     22 N           6.7511    0.8745    2.0525 N.ar    1  UNL1       -0.1942
     23 C           7.0322    1.1155    3.3460 C.ar    1  UNL1        0.2147
     24 O           5.9964    0.7559    4.0518 O.2     1  UNL1       -0.3411
     25 N           5.0546    0.2930    3.2864 N.ar    1  UNL1       -0.0564
     26 C           3.5292    0.2688    0.5738 C.ar    1  UNL1       -0.0477
     27 C          -3.5936    1.0533   -0.0133 C.ar    1  UNL1        0.1011
     28 N          -2.8995    1.4499    1.1517 N.ar    1  UNL1       -0.1493
     29 N          -2.8960    0.7008    2.2622 N.ar    1  UNL1       -0.1556
     30 C          -2.1787    1.2777    3.2205 C.ar    1  UNL1        0.0697
     31 C          -1.7049    2.4596    2.6758 C.ar    1  UNL1        0.0697
     32 N          -2.1786    2.5096    1.4091 N.ar    1  UNL1       -0.1556
     33 H          -4.9817    2.3188    1.7698 H       1  UNL1        0.0278
     34 H          -6.2307    1.0025    1.7051 H       1  UNL1        0.0278
     35 H          -6.3829    2.5475    0.7075 H       1  UNL1        0.0278
     36 H          -6.7005    0.8946   -1.2674 H       1  UNL1        0.0621
     37 H          -5.4670   -0.0248   -3.1762 H       1  UNL1        0.0618
     38 H          -3.0046   -0.2544   -3.0526 H       1  UNL1        0.0626
     39 H          -1.3877   -2.0480    1.0473 H       1  UNL1        0.0487
     40 H          -2.6994   -1.6630   -0.1888 H       1  UNL1        0.0487
     41 H          -1.3504   -2.9293   -1.8775 H       1  UNL1        0.0575
     42 H          -1.6532   -3.9846   -0.4290 H       1  UNL1        0.0575
     43 H           2.0408   -2.4326   -0.6784 H       1  UNL1        0.0578
     44 H           1.0004   -2.0911   -2.0865 H       1  UNL1        0.0578
     45 H           0.8991   -1.0161    0.7794 H       1  UNL1        0.0526
     46 H           1.2539    1.1464   -0.2167 H       1  UNL1        0.0332
     47 H           1.2872    0.4795   -1.8825 H       1  UNL1        0.0332
     48 H           3.1509   -1.0611   -2.4761 H       1  UNL1        0.0620
     49 H           5.5556   -1.6105   -2.0845 H       1  UNL1        0.0618
     50 H           6.6395   -0.9581   -0.0090 H       1  UNL1        0.0625
     51 H           7.9806    1.5378    3.6621 H       1  UNL1        0.1283
     52 H           2.9258    0.8069    1.3200 H       1  UNL1        0.0627
     53 H          -2.0098    0.8845    4.2242 H       1  UNL1        0.0864
     54 H          -1.0846    3.1586    3.2105 H       1  UNL1        0.0864
@<TRIPOS>BOND
     1     1     2    1
     2     2     3   ar
     3     3     4   ar
     4     4     5   ar
     5     5     6   ar
     6     6     7    1
     7     7     8    2
     8     7     9   am
     9     9    10    1
    10    10    11    1
    11    11    12    1
    12    12    13    1
    13    13    14    1
    14    14    15    1
    15    15    16    1
    16    16    17   ar
    17    17    18   ar
    18    18    19   ar
    19    19    20   ar
    20    20    21    1
    21    21    22   ar
    22    22    23   ar
    23    23    24   ar
    24    24    25   ar
    25    20    26   ar
    26     6    27   ar
    27    27    28    1
    28    28    29   ar
    29    29    30   ar
    30    30    31   ar
    31    31    32   ar
    32    27     2   ar
    33    32    28   ar
    34    14     9    1
    35    26    16   ar
    36    25    21   ar
    37     1    33    1
    38     1    34    1
    39     1    35    1
    40     3    36    1
    41     4    37    1
    42     5    38    1
    43    10    39    1
    44    10    40    1
    45    11    41    1
    46    11    42    1
    47    13    43    1
    48    13    44    1
    49    14    45    1
    50    15    46    1
    51    15    47    1
    52    17    48    1
    53    18    49    1
    54    19    50    1
    55    23    51    1
    56    26    52    1
    57    30    53    1
    58    31    54    1
