@<TRIPOS>MOLECULE
*****
 43 45 0 0 0
SMALL
GASTEIGER

@<TRIPOS>ATOM
      1 N          -5.2832   -0.7858   -2.7313 N.pl3   1  UNL1       -0.3289
      2 C          -4.9540   -0.7819   -1.3445 C.ar    1  UNL1        0.1950
      3 N          -3.8407   -0.1180   -0.9839 N.ar    1  UNL1       -0.1963
      4 C          -3.5102   -0.1027    0.3322 C.ar    1  UNL1        0.1712
      5 C          -4.3310   -0.7657    1.2207 C.ar    1  UNL1        0.1721
      6 N          -3.7785   -0.5901    2.4235 N.ar    1  UNL1       -0.2286
      7 C          -2.6635    0.1505    2.2806 C.ar    1  UNL1        0.1005
      8 N          -2.4712    0.4681    0.9933 N.ar    1  UNL1       -0.2854
      9 C          -1.4098    1.2435    0.3889 C.3     1  UNL1        0.1667
     10 O          -0.3137    0.5035    0.0155 O.3     1  UNL1       -0.3456
     11 C           0.7594    1.3896    0.0667 C.3     1  UNL1        0.1134
     12 C           2.0825    0.6809   -0.0739 C.3     1  UNL1        0.0879
     13 O           2.1485    0.0057   -1.2911 O.3     1  UNL1       -0.2837
     14 P           3.6189   -0.8027   -1.4872 P.3     1  UNL1        0.4834
     15 O           3.3566   -2.2135   -2.3545 O.3     1  UNL1       -0.3022
     16 O           4.5570    0.0525   -2.3414 O.2     1  UNL1       -0.2269
     17 O           4.3947   -1.0645   -0.0300 O.3     1  UNL1       -0.1862
     18 P           6.0491   -1.3002   -0.2022 P.3     1  UNL1        0.4808
     19 O           6.8127   -0.4222    1.0486 O.3     1  UNL1       -0.3023
     20 O           6.6263   -0.7131   -1.6668 O.3     1  UNL1       -0.3023
     21 O           6.4638   -2.7330   -0.0450 O.2     1  UNL1       -0.2271
     22 C           0.5653    1.9497    1.4599 C.3     1  UNL1        0.1135
     23 O           1.3393    3.0502    1.7323 O.3     1  UNL1       -0.3864
     24 C          -0.9259    2.3001    1.3700 C.3     1  UNL1        0.1285
     25 O          -0.9675    3.5656    0.7762 O.3     1  UNL1       -0.3847
     26 C          -5.4693   -1.4398    0.8211 C.ar    1  UNL1        0.2803
     27 O          -6.1971   -2.0383    1.6801 O.2     1  UNL1       -0.2654
     28 N          -5.7727   -1.4367   -0.5014 N.ar    1  UNL1       -0.2934
     29 H          -5.8195   -0.2510   -3.4421 H       1  UNL1        0.1451
     30 H          -4.7748   -1.6445   -3.0632 H       1  UNL1        0.1451
     31 H          -2.0256    0.4368    3.1133 H       1  UNL1        0.1030
     32 H          -1.7750    1.7720   -0.5397 H       1  UNL1        0.0866
     33 H           0.6148    2.1929   -0.6540 H       1  UNL1        0.0647
     34 H           2.2571    0.0053    0.7858 H       1  UNL1        0.0592
     35 H           2.8946    1.4351   -0.0996 H       1  UNL1        0.0592
     36 H           3.9768   -2.3420   -3.1116 H       1  UNL1        0.2220
     37 H           7.7676   -0.2775    0.8432 H       1  UNL1        0.2220
     38 H           6.9241    0.2427   -1.5497 H       1  UNL1        0.2220
     39 H           0.7071    1.1104    2.1723 H       1  UNL1        0.0647
     40 H           1.8615    2.8325    2.5607 H       1  UNL1        0.2100
     41 H          -1.4318    2.2689    2.3360 H       1  UNL1        0.0665
     42 H          -1.4349    3.5492   -0.0941 H       1  UNL1        0.2101
     43 H          -6.6277   -1.9412   -0.8138 H       1  UNL1        0.1716
@<TRIPOS>BOND
     1     1     2    1
     2     2     3   ar
     3     3     4   ar
     4     4     5   ar
     5     5     6   ar
     6     6     7   ar
     7     7     8   ar
     8     8     9    1
     9     9    10    1
    10    10    11    1
    11    11    12    1
    12    12    13    1
    13    13    14    1
    14    14    15    1
    15    14    16    2
    16    14    17    1
    17    17    18    1
    18    18    19    1
    19    18    20    1
    20    18    21    2
    21    11    22    1
    22    22    23    1
    23    22    24    1
    24    24    25    1
    25     5    26   ar
    26    26    27    2
    27    26    28   ar
    28    28     2   ar
    29     8     4   ar
    30    24     9    1
    31     1    29    1
    32     1    30    1
    33     7    31    1
    34     9    32    1
    35    11    33    1
    36    12    34    1
    37    12    35    1
    38    15    36    1
    39    19    37    1
    40    20    38    1
    41    22    39    1
    42    23    40    1
    43    24    41    1
    44    25    42    1
    45    28    43    1
