@<TRIPOS>MOLECULE
*****
 44 46 0 0 0
SMALL
GASTEIGER

@<TRIPOS>ATOM
      1 O           5.0160    2.7883   -0.8381 O.2     1  UNL1       -0.2737
      2 C           5.4995    2.0969    0.0929 C.2     1  UNL1        0.2354
      3 C           4.8820    0.8124    0.4962 C.3     1  UNL1        0.0259
      4 C           3.6594    0.4961   -0.3412 C.3     1  UNL1       -0.0447
      5 C           3.0693   -0.8225    0.1112 C.3     1  UNL1       -0.0526
      6 C           1.8445   -1.1341   -0.7316 C.3     1  UNL1       -0.0514
      7 C           1.3097   -2.4575   -0.2272 C.3     1  UNL1       -0.0334
      8 C           0.0977   -2.8148   -1.0328 C.3     1  UNL1        0.0415
      9 N          -0.8889   -1.7552   -0.8502 N.ar    1  UNL1       -0.2708
     10 C          -1.8323   -1.7129    0.1089 C.ar    1  UNL1        0.0347
     11 C          -2.5935   -0.5748   -0.0161 C.ar    1  UNL1        0.0385
     12 C          -3.7167   -0.0953    0.7791 C.ar    1  UNL1        0.0863
     13 N          -3.6779   -0.1208    2.1368 N.ar    1  UNL1       -0.2346
     14 C          -4.7046    0.3167    2.8824 C.ar    1  UNL1        0.1189
     15 N          -5.8102    0.7969    2.2877 N.ar    1  UNL1       -0.2179
     16 C          -5.9256    0.8551    0.9505 C.ar    1  UNL1        0.1419
     17 N          -6.8681    1.2661    0.0983 N.ar    1  UNL1       -0.3457
     18 C          -6.4634    1.0995   -1.1734 C.ar    1  UNL1        0.0042
     19 C          -5.1849    0.5487   -1.1301 C.ar    1  UNL1       -0.0330
     20 C          -4.8645    0.4028    0.2004 C.ar    1  UNL1        0.0447
     21 C          -2.0694    0.0831   -1.1040 C.ar    1  UNL1        0.0586
     22 N          -1.0522   -0.6597   -1.5704 N.ar    1  UNL1       -0.1790
     23 N           6.6582    2.5681    0.7607 N.am    1  UNL1       -0.1975
     24 O           7.2496    3.7540    0.4070 O.3     1  UNL1       -0.2952
     25 H           5.5676   -0.0465    0.3971 H       1  UNL1        0.0359
     26 H           4.5539    0.8578    1.5506 H       1  UNL1        0.0359
     27 H           2.8642    1.2612   -0.1972 H       1  UNL1        0.0270
     28 H           3.9359    0.3664   -1.4119 H       1  UNL1        0.0270
     29 H           3.7641   -1.6684   -0.0156 H       1  UNL1        0.0265
     30 H           2.7299   -0.7385    1.1632 H       1  UNL1        0.0265
     31 H           1.0563   -0.3469   -0.5448 H       1  UNL1        0.0266
     32 H           2.0435   -1.1231   -1.8061 H       1  UNL1        0.0266
     33 H           0.9398   -2.2470    0.8195 H       1  UNL1        0.0283
     34 H           2.0794   -3.2451   -0.2279 H       1  UNL1        0.0283
     35 H           0.3222   -2.9819   -2.1021 H       1  UNL1        0.0509
     36 H          -0.3195   -3.7479   -0.6268 H       1  UNL1        0.0509
     37 H          -2.0038   -2.4552    0.8942 H       1  UNL1        0.0833
     38 H          -4.6540    0.2879    3.9805 H       1  UNL1        0.1048
     39 H          -7.8030    1.6673    0.3351 H       1  UNL1        0.1668
     40 H          -7.0111    1.3408   -2.0865 H       1  UNL1        0.0807
     41 H          -4.5952    0.2996   -2.0043 H       1  UNL1        0.0640
     42 H          -2.3523    1.0185   -1.5668 H       1  UNL1        0.0854
     43 H           7.0580    1.9925    1.5335 H       1  UNL1        0.1822
     44 H           8.1904    3.7715    0.6757 H       1  UNL1        0.2414
@<TRIPOS>BOND
     1     1     2    2
     2     2     3    1
     3     3     4    1
     4     4     5    1
     5     5     6    1
     6     6     7    1
     7     7     8    1
     8     8     9    1
     9     9    10   ar
    10    10    11   ar
    11    11    12    1
    12    12    13   ar
    13    13    14   ar
    14    14    15   ar
    15    15    16   ar
    16    16    17   ar
    17    17    18   ar
    18    18    19   ar
    19    19    20   ar
    20    11    21   ar
    21    21    22   ar
    22     2    23   am
    23    23    24    1
    24    22     9   ar
    25    20    12   ar
    26    20    16   ar
    27     3    25    1
    28     3    26    1
    29     4    27    1
    30     4    28    1
    31     5    29    1
    32     5    30    1
    33     6    31    1
    34     6    32    1
    35     7    33    1
    36     7    34    1
    37     8    35    1
    38     8    36    1
    39    10    37    1
    40    14    38    1
    41    17    39    1
    42    18    40    1
    43    19    41    1
    44    21    42    1
    45    23    43    1
    46    24    44    1
