@<TRIPOS>MOLECULE
*****
 53 54 0 0 0
SMALL
GASTEIGER

@<TRIPOS>ATOM
      1 C          -0.2542   -2.0804   -0.2333 C.3     1  UNL1        0.1606
      2 C          -0.8624   -3.4920   -0.3688 C.3     1  UNL1        0.0859
      3 C          -2.2001   -3.4520   -0.9419 C.2     1  UNL1        0.3084
      4 O          -3.4454   -3.7875   -1.4363 O.3     1  UNL1       -0.4805
      5 O          -2.8575   -2.4525   -1.3269 O.2     1  UNL1       -0.2509
      6 O          -0.8973   -1.2356    0.5225 O.3     1  UNL1       -0.4534
      7 C          -1.4408   -0.4084    1.3369 C.2     1  UNL1        0.3324
      8 O          -0.3936   -1.0563    1.2400 O.2     1  UNL1       -0.2456
      9 C          -2.6399    0.3740    1.5112 C.2     1  UNL1        0.0231
     10 C          -3.6592    0.4377    0.7141 C.2     1  UNL1       -0.0478
     11 C          -4.6922    1.3246    1.1997 C.ar    1  UNL1       -0.0246
     12 C          -4.6963    2.0688    2.3501 C.ar    1  UNL1       -0.0511
     13 C          -5.7610    2.8708    2.6778 C.ar    1  UNL1       -0.0196
     14 C          -6.8614    2.9537    1.8593 C.ar    1  UNL1        0.1169
     15 O          -7.9798    3.7559    2.1412 O.3     1  UNL1       -0.5068
     16 C          -6.8828    2.2043    0.6785 C.ar    1  UNL1       -0.0196
     17 C          -5.7966    1.4089    0.3801 C.ar    1  UNL1       -0.0511
     18 C           0.1356   -1.5948   -1.6369 C.3     1  UNL1        0.2358
     19 O           0.9127   -0.5496   -1.7004 O.3     1  UNL1       -0.4429
     20 C           1.6320    0.5043   -1.7991 C.2     1  UNL1        0.3328
     21 O           0.7819    1.0792   -2.5219 O.2     1  UNL1       -0.2456
     22 C           2.9041    1.0692   -1.3745 C.2     1  UNL1        0.0231
     23 C           3.7865    0.4456   -0.6148 C.2     1  UNL1       -0.0478
     24 C           5.0474    1.0143   -0.1983 C.ar    1  UNL1       -0.0246
     25 C           5.9091    0.2937    0.5939 C.ar    1  UNL1       -0.0511
     26 C           7.1270    0.7680    1.0304 C.ar    1  UNL1       -0.0196
     27 C           7.5418    2.0227    0.6790 C.ar    1  UNL1        0.1169
     28 O           8.7645    2.5234    1.1063 O.3     1  UNL1       -0.5068
     29 C           6.6910    2.7600   -0.1151 C.ar    1  UNL1       -0.0196
     30 C           5.4767    2.2750   -0.5449 C.ar    1  UNL1       -0.0511
     31 C           0.7618   -2.7622   -2.3704 C.2     1  UNL1        0.3498
     32 O           1.1615   -3.9350   -2.9845 O.3     1  UNL1       -0.4780
     33 O           1.8011   -2.1496   -2.7169 O.2     1  UNL1       -0.2467
     34 H           0.7661   -2.3451    0.2100 H       1  UNL1        0.0783
     35 H          -0.8095   -3.9497    0.6429 H       1  UNL1        0.0415
     36 H          -0.1774   -4.0415   -1.0374 H       1  UNL1        0.0415
     37 H          -3.6316   -4.7463   -1.7297 H       1  UNL1        0.2951
     38 H          -2.3441    0.8075    2.4522 H       1  UNL1        0.0689
     39 H          -3.6655   -0.1258   -0.1826 H       1  UNL1        0.0626
     40 H          -3.8507    2.0089    2.9840 H       1  UNL1        0.0625
     41 H          -5.7585    3.4563    3.5883 H       1  UNL1        0.0654
     42 H          -8.3781    4.2639    1.3432 H       1  UNL1        0.2921
     43 H          -7.7566    2.2803    0.0440 H       1  UNL1        0.0654
     44 H          -5.9145    0.8667   -0.5632 H       1  UNL1        0.0625
     45 H          -0.8217   -1.4301   -2.2286 H       1  UNL1        0.0892
     46 H           3.1041    2.0706   -1.7269 H       1  UNL1        0.0689
     47 H           3.5184   -0.5529   -0.3005 H       1  UNL1        0.0626
     48 H           5.5852   -0.7184    0.8834 H       1  UNL1        0.0625
     49 H           7.7338    0.1081    1.6584 H       1  UNL1        0.0654
     50 H           9.6476    2.1158    0.7904 H       1  UNL1        0.2921
     51 H           7.0548    3.7573   -0.3761 H       1  UNL1        0.0654
     52 H           4.8660    2.9024   -1.1604 H       1  UNL1        0.0625
     53 H           1.7180   -4.6009   -2.4274 H       1  UNL1        0.2952
@<TRIPOS>BOND
     1     1     2    1
     2     2     3    1
     3     3     4    1
     4     3     5    2
     5     1     6    1
     6     6     7    1
     7     7     8    2
     8     7     9    1
     9     9    10    2
    10    10    11    1
    11    11    12   ar
    12    12    13   ar
    13    13    14   ar
    14    14    15    1
    15    14    16   ar
    16    16    17   ar
    17     1    18    1
    18    18    19    1
    19    19    20    1
    20    20    21    2
    21    20    22    1
    22    22    23    2
    23    23    24    1
    24    24    25   ar
    25    25    26   ar
    26    26    27   ar
    27    27    28    1
    28    27    29   ar
    29    29    30   ar
    30    18    31    1
    31    31    32    1
    32    31    33    2
    33    17    11   ar
    34    30    24   ar
    35     1    34    1
    36     2    35    1
    37     2    36    1
    38     4    37    1
    39     9    38    1
    40    10    39    1
    41    12    40    1
    42    13    41    1
    43    15    42    1
    44    16    43    1
    45    17    44    1
    46    18    45    1
    47    22    46    1
    48    23    47    1
    49    25    48    1
    50    26    49    1
    51    28    50    1
    52    29    51    1
    53    30    52    1
    54    32    53    1
