@<TRIPOS>MOLECULE
*****
 66 69 0 0 0
SMALL
GASTEIGER

@<TRIPOS>ATOM
      1 C          -6.4789    1.4890    2.1465 C.3     1  UNL1       -0.0649
      2 C          -5.6855    1.5568    0.8626 C.3     1  UNL1       -0.0490
      3 C          -5.8069    0.2344    0.1080 C.3     1  UNL1        0.0070
      4 C          -4.9987    0.3693   -1.1545 C.ar    1  UNL1        0.1297
      5 N          -5.4806    0.8181   -2.3135 N.ar    1  UNL1       -0.2350
      6 C          -4.5026    0.8158   -3.2337 C.ar    1  UNL1        0.0709
      7 C          -4.5835    1.2351   -4.6639 C.3     1  UNL1       -0.0200
      8 C          -3.3970    0.3413   -2.5743 C.ar    1  UNL1        0.1522
      9 N          -3.6872    0.0604   -1.2872 N.ar    1  UNL1       -0.2324
     10 N          -2.7591   -0.4088   -0.4768 N.ar    1  UNL1       -0.2742
     11 C          -1.4864   -0.6525   -0.8047 C.ar    1  UNL1        0.1606
     12 N          -1.1784   -0.3815   -2.0726 N.ar    1  UNL1       -0.1879
     13 C          -2.0934    0.0949   -2.9217 C.ar    1  UNL1        0.2994
     14 O          -1.7264    0.3298   -4.1152 O.2     1  UNL1       -0.2634
     15 C          -0.4580   -1.1656    0.0577 C.ar    1  UNL1        0.0621
     16 C          -0.5251   -1.5316    1.3711 C.ar    1  UNL1        0.1312
     17 O          -1.7383   -1.4172    2.0186 O.3     1  UNL1       -0.4915
     18 C          -1.9724   -1.7472    3.3489 C.3     1  UNL1        0.0868
     19 C          -3.4037   -1.5205    3.7888 C.3     1  UNL1       -0.0307
     20 C           0.5082   -2.0131    2.1364 C.ar    1  UNL1       -0.0174
     21 C           1.7492   -2.1564    1.5620 C.ar    1  UNL1       -0.0319
     22 C           1.9065   -1.8103    0.2382 C.ar    1  UNL1        0.1064
     23 C           0.8183   -1.3363   -0.4533 C.ar    1  UNL1       -0.0211
     24 S           3.4610   -1.9886   -0.4882 S.O2    1  UNL1        0.0610
     25 O           3.3368   -2.3283   -1.9371 O.2     1  UNL1       -0.1528
     26 O           4.2429   -3.1252    0.1574 O.2     1  UNL1       -0.1528
     27 N           4.4410   -0.5891   -0.3349 N.3     1  UNL1       -0.1741
     28 C           3.7588    0.5147   -1.0265 C.3     1  UNL1        0.0333
     29 C           4.7211    1.6657   -1.2049 C.3     1  UNL1        0.0134
     30 N           5.8423    1.5243   -0.3273 N.3     1  UNL1       -0.3001
     31 C           6.8758    0.7716   -0.9532 C.3     1  UNL1       -0.0039
     32 C           7.5282    1.5015   -2.1062 C.3     1  UNL1       -0.0524
     33 C           5.4679    1.0977    0.9911 C.3     1  UNL1        0.0134
     34 C           4.6355   -0.1657    1.0122 C.3     1  UNL1        0.0333
     35 H          -6.9476    2.4933    2.3465 H       1  UNL1        0.0230
     36 H          -5.8331    1.1683    2.9974 H       1  UNL1        0.0230
     37 H          -7.2960    0.7493    1.9891 H       1  UNL1        0.0230
     38 H          -4.6149    1.7562    1.1129 H       1  UNL1        0.0267
     39 H          -6.0885    2.3853    0.2405 H       1  UNL1        0.0267
     40 H          -5.3663   -0.5608    0.7464 H       1  UNL1        0.0344
     41 H          -6.8685    0.0450   -0.1005 H       1  UNL1        0.0344
     42 H          -3.5868    1.5183   -5.0604 H       1  UNL1        0.0293
     43 H          -5.0869    0.4483   -5.2327 H       1  UNL1        0.0293
     44 H          -5.1661    2.1827   -4.6505 H       1  UNL1        0.0293
     45 H          -3.0881   -0.5882    0.4826 H       1  UNL1        0.1890
     46 H          -1.3533   -1.0696    3.9785 H       1  UNL1        0.0694
     47 H          -1.7389   -2.8177    3.5375 H       1  UNL1        0.0694
     48 H          -3.4736   -1.9661    4.8127 H       1  UNL1        0.0262
     49 H          -4.1351   -2.0597    3.1606 H       1  UNL1        0.0262
     50 H          -3.6682   -0.4583    3.8713 H       1  UNL1        0.0262
     51 H           0.3847   -2.2813    3.1637 H       1  UNL1        0.0655
     52 H           2.5910   -2.5296    2.1209 H       1  UNL1        0.0638
     53 H           1.0311   -1.0857   -1.4974 H       1  UNL1        0.0645
     54 H           3.2746    0.1818   -1.9465 H       1  UNL1        0.0456
     55 H           2.9561    0.8634   -0.3124 H       1  UNL1        0.0456
     56 H           4.2194    2.6469   -0.9575 H       1  UNL1        0.0440
     57 H           5.0344    1.7063   -2.2668 H       1  UNL1        0.0440
     58 H           7.6765    0.4823   -0.2145 H       1  UNL1        0.0424
     59 H           6.5295   -0.2049   -1.4039 H       1  UNL1        0.0424
     60 H           6.9090    1.4370   -3.0011 H       1  UNL1        0.0242
     61 H           7.8586    2.5216   -1.8209 H       1  UNL1        0.0242
     62 H           8.4534    0.9015   -2.3457 H       1  UNL1        0.0242
     63 H           6.4050    0.9654    1.5800 H       1  UNL1        0.0440
     64 H           4.9354    1.9329    1.5127 H       1  UNL1        0.0440
     65 H           3.6433    0.0922    1.4687 H       1  UNL1        0.0456
     66 H           5.0782   -0.9387    1.6735 H       1  UNL1        0.0456
@<TRIPOS>BOND
     1     1     2    1
     2     2     3    1
     3     3     4    1
     4     4     5   ar
     5     5     6   ar
     6     6     7    1
     7     6     8   ar
     8     8     9   ar
     9     9    10   ar
    10    10    11   ar
    11    11    12   ar
    12    12    13   ar
    13    13    14    2
    14    11    15    1
    15    15    16   ar
    16    16    17    1
    17    17    18    1
    18    18    19    1
    19    16    20   ar
    20    20    21   ar
    21    21    22   ar
    22    22    23   ar
    23    22    24    1
    24    24    25    2
    25    24    26    2
    26    24    27    1
    27    27    28    1
    28    28    29    1
    29    29    30    1
    30    30    31    1
    31    31    32    1
    32    30    33    1
    33    33    34    1
    34     9     4   ar
    35    23    15   ar
    36    34    27    1
    37    13     8   ar
    38     1    35    1
    39     1    36    1
    40     1    37    1
    41     2    38    1
    42     2    39    1
    43     3    40    1
    44     3    41    1
    45     7    42    1
    46     7    43    1
    47     7    44    1
    48    10    45    1
    49    18    46    1
    50    18    47    1
    51    19    48    1
    52    19    49    1
    53    19    50    1
    54    20    51    1
    55    21    52    1
    56    23    53    1
    57    28    54    1
    58    28    55    1
    59    29    56    1
    60    29    57    1
    61    31    58    1
    62    31    59    1
    63    32    60    1
    64    32    61    1
    65    32    62    1
    66    33    63    1
    67    33    64    1
    68    34    65    1
    69    34    66    1
