
     RDKit          3D

 66 69  0  0  0  0  0  0  0  0999 V2000
   -6.4789    1.4890    2.1465 C   0  0  0  0  0  0  0  0  0  0  0  0
   -5.6855    1.5568    0.8626 C   0  0  0  0  0  0  0  0  0  0  0  0
   -5.8069    0.2344    0.1080 C   0  0  0  0  0  0  0  0  0  0  0  0
   -4.9987    0.3693   -1.1545 C   0  0  0  0  0  0  0  0  0  0  0  0
   -5.4806    0.8181   -2.3135 N   0  0  0  0  0  0  0  0  0  0  0  0
   -4.5026    0.8158   -3.2337 C   0  0  0  0  0  0  0  0  0  0  0  0
   -4.5835    1.2351   -4.6639 C   0  0  0  0  0  0  0  0  0  0  0  0
   -3.3970    0.3413   -2.5743 C   0  0  0  0  0  0  0  0  0  0  0  0
   -3.6872    0.0604   -1.2872 N   0  0  0  0  0  0  0  0  0  0  0  0
   -2.7591   -0.4088   -0.4768 N   0  0  0  0  0  0  0  0  0  0  0  0
   -1.4864   -0.6525   -0.8047 C   0  0  0  0  0  0  0  0  0  0  0  0
   -1.1784   -0.3815   -2.0726 N   0  0  0  0  0  0  0  0  0  0  0  0
   -2.0934    0.0949   -2.9217 C   0  0  0  0  0  0  0  0  0  0  0  0
   -1.7264    0.3298   -4.1152 O   0  0  0  0  0  0  0  0  0  0  0  0
   -0.4580   -1.1656    0.0577 C   0  0  0  0  0  0  0  0  0  0  0  0
   -0.5251   -1.5316    1.3711 C   0  0  0  0  0  0  0  0  0  0  0  0
   -1.7383   -1.4172    2.0186 O   0  0  0  0  0  0  0  0  0  0  0  0
   -1.9724   -1.7472    3.3489 C   0  0  0  0  0  0  0  0  0  0  0  0
   -3.4037   -1.5205    3.7888 C   0  0  0  0  0  0  0  0  0  0  0  0
    0.5082   -2.0131    2.1364 C   0  0  0  0  0  0  0  0  0  0  0  0
    1.7492   -2.1564    1.5620 C   0  0  0  0  0  0  0  0  0  0  0  0
    1.9065   -1.8103    0.2382 C   0  0  0  0  0  0  0  0  0  0  0  0
    0.8183   -1.3363   -0.4533 C   0  0  0  0  0  0  0  0  0  0  0  0
    3.4610   -1.9886   -0.4882 S   0  0  0  0  0  0  0  0  0  0  0  0
    3.3368   -2.3283   -1.9371 O   0  0  0  0  0  0  0  0  0  0  0  0
    4.2429   -3.1252    0.1574 O   0  0  0  0  0  0  0  0  0  0  0  0
    4.4410   -0.5891   -0.3349 N   0  0  0  0  0  0  0  0  0  0  0  0
    3.7588    0.5147   -1.0265 C   0  0  0  0  0  0  0  0  0  0  0  0
    4.7211    1.6657   -1.2049 C   0  0  0  0  0  0  0  0  0  0  0  0
    5.8423    1.5243   -0.3273 N   0  0  0  0  0  0  0  0  0  0  0  0
    6.8758    0.7716   -0.9532 C   0  0  0  0  0  0  0  0  0  0  0  0
    7.5282    1.5015   -2.1062 C   0  0  0  0  0  0  0  0  0  0  0  0
    5.4679    1.0977    0.9911 C   0  0  0  0  0  0  0  0  0  0  0  0
    4.6355   -0.1657    1.0122 C   0  0  0  0  0  0  0  0  0  0  0  0
   -6.9476    2.4933    2.3465 H   0  0  0  0  0  0  0  0  0  0  0  0
   -5.8331    1.1683    2.9974 H   0  0  0  0  0  0  0  0  0  0  0  0
   -7.2960    0.7493    1.9891 H   0  0  0  0  0  0  0  0  0  0  0  0
   -4.6149    1.7562    1.1129 H   0  0  0  0  0  0  0  0  0  0  0  0
   -6.0885    2.3853    0.2405 H   0  0  0  0  0  0  0  0  0  0  0  0
   -5.3663   -0.5608    0.7464 H   0  0  0  0  0  0  0  0  0  0  0  0
   -6.8685    0.0450   -0.1005 H   0  0  0  0  0  0  0  0  0  0  0  0
   -3.5868    1.5183   -5.0604 H   0  0  0  0  0  0  0  0  0  0  0  0
   -5.0869    0.4483   -5.2327 H   0  0  0  0  0  0  0  0  0  0  0  0
   -5.1661    2.1827   -4.6505 H   0  0  0  0  0  0  0  0  0  0  0  0
   -3.0881   -0.5882    0.4826 H   0  0  0  0  0  0  0  0  0  0  0  0
   -1.3533   -1.0696    3.9785 H   0  0  0  0  0  0  0  0  0  0  0  0
   -1.7389   -2.8177    3.5375 H   0  0  0  0  0  0  0  0  0  0  0  0
   -3.4736   -1.9661    4.8127 H   0  0  0  0  0  0  0  0  0  0  0  0
   -4.1351   -2.0597    3.1606 H   0  0  0  0  0  0  0  0  0  0  0  0
   -3.6682   -0.4583    3.8713 H   0  0  0  0  0  0  0  0  0  0  0  0
    0.3847   -2.2813    3.1637 H   0  0  0  0  0  0  0  0  0  0  0  0
    2.5910   -2.5296    2.1209 H   0  0  0  0  0  0  0  0  0  0  0  0
    1.0311   -1.0857   -1.4974 H   0  0  0  0  0  0  0  0  0  0  0  0
    3.2746    0.1818   -1.9465 H   0  0  0  0  0  0  0  0  0  0  0  0
    2.9561    0.8634   -0.3124 H   0  0  0  0  0  0  0  0  0  0  0  0
    4.2194    2.6469   -0.9575 H   0  0  0  0  0  0  0  0  0  0  0  0
    5.0344    1.7063   -2.2668 H   0  0  0  0  0  0  0  0  0  0  0  0
    7.6765    0.4823   -0.2145 H   0  0  0  0  0  0  0  0  0  0  0  0
    6.5295   -0.2049   -1.4039 H   0  0  0  0  0  0  0  0  0  0  0  0
    6.9090    1.4370   -3.0011 H   0  0  0  0  0  0  0  0  0  0  0  0
    7.8586    2.5216   -1.8209 H   0  0  0  0  0  0  0  0  0  0  0  0
    8.4534    0.9015   -2.3457 H   0  0  0  0  0  0  0  0  0  0  0  0
    6.4050    0.9654    1.5800 H   0  0  0  0  0  0  0  0  0  0  0  0
    4.9354    1.9329    1.5127 H   0  0  0  0  0  0  0  0  0  0  0  0
    3.6433    0.0922    1.4687 H   0  0  0  0  0  0  0  0  0  0  0  0
    5.0782   -0.9387    1.6735 H   0  0  0  0  0  0  0  0  0  0  0  0
  1  2  1  0
  2  3  1  0
  3  4  1  0
  4  5  2  0
  5  6  1  0
  6  7  1  0
  6  8  2  0
  8  9  1  0
  9 10  1  0
 10 11  1  0
 11 12  2  0
 12 13  1  0
 13 14  2  0
 11 15  1  0
 15 16  2  0
 16 17  1  0
 17 18  1  0
 18 19  1  0
 16 20  1  0
 20 21  2  0
 21 22  1  0
 22 23  2  0
 22 24  1  0
 24 25  2  0
 24 26  2  0
 24 27  1  0
 27 28  1  0
 28 29  1  0
 29 30  1  0
 30 31  1  0
 31 32  1  0
 30 33  1  0
 33 34  1  0
  9  4  1  0
 23 15  1  0
 34 27  1  0
 13  8  1  0
  1 35  1  0
  1 36  1  0
  1 37  1  0
  2 38  1  0
  2 39  1  0
  3 40  1  0
  3 41  1  0
  7 42  1  0
  7 43  1  0
  7 44  1  0
 10 45  1  0
 18 46  1  0
 18 47  1  0
 19 48  1  0
 19 49  1  0
 19 50  1  0
 20 51  1  0
 21 52  1  0
 23 53  1  0
 28 54  1  0
 28 55  1  0
 29 56  1  0
 29 57  1  0
 31 58  1  0
 31 59  1  0
 32 60  1  0
 32 61  1  0
 32 62  1  0
 33 63  1  0
 33 64  1  0
 34 65  1  0
 34 66  1  0
M  END
$$$$
