
     RDKit          3D

 43 46  0  0  0  0  0  0  0  0999 V2000
   -1.7643    4.8587   -1.1677 C   0  0  0  0  0  0  0  0  0  0  0  0
   -1.0264    3.5569   -1.0542 C   0  0  0  0  0  0  0  0  0  0  0  0
   -1.5441    2.4351   -0.4745 C   0  0  0  0  0  0  0  0  0  0  0  0
   -0.9129    1.2409   -0.3513 C   0  0  0  0  0  0  0  0  0  0  0  0
    0.3596    1.2379   -0.8820 C   0  0  0  0  0  0  0  0  0  0  0  0
    0.9435    2.3149   -1.4749 C   0  0  0  0  0  0  0  0  0  0  0  0
    0.2681    3.5123   -1.5806 C   0  0  0  0  0  0  0  0  0  0  0  0
    0.9419    0.0305   -0.7341 N   0  0  0  0  0  0  0  0  0  0  0  0
    2.2253   -0.4385   -1.1185 C   0  0  0  0  0  0  0  0  0  0  0  0
    3.3889   -0.3414   -0.2361 C   0  0  0  0  0  0  0  0  0  0  0  0
    3.2654   -1.0646    1.0820 C   0  0  0  0  0  0  0  0  0  0  0  0
    4.4805   -0.9099    1.8985 N   0  0  0  0  0  0  0  0  0  0  0  0
    0.0003   -0.7350   -0.0927 C   0  0  0  0  0  0  0  0  0  0  0  0
   -1.1126    0.0037    0.1329 C   0  0  0  0  0  0  0  0  0  0  0  0
   -2.1838   -0.5352    0.7550 C   0  0  0  0  0  0  0  0  0  0  0  0
   -2.1564   -1.8372    1.1653 C   0  0  0  0  0  0  0  0  0  0  0  0
   -3.3963   -2.2814    1.8270 C   0  0  0  0  0  0  0  0  0  0  0  0
   -3.6610   -3.3984    2.2994 O   0  0  0  0  0  0  0  0  0  0  0  0
   -4.2054   -1.0887    1.7786 N   0  0  0  0  0  0  0  0  0  0  0  0
   -3.4666   -0.0629    1.1378 C   0  0  0  0  0  0  0  0  0  0  0  0
   -4.0665    1.0175    1.0384 O   0  0  0  0  0  0  0  0  0  0  0  0
   -1.0245   -2.6228    0.9469 C   0  0  0  0  0  0  0  0  0  0  0  0
   -0.9489   -4.0344    1.3729 C   0  0  0  0  0  0  0  0  0  0  0  0
    0.0620   -2.0623    0.3114 C   0  0  0  0  0  0  0  0  0  0  0  0
   -1.0470    5.6921   -1.1497 H   0  0  0  0  0  0  0  0  0  0  0  0
   -2.4591    4.9558   -0.3044 H   0  0  0  0  0  0  0  0  0  0  0  0
   -2.4101    4.8736   -2.0703 H   0  0  0  0  0  0  0  0  0  0  0  0
   -2.5321    2.5789   -0.1083 H   0  0  0  0  0  0  0  0  0  0  0  0
    1.9367    2.3253   -1.8932 H   0  0  0  0  0  0  0  0  0  0  0  0
    0.7056    4.3825   -2.0453 H   0  0  0  0  0  0  0  0  0  0  0  0
    2.1137   -1.5025   -1.4224 H   0  0  0  0  0  0  0  0  0  0  0  0
    2.4859    0.0894   -2.0647 H   0  0  0  0  0  0  0  0  0  0  0  0
    3.8825    0.6527   -0.1505 H   0  0  0  0  0  0  0  0  0  0  0  0
    4.1903   -0.9088   -0.7753 H   0  0  0  0  0  0  0  0  0  0  0  0
    3.1703   -2.1629    0.8402 H   0  0  0  0  0  0  0  0  0  0  0  0
    2.4436   -0.7512    1.7141 H   0  0  0  0  0  0  0  0  0  0  0  0
    5.0827   -0.2287    1.3843 H   0  0  0  0  0  0  0  0  0  0  0  0
    4.9997   -1.8196    1.9687 H   0  0  0  0  0  0  0  0  0  0  0  0
   -5.1802   -1.1365    2.2012 H   0  0  0  0  0  0  0  0  0  0  0  0
   -1.4730   -4.7268    0.6841 H   0  0  0  0  0  0  0  0  0  0  0  0
    0.1324   -4.3241    1.5217 H   0  0  0  0  0  0  0  0  0  0  0  0
   -1.4385   -4.1127    2.3854 H   0  0  0  0  0  0  0  0  0  0  0  0
    0.9307   -2.6724    0.1460 H   0  0  0  0  0  0  0  0  0  0  0  0
  1  2  1  0
  2  3  2  0
  3  4  1  0
  4  5  2  0
  5  6  1  0
  6  7  2  0
  5  8  1  0
  8  9  1  0
  9 10  1  0
 10 11  1  0
 11 12  1  0
  8 13  1  0
 13 14  2  0
 14 15  1  0
 15 16  2  0
 16 17  1  0
 17 18  2  0
 17 19  1  0
 19 20  1  0
 20 21  2  0
 16 22  1  0
 22 23  1  0
 22 24  2  0
  7  2  1  0
 24 13  1  0
 14  4  1  0
 20 15  1  0
  1 25  1  0
  1 26  1  0
  1 27  1  0
  3 28  1  0
  6 29  1  0
  7 30  1  0
  9 31  1  0
  9 32  1  0
 10 33  1  0
 10 34  1  0
 11 35  1  0
 11 36  1  0
 12 37  1  0
 12 38  1  0
 19 39  1  0
 23 40  1  0
 23 41  1  0
 23 42  1  0
 24 43  1  0
M  END
$$$$
