@<TRIPOS>MOLECULE
*****
 43 46 0 0 0
SMALL
GASTEIGER

@<TRIPOS>ATOM
      1 C          -1.7643    4.8587   -1.1677 C.3     1  UNL1       -0.0397
      2 C          -1.0264    3.5569   -1.0542 C.ar    1  UNL1       -0.0497
      3 C          -1.5441    2.4351   -0.4745 C.ar    1  UNL1       -0.0491
      4 C          -0.9129    1.2409   -0.3513 C.ar    1  UNL1        0.0086
      5 C           0.3596    1.2379   -0.8820 C.ar    1  UNL1        0.0501
      6 C           0.9435    2.3149   -1.4749 C.ar    1  UNL1       -0.0373
      7 C           0.2681    3.5123   -1.5806 C.ar    1  UNL1       -0.0569
      8 N           0.9419    0.0305   -0.7341 N.ar    1  UNL1       -0.3397
      9 C           2.2253   -0.4385   -1.1185 C.3     1  UNL1        0.0250
     10 C           3.3889   -0.3414   -0.2361 C.3     1  UNL1       -0.0226
     11 C           3.2654   -1.0646    1.0820 C.3     1  UNL1       -0.0053
     12 N           4.4805   -0.9099    1.8985 N.3     1  UNL1       -0.3299
     13 C           0.0003   -0.7350   -0.0927 C.ar    1  UNL1        0.0511
     14 C          -1.1126    0.0037    0.1329 C.ar    1  UNL1        0.0205
     15 C          -2.1838   -0.5352    0.7550 C.ar    1  UNL1        0.0592
     16 C          -2.1564   -1.8372    1.1653 C.ar    1  UNL1        0.0528
     17 C          -3.3963   -2.2814    1.8270 C.2     1  UNL1        0.2515
     18 O          -3.6610   -3.3984    2.2994 O.2     1  UNL1       -0.2697
     19 N          -4.2054   -1.0887    1.7786 N.am    1  UNL1       -0.2483
     20 C          -3.4666   -0.0629    1.1378 C.2     1  UNL1        0.2519
     21 O          -4.0665    1.0175    1.0384 O.2     1  UNL1       -0.2697
     22 C          -1.0245   -2.6228    0.9469 C.ar    1  UNL1       -0.0356
     23 C          -0.9489   -4.0344    1.3729 C.3     1  UNL1       -0.0389
     24 C           0.0620   -2.0623    0.3114 C.ar    1  UNL1       -0.0339
     25 H          -1.0470    5.6921   -1.1497 H       1  UNL1        0.0278
     26 H          -2.4591    4.9558   -0.3044 H       1  UNL1        0.0278
     27 H          -2.4101    4.8736   -2.0703 H       1  UNL1        0.0278
     28 H          -2.5321    2.5789   -0.1083 H       1  UNL1        0.0627
     29 H           1.9367    2.3253   -1.8932 H       1  UNL1        0.0638
     30 H           0.7056    4.3825   -2.0453 H       1  UNL1        0.0621
     31 H           2.1137   -1.5025   -1.4224 H       1  UNL1        0.0492
     32 H           2.4859    0.0894   -2.0647 H       1  UNL1        0.0492
     33 H           3.8825    0.6527   -0.1505 H       1  UNL1        0.0295
     34 H           4.1903   -0.9088   -0.7753 H       1  UNL1        0.0295
     35 H           3.1703   -2.1629    0.8402 H       1  UNL1        0.0422
     36 H           2.4436   -0.7512    1.7141 H       1  UNL1        0.0422
     37 H           5.0827   -0.2287    1.3843 H       1  UNL1        0.1182
     38 H           4.9997   -1.8196    1.9687 H       1  UNL1        0.1182
     39 H          -5.1802   -1.1365    2.2012 H       1  UNL1        0.1581
     40 H          -1.4730   -4.7268    0.6841 H       1  UNL1        0.0278
     41 H           0.1324   -4.3241    1.5217 H       1  UNL1        0.0278
     42 H          -1.4385   -4.1127    2.3854 H       1  UNL1        0.0278
     43 H           0.9307   -2.6724    0.1460 H       1  UNL1        0.0641
@<TRIPOS>BOND
     1     1     2    1
     2     2     3   ar
     3     3     4   ar
     4     4     5   ar
     5     5     6   ar
     6     6     7   ar
     7     5     8   ar
     8     8     9    1
     9     9    10    1
    10    10    11    1
    11    11    12    1
    12     8    13   ar
    13    13    14   ar
    14    14    15   ar
    15    15    16   ar
    16    16    17    1
    17    17    18    2
    18    17    19   am
    19    19    20   am
    20    20    21    2
    21    16    22   ar
    22    22    23    1
    23    22    24   ar
    24     7     2   ar
    25    24    13   ar
    26    14     4   ar
    27    20    15    1
    28     1    25    1
    29     1    26    1
    30     1    27    1
    31     3    28    1
    32     6    29    1
    33     7    30    1
    34     9    31    1
    35     9    32    1
    36    10    33    1
    37    10    34    1
    38    11    35    1
    39    11    36    1
    40    12    37    1
    41    12    38    1
    42    19    39    1
    43    23    40    1
    44    23    41    1
    45    23    42    1
    46    24    43    1
