@<TRIPOS>MOLECULE
*****
 74 78 0 0 0
SMALL
GASTEIGER

@<TRIPOS>ATOM
      1 C           1.5344   -0.3018   -2.6290 C.3     1  UNL1        0.0788
      2 O           0.9955   -0.3355   -1.3307 O.3     1  UNL1       -0.4948
      3 C           1.7369   -0.4267   -0.1785 C.ar    1  UNL1        0.1243
      4 C           3.1121   -0.4944   -0.2087 C.ar    1  UNL1       -0.0075
      5 C           3.8933   -0.5868    0.9221 C.ar    1  UNL1        0.0417
      6 C           3.2138   -0.6083    2.1082 C.ar    1  UNL1       -0.0491
      7 C           1.8386   -0.5418    2.1624 C.ar    1  UNL1       -0.0541
      8 C           1.0613   -0.4492    1.0216 C.ar    1  UNL1       -0.0013
      9 C          -0.4136   -0.3792    1.0963 C.3     1  UNL1        0.0030
     10 C          -1.0008   -1.6857    0.7249 C.ar    1  UNL1       -0.0177
     11 C          -0.4902   -2.9165    0.3344 C.ar    1  UNL1        0.0089
     12 N          -1.4980   -3.7784    0.1132 N.ar    1  UNL1       -0.3494
     13 C          -1.3290   -5.1564   -0.3086 C.3     1  UNL1        0.0119
     14 C          -2.6625   -3.1289    0.3537 C.ar    1  UNL1        0.0492
     15 C          -2.3841   -1.8276    0.7351 C.ar    1  UNL1        0.0051
     16 C          -3.4701   -1.0181    1.0209 C.ar    1  UNL1       -0.0309
     17 C          -4.7714   -1.4470    0.9417 C.ar    1  UNL1        0.0371
     18 N          -5.8676   -0.5712    1.2467 N.am    1  UNL1       -0.2511
     19 C          -6.3431    0.1468    0.0942 C.2     1  UNL1        0.4048
     20 O          -5.7744   -0.0598   -1.0041 O.2     1  UNL1       -0.2261
     21 O          -7.3815    1.0347    0.1603 O.3     1  UNL1       -0.4469
     22 C          -7.8820    1.7645   -0.9538 C.3     1  UNL1        0.1047
     23 C          -7.8659    3.2589   -0.6563 C.3     1  UNL1       -0.0156
     24 C          -8.9816    3.3546    0.3626 C.3     1  UNL1       -0.0496
     25 C         -10.0749    2.5835   -0.3097 C.3     1  UNL1       -0.0496
     26 C          -9.3626    1.4546   -1.0172 C.3     1  UNL1       -0.0156
     27 C          -5.0273   -2.7581    0.5566 C.ar    1  UNL1       -0.0384
     28 C          -3.9594   -3.5969    0.2626 C.ar    1  UNL1       -0.0359
     29 C           5.3432   -0.6627    0.9763 C.2     1  UNL1        0.2632
     30 O           5.9397   -0.7544    2.0993 O.2     1  UNL1       -0.2686
     31 N           6.1728   -0.6412   -0.1728 N.am    1  UNL1       -0.1815
     32 S           7.8449   -0.7007   -0.4922 S.O2    1  UNL1        0.0749
     33 O           8.1026   -1.4924   -1.7541 O.2     1  UNL1       -0.1499
     34 O           8.5397   -1.4271    0.6386 O.2     1  UNL1       -0.1499
     35 C           8.4721    0.9043   -0.6831 C.ar    1  UNL1        0.1115
     36 C           9.0272    1.2641   -1.9138 C.ar    1  UNL1       -0.0348
     37 C           9.5640    2.4864   -2.2563 C.ar    1  UNL1       -0.0599
     38 C           9.5604    3.4706   -1.2923 C.ar    1  UNL1       -0.0614
     39 C           9.0285    3.1741   -0.0655 C.ar    1  UNL1       -0.0570
     40 C           8.5078    1.9359    0.2166 C.ar    1  UNL1       -0.0238
     41 C           7.9558    1.6537    1.5481 C.3     1  UNL1       -0.0378
     42 H           0.7862   -0.5962   -3.3807 H       1  UNL1        0.0660
     43 H           2.3702   -1.0537   -2.6772 H       1  UNL1        0.0660
     44 H           1.9368    0.6932   -2.8998 H       1  UNL1        0.0660
     45 H           3.6026   -0.4750   -1.1529 H       1  UNL1        0.0662
     46 H           3.7435   -0.6793    3.0585 H       1  UNL1        0.0625
     47 H           1.3464   -0.5623    3.1138 H       1  UNL1        0.0622
     48 H          -0.7140   -0.0717    2.1236 H       1  UNL1        0.0363
     49 H          -0.7652    0.3736    0.3330 H       1  UNL1        0.0363
     50 H           0.5817   -3.0381    0.2569 H       1  UNL1        0.0812
     51 H          -0.8826   -5.2081   -1.3200 H       1  UNL1        0.0456
     52 H          -0.7182   -5.7503    0.4091 H       1  UNL1        0.0456
     53 H          -2.3449   -5.6202   -0.3841 H       1  UNL1        0.0456
     54 H          -3.2646    0.0080    1.3218 H       1  UNL1        0.0643
     55 H          -6.3859   -0.3548    2.1442 H       1  UNL1        0.1582
     56 H          -7.3438    1.5409   -1.8951 H       1  UNL1        0.0734
     57 H          -8.2420    3.7649   -1.5683 H       1  UNL1        0.0301
     58 H          -6.8971    3.6134   -0.3149 H       1  UNL1        0.0301
     59 H          -8.6314    2.7929    1.2581 H       1  UNL1        0.0266
     60 H          -9.2464    4.4045    0.5937 H       1  UNL1        0.0266
     61 H         -10.8397    2.2387    0.4140 H       1  UNL1        0.0266
     62 H         -10.5794    3.2170   -1.0838 H       1  UNL1        0.0266
     63 H          -9.7273    1.3570   -2.0544 H       1  UNL1        0.0301
     64 H          -9.6291    0.5287   -0.4580 H       1  UNL1        0.0301
     65 H          -6.0680   -3.0860    0.4983 H       1  UNL1        0.0637
     66 H          -4.1633   -4.6267   -0.0399 H       1  UNL1        0.0639
     67 H           5.6053   -0.5654   -1.0690 H       1  UNL1        0.1769
     68 H           9.0533    0.5099   -2.7172 H       1  UNL1        0.0637
     69 H           9.9689    2.6589   -3.2420 H       1  UNL1        0.0618
     70 H           9.9555    4.4367   -1.4801 H       1  UNL1        0.0618
     71 H           9.0106    3.9351    0.7226 H       1  UNL1        0.0621
     72 H           8.4256    2.3853    2.2682 H       1  UNL1        0.0278
     73 H           8.2841    0.6603    1.9424 H       1  UNL1        0.0278
     74 H           6.8679    1.8288    1.6509 H       1  UNL1        0.0278
@<TRIPOS>BOND
     1     1     2    1
     2     2     3    1
     3     3     4   ar
     4     4     5   ar
     5     5     6   ar
     6     6     7   ar
     7     7     8   ar
     8     8     9    1
     9     9    10    1
    10    10    11   ar
    11    11    12   ar
    12    12    13    1
    13    12    14   ar
    14    14    15   ar
    15    15    16   ar
    16    16    17   ar
    17    17    18    1
    18    18    19   am
    19    19    20    2
    20    19    21    1
    21    21    22    1
    22    22    23    1
    23    23    24    1
    24    24    25    1
    25    25    26    1
    26    17    27   ar
    27    27    28   ar
    28     5    29    1
    29    29    30    2
    30    29    31   am
    31    31    32    1
    32    32    33    2
    33    32    34    2
    34    32    35    1
    35    35    36   ar
    36    36    37   ar
    37    37    38   ar
    38    38    39   ar
    39    39    40   ar
    40    40    41    1
    41     8     3   ar
    42    15    10   ar
    43    26    22    1
    44    40    35   ar
    45    28    14   ar
    46     1    42    1
    47     1    43    1
    48     1    44    1
    49     4    45    1
    50     6    46    1
    51     7    47    1
    52     9    48    1
    53     9    49    1
    54    11    50    1
    55    13    51    1
    56    13    52    1
    57    13    53    1
    58    16    54    1
    59    18    55    1
    60    22    56    1
    61    23    57    1
    62    23    58    1
    63    24    59    1
    64    24    60    1
    65    25    61    1
    66    25    62    1
    67    26    63    1
    68    26    64    1
    69    27    65    1
    70    28    66    1
    71    31    67    1
    72    36    68    1
    73    37    69    1
    74    38    70    1
    75    39    71    1
    76    41    72    1
    77    41    73    1
    78    41    74    1
