@<TRIPOS>MOLECULE
*****
 48 50 0 0 0
SMALL
GASTEIGER

@<TRIPOS>ATOM
      1 C           3.1609    1.1075   -2.9064 C.3     1  UNL1       -0.0390
      2 C           1.9567    0.7333   -2.0851 C.ar    1  UNL1       -0.0382
      3 C           0.6923    1.0501   -2.5213 C.ar    1  UNL1       -0.0564
      4 C          -0.4582    0.7233   -1.7928 C.ar    1  UNL1       -0.0401
      5 C          -0.2921    0.0640   -0.6053 C.ar    1  UNL1        0.0355
      6 N          -1.3480   -0.3244    0.2249 N.am    1  UNL1       -0.2692
      7 C          -2.7288   -0.1314    0.0285 C.2     1  UNL1        0.3081
      8 O          -3.0894    0.4479   -0.9906 O.2     1  UNL1       -0.2522
      9 N          -3.7126   -0.5618    0.9274 N.am    1  UNL1       -0.2692
     10 C          -5.1119   -0.4175    0.8221 C.ar    1  UNL1        0.0353
     11 C          -5.9138   -0.9383    1.8657 C.ar    1  UNL1       -0.0404
     12 C          -7.2705   -0.8456    1.8499 C.ar    1  UNL1       -0.0595
     13 C          -7.8768   -0.2192    0.7726 C.ar    1  UNL1       -0.0500
     14 C          -7.1218    0.2959   -0.2554 C.ar    1  UNL1        0.0566
     15 C          -7.7723    0.9642   -1.4042 C.3     1  UNL1        0.4175
     16 F          -8.9958    0.4101   -1.6764 F       1  UNL1       -0.1659
     17 F          -7.9855    2.2924   -1.0103 F       1  UNL1       -0.1659
     18 F          -6.9347    0.9570   -2.5038 F       1  UNL1       -0.1659
     19 C          -5.7460    0.1866   -0.2113 C.ar    1  UNL1       -0.0288
     20 C           1.0187   -0.2533   -0.1734 C.ar    1  UNL1       -0.0281
     21 C           2.1346    0.0692   -0.8901 C.ar    1  UNL1        0.0417
     22 C           3.4871   -0.2546   -0.4511 C.2     1  UNL1        0.2486
     23 O           4.1763   -0.9920   -1.2039 O.2     1  UNL1       -0.2698
     24 N           4.0427    0.2170    0.7607 N.am    1  UNL1       -0.2790
     25 C           5.3484   -0.1358    1.1160 C.ar    1  UNL1        0.0704
     26 C           6.4680    0.6034    0.7644 C.ar    1  UNL1        0.0539
     27 N           7.6899    0.1960    1.1455 N.ar    1  UNL1       -0.2212
     28 C           7.8874   -0.9192    1.8682 C.ar    1  UNL1        0.2126
     29 N           9.2179   -1.3174    2.2546 N.pl3   1  UNL1       -0.3275
     30 N           6.8168   -1.6476    2.2180 N.ar    1  UNL1       -0.2212
     31 C           5.5720   -1.2921    1.8673 C.ar    1  UNL1        0.0539
     32 H           2.8702    1.8207   -3.6980 H       1  UNL1        0.0278
     33 H           3.5366    0.1973   -3.4475 H       1  UNL1        0.0278
     34 H           3.9912    1.4640   -2.2795 H       1  UNL1        0.0278
     35 H           0.5352    1.5692   -3.4532 H       1  UNL1        0.0621
     36 H          -1.4261    0.9867   -2.1649 H       1  UNL1        0.0636
     37 H          -1.1058   -0.8376    1.1367 H       1  UNL1        0.1564
     38 H          -3.3349   -1.0594    1.7950 H       1  UNL1        0.1564
     39 H          -5.4160   -1.4341    2.7162 H       1  UNL1        0.0636
     40 H          -7.8906   -1.2413    2.6440 H       1  UNL1        0.0618
     41 H          -8.9568   -0.1221    0.7175 H       1  UNL1        0.0623
     42 H          -5.2187    0.6063   -1.0389 H       1  UNL1        0.0642
     43 H           1.1704   -0.7841    0.7807 H       1  UNL1        0.0644
     44 H           3.4778    0.8237    1.3817 H       1  UNL1        0.1552
     45 H           6.3158    1.5081    0.1790 H       1  UNL1        0.0850
     46 H           9.4159   -1.8528    3.1159 H       1  UNL1        0.1452
     47 H          10.0103   -1.0553    1.6418 H       1  UNL1        0.1452
     48 H           4.7141   -1.9100    2.1691 H       1  UNL1        0.0850
@<TRIPOS>BOND
     1     1     2    1
     2     2     3   ar
     3     3     4   ar
     4     4     5   ar
     5     5     6    1
     6     6     7   am
     7     7     8    2
     8     7     9   am
     9     9    10    1
    10    10    11   ar
    11    11    12   ar
    12    12    13   ar
    13    13    14   ar
    14    14    15    1
    15    15    16    1
    16    15    17    1
    17    15    18    1
    18    14    19   ar
    19     5    20   ar
    20    20    21   ar
    21    21    22    1
    22    22    23    2
    23    22    24   am
    24    24    25    1
    25    25    26   ar
    26    26    27   ar
    27    27    28   ar
    28    28    29    1
    29    28    30   ar
    30    30    31   ar
    31    21     2   ar
    32    31    25   ar
    33    19    10   ar
    34     1    32    1
    35     1    33    1
    36     1    34    1
    37     3    35    1
    38     4    36    1
    39     6    37    1
    40     9    38    1
    41    11    39    1
    42    12    40    1
    43    13    41    1
    44    19    42    1
    45    20    43    1
    46    24    44    1
    47    26    45    1
    48    29    46    1
    49    29    47    1
    50    31    48    1
