
     RDKit          3D

 42 44  0  0  0  0  0  0  0  0999 V2000
   -7.8345    0.2722    0.6605 C   0  0  0  0  0  0  0  0  0  0  0  0
   -7.4482    1.3707   -0.3165 C   0  0  0  0  0  0  0  0  0  0  0  0
   -6.1234    1.0835   -0.8285 N   0  0  0  0  0  0  0  0  0  0  0  0
   -4.9852    0.9826    0.0253 C   0  0  0  0  0  0  0  0  0  0  0  0
   -5.1648    1.1511    1.2444 O   0  0  0  0  0  0  0  0  0  0  0  0
   -3.6921    0.7049   -0.4524 N   0  0  0  0  0  0  0  0  0  0  0  0
   -2.5048    0.5838    0.2961 C   0  0  0  0  0  0  0  0  0  0  0  0
   -2.4037    0.7194    1.6528 C   0  0  0  0  0  0  0  0  0  0  0  0
   -1.1827    0.5849    2.3345 C   0  0  0  0  0  0  0  0  0  0  0  0
   -0.0493    0.3068    1.6102 C   0  0  0  0  0  0  0  0  0  0  0  0
    1.1551    0.1630    2.1855 N   0  0  0  0  0  0  0  0  0  0  0  0
    2.2758   -0.1145    1.4470 C   0  0  0  0  0  0  0  0  0  0  0  0
    2.1718   -0.2502    0.0852 C   0  0  0  0  0  0  0  0  0  0  0  0
    3.3553   -0.5498   -0.7513 C   0  0  0  0  0  0  0  0  0  0  0  0
    3.1678   -0.6709   -2.1117 C   0  0  0  0  0  0  0  0  0  0  0  0
    4.2195   -0.9470   -2.9408 C   0  0  0  0  0  0  0  0  0  0  0  0
    5.4976   -1.1144   -2.4603 C   0  0  0  0  0  0  0  0  0  0  0  0
    6.5622   -1.3942   -3.3032 O   0  0  0  0  0  0  0  0  0  0  0  0
    5.6759   -0.9918   -1.1011 C   0  0  0  0  0  0  0  0  0  0  0  0
    6.9314   -1.1466   -0.5444 O   0  0  0  0  0  0  0  0  0  0  0  0
    7.1473   -1.0276    0.8419 C   0  0  0  0  0  0  0  0  0  0  0  0
    4.6123   -0.7109   -0.2472 C   0  0  0  0  0  0  0  0  0  0  0  0
    0.9625   -0.1043   -0.4785 N   0  0  0  0  0  0  0  0  0  0  0  0
   -0.1620    0.1722    0.2452 C   0  0  0  0  0  0  0  0  0  0  0  0
   -1.3427    0.3095   -0.3508 N   0  0  0  0  0  0  0  0  0  0  0  0
   -7.3043   -0.6781    0.4439 H   0  0  0  0  0  0  0  0  0  0  0  0
   -8.9187    0.0443    0.5819 H   0  0  0  0  0  0  0  0  0  0  0  0
   -7.5875    0.5376    1.7083 H   0  0  0  0  0  0  0  0  0  0  0  0
   -8.1820    1.5211   -1.1126 H   0  0  0  0  0  0  0  0  0  0  0  0
   -7.3257    2.2954    0.3202 H   0  0  0  0  0  0  0  0  0  0  0  0
   -6.0132    0.9489   -1.8535 H   0  0  0  0  0  0  0  0  0  0  0  0
   -3.6366    0.5759   -1.5120 H   0  0  0  0  0  0  0  0  0  0  0  0
   -3.2629    0.9371    2.2623 H   0  0  0  0  0  0  0  0  0  0  0  0
   -1.1216    0.6949    3.4027 H   0  0  0  0  0  0  0  0  0  0  0  0
    3.2206   -0.2225    1.9407 H   0  0  0  0  0  0  0  0  0  0  0  0
    2.1883   -0.5480   -2.5270 H   0  0  0  0  0  0  0  0  0  0  0  0
    4.0726   -1.0428   -4.0147 H   0  0  0  0  0  0  0  0  0  0  0  0
    6.7190   -0.8753   -4.1424 H   0  0  0  0  0  0  0  0  0  0  0  0
    6.9020    0.0155    1.1348 H   0  0  0  0  0  0  0  0  0  0  0  0
    6.4416   -1.7021    1.3718 H   0  0  0  0  0  0  0  0  0  0  0  0
    8.1769   -1.2604    1.1396 H   0  0  0  0  0  0  0  0  0  0  0  0
    4.7905   -0.6238    0.7978 H   0  0  0  0  0  0  0  0  0  0  0  0
  1  2  1  0
  2  3  1  0
  3  4  1  0
  4  5  2  0
  4  6  1  0
  6  7  1  0
  7  8  2  0
  8  9  1  0
  9 10  2  0
 10 11  1  0
 11 12  2  0
 12 13  1  0
 13 14  1  0
 14 15  2  0
 15 16  1  0
 16 17  2  0
 17 18  1  0
 17 19  1  0
 19 20  1  0
 20 21  1  0
 19 22  2  0
 13 23  2  0
 23 24  1  0
 24 25  2  0
 25  7  1  0
 24 10  1  0
 22 14  1  0
  1 26  1  0
  1 27  1  0
  1 28  1  0
  2 29  1  0
  2 30  1  0
  3 31  1  0
  6 32  1  0
  8 33  1  0
  9 34  1  0
 12 35  1  0
 15 36  1  0
 16 37  1  0
 18 38  1  0
 21 39  1  0
 21 40  1  0
 21 41  1  0
 22 42  1  0
M  END
$$$$
