@<TRIPOS>MOLECULE
*****
 42 44 0 0 0
SMALL
GASTEIGER

@<TRIPOS>ATOM
      1 C          -7.8345    0.2722    0.6605 C.3     1  UNL1       -0.0495
      2 C          -7.4482    1.3707   -0.3165 C.3     1  UNL1        0.0102
      3 N          -6.1234    1.0835   -0.8285 N.am    1  UNL1       -0.2994
      4 C          -4.9852    0.9826    0.0253 C.2     1  UNL1        0.3049
      5 O          -5.1648    1.1511    1.2444 O.2     1  UNL1       -0.2525
      6 N          -3.6921    0.7049   -0.4524 N.am    1  UNL1       -0.2541
      7 C          -2.5048    0.5838    0.2961 C.ar    1  UNL1        0.1286
      8 C          -2.4037    0.7194    1.6528 C.ar    1  UNL1       -0.0193
      9 C          -1.1827    0.5849    2.3345 C.ar    1  UNL1       -0.0294
     10 C          -0.0493    0.3068    1.6102 C.ar    1  UNL1        0.1081
     11 N           1.1551    0.1630    2.1855 N.ar    1  UNL1       -0.2497
     12 C           2.2758   -0.1145    1.4470 C.ar    1  UNL1        0.0544
     13 C           2.1718   -0.2502    0.0852 C.ar    1  UNL1        0.0916
     14 C           3.3553   -0.5498   -0.7513 C.ar    1  UNL1        0.0056
     15 C           3.1678   -0.6709   -2.1117 C.ar    1  UNL1       -0.0488
     16 C           4.2195   -0.9470   -2.9408 C.ar    1  UNL1       -0.0159
     17 C           5.4976   -1.1144   -2.4603 C.ar    1  UNL1        0.1585
     18 O           6.5622   -1.3942   -3.3032 O.3     1  UNL1       -0.5033
     19 C           5.6759   -0.9918   -1.1011 C.ar    1  UNL1        0.1619
     20 O           6.9314   -1.1466   -0.5444 O.3     1  UNL1       -0.4914
     21 C           7.1473   -1.0276    0.8419 C.3     1  UNL1        0.0790
     22 C           4.6123   -0.7109   -0.2472 C.ar    1  UNL1       -0.0071
     23 N           0.9625   -0.1043   -0.4785 N.ar    1  UNL1       -0.2244
     24 C          -0.1620    0.1722    0.2452 C.ar    1  UNL1        0.1807
     25 N          -1.3427    0.3095   -0.3508 N.ar    1  UNL1       -0.2108
     26 H          -7.3043   -0.6781    0.4439 H       1  UNL1        0.0245
     27 H          -8.9187    0.0443    0.5819 H       1  UNL1        0.0245
     28 H          -7.5875    0.5376    1.7083 H       1  UNL1        0.0245
     29 H          -8.1820    1.5211   -1.1126 H       1  UNL1        0.0460
     30 H          -7.3257    2.2954    0.3202 H       1  UNL1        0.0460
     31 H          -6.0132    0.9489   -1.8535 H       1  UNL1        0.1502
     32 H          -3.6366    0.5759   -1.5120 H       1  UNL1        0.1578
     33 H          -3.2629    0.9371    2.2623 H       1  UNL1        0.0653
     34 H          -1.1216    0.6949    3.4027 H       1  UNL1        0.0641
     35 H           3.2206   -0.2225    1.9407 H       1  UNL1        0.0851
     36 H           2.1883   -0.5480   -2.5270 H       1  UNL1        0.0625
     37 H           4.0726   -1.0428   -4.0147 H       1  UNL1        0.0655
     38 H           6.7190   -0.8753   -4.1424 H       1  UNL1        0.2923
     39 H           6.9020    0.0155    1.1348 H       1  UNL1        0.0660
     40 H           6.4416   -1.7021    1.3718 H       1  UNL1        0.0660
     41 H           8.1769   -1.2604    1.1396 H       1  UNL1        0.0660
     42 H           4.7905   -0.6238    0.7978 H       1  UNL1        0.0662
@<TRIPOS>BOND
     1     1     2    1
     2     2     3    1
     3     3     4   am
     4     4     5    2
     5     4     6   am
     6     6     7    1
     7     7     8   ar
     8     8     9   ar
     9     9    10   ar
    10    10    11   ar
    11    11    12   ar
    12    12    13   ar
    13    13    14    1
    14    14    15   ar
    15    15    16   ar
    16    16    17   ar
    17    17    18    1
    18    17    19   ar
    19    19    20    1
    20    20    21    1
    21    19    22   ar
    22    13    23   ar
    23    23    24   ar
    24    24    25   ar
    25    25     7   ar
    26    24    10   ar
    27    22    14   ar
    28     1    26    1
    29     1    27    1
    30     1    28    1
    31     2    29    1
    32     2    30    1
    33     3    31    1
    34     6    32    1
    35     8    33    1
    36     9    34    1
    37    12    35    1
    38    15    36    1
    39    16    37    1
    40    18    38    1
    41    21    39    1
    42    21    40    1
    43    21    41    1
    44    22    42    1
