@<TRIPOS>MOLECULE
*****
 43 42 0 0 0
SMALL
GASTEIGER

@<TRIPOS>ATOM
      1 C           3.2008   -1.5437   -1.5780 C.3     1  UNL1       -0.0653
      2 C           2.3101   -0.3124   -1.4778 C.3     1  UNL1       -0.0559
      3 C           3.1763    0.8407   -1.0750 C.3     1  UNL1       -0.0533
      4 C           3.8298    0.5706    0.2395 C.3     1  UNL1       -0.0531
      5 C           2.8258    0.3712    1.3299 C.3     1  UNL1       -0.0531
      6 C           1.9585    1.5737    1.5404 C.3     1  UNL1       -0.0531
      7 C           0.9942    1.3338    2.6639 C.3     1  UNL1       -0.0531
      8 C           0.0439    0.1932    2.4550 C.3     1  UNL1       -0.0530
      9 C          -0.7884    0.4810    1.2284 C.3     1  UNL1       -0.0525
     10 C          -1.7828   -0.5894    0.8972 C.3     1  UNL1       -0.0421
     11 C          -2.5091   -0.1084   -0.3578 C.3     1  UNL1        0.0496
     12 P          -3.7582   -1.3247   -0.8769 P.3     1  UNL1        0.3301
     13 O          -3.0115   -2.6438   -1.5910 O.3     1  UNL1       -0.3239
     14 O          -4.5363   -1.7324    0.3632 O.2     1  UNL1       -0.2587
     15 O          -4.7927   -0.5151   -1.9537 O.3     1  UNL1       -0.3113
     16 C          -5.7319    0.1717   -1.2007 C.3     1  UNL1        0.0457
     17 H           4.2214   -1.2091   -1.8236 H       1  UNL1        0.0230
     18 H           3.1537   -2.0787   -0.6080 H       1  UNL1        0.0230
     19 H           2.7995   -2.2048   -2.4001 H       1  UNL1        0.0230
     20 H           1.4830   -0.5281   -0.8070 H       1  UNL1        0.0263
     21 H           1.8868   -0.1309   -2.5056 H       1  UNL1        0.0263
     22 H           2.5635    1.7691   -1.0095 H       1  UNL1        0.0265
     23 H           3.9516    1.0356   -1.8694 H       1  UNL1        0.0265
     24 H           4.5143   -0.3137    0.1415 H       1  UNL1        0.0265
     25 H           4.4414    1.4734    0.4905 H       1  UNL1        0.0265
     26 H           3.3452    0.0993    2.2980 H       1  UNL1        0.0265
     27 H           2.1769   -0.4996    1.0610 H       1  UNL1        0.0265
     28 H           1.4408    1.9008    0.6171 H       1  UNL1        0.0265
     29 H           2.5897    2.4585    1.8326 H       1  UNL1        0.0265
     30 H           1.5622    1.2475    3.6101 H       1  UNL1        0.0265
     31 H           0.3978    2.2851    2.7834 H       1  UNL1        0.0265
     32 H           0.5961   -0.7377    2.2877 H       1  UNL1        0.0265
     33 H          -0.5919    0.0931    3.3614 H       1  UNL1        0.0265
     34 H          -1.4088    1.4081    1.4238 H       1  UNL1        0.0265
     35 H          -0.1879    0.7081    0.3336 H       1  UNL1        0.0265
     36 H          -1.2988   -1.5602    0.6758 H       1  UNL1        0.0271
     37 H          -2.5299   -0.7572    1.6816 H       1  UNL1        0.0271
     38 H          -1.8201    0.0536   -1.1896 H       1  UNL1        0.0387
     39 H          -3.0767    0.8218   -0.1513 H       1  UNL1        0.0387
     40 H          -3.6370   -3.1082   -2.1932 H       1  UNL1        0.2198
     41 H          -5.2268    0.7656   -0.4103 H       1  UNL1        0.0529
     42 H          -6.3527    0.8371   -1.8415 H       1  UNL1        0.0529
     43 H          -6.4217   -0.5945   -0.7511 H       1  UNL1        0.0529
@<TRIPOS>BOND
     1     1     2    1
     2     2     3    1
     3     3     4    1
     4     4     5    1
     5     5     6    1
     6     6     7    1
     7     7     8    1
     8     8     9    1
     9     9    10    1
    10    10    11    1
    11    11    12    1
    12    12    13    1
    13    12    14    2
    14    12    15    1
    15    15    16    1
    16     1    17    1
    17     1    18    1
    18     1    19    1
    19     2    20    1
    20     2    21    1
    21     3    22    1
    22     3    23    1
    23     4    24    1
    24     4    25    1
    25     5    26    1
    26     5    27    1
    27     6    28    1
    28     6    29    1
    29     7    30    1
    30     7    31    1
    31     8    32    1
    32     8    33    1
    33     9    34    1
    34     9    35    1
    35    10    36    1
    36    10    37    1
    37    11    38    1
    38    11    39    1
    39    13    40    1
    40    16    41    1
    41    16    42    1
    42    16    43    1
