
     RDKit          3D

 71 76  0  0  0  0  0  0  0  0999 V2000
   -7.0281    4.0821   -0.3667 C   0  0  0  0  0  0  0  0  0  0  0  0
   -5.7965    3.3466   -0.4051 N   0  0  0  0  0  0  0  0  0  0  0  0
   -4.8523    3.5815   -1.4602 C   0  0  0  0  0  0  0  0  0  0  0  0
   -5.5205    2.4023    0.6216 C   0  0  0  0  0  0  0  0  0  0  0  0
   -6.3847    2.2788    1.5094 O   0  0  0  0  0  0  0  0  0  0  0  0
   -4.2564    1.6710    0.5476 C   0  0  0  0  0  0  0  0  0  0  0  0
   -3.0085    2.2723    0.8076 C   0  0  0  0  0  0  0  0  0  0  0  0
   -2.0770    1.2962    0.5864 C   0  0  0  0  0  0  0  0  0  0  0  0
   -0.6756    1.3282    0.6686 C   0  0  0  0  0  0  0  0  0  0  0  0
   -0.0343    0.1977    0.3613 N   0  0  0  0  0  0  0  0  0  0  0  0
   -0.6414   -0.9558   -0.0154 C   0  0  0  0  0  0  0  0  0  0  0  0
    0.1921   -2.0865   -0.3671 N   0  0  0  0  0  0  0  0  0  0  0  0
    1.5848   -1.8446   -0.4491 C   0  0  0  0  0  0  0  0  0  0  0  0
    2.5605   -2.7456   -0.7403 C   0  0  0  0  0  0  0  0  0  0  0  0
    3.9168   -2.4203   -0.8401 C   0  0  0  0  0  0  0  0  0  0  0  0
    4.3128   -1.1178   -0.6344 C   0  0  0  0  0  0  0  0  0  0  0  0
    5.6650   -0.6938   -0.6978 N   0  0  0  0  0  0  0  0  0  0  0  0
    5.9125    0.6700   -1.1167 C   0  0  0  0  0  0  0  0  0  0  0  0
    7.0691    1.2326   -0.3436 C   0  0  1  0  0  0  0  0  0  0  0  0
    7.2099    0.6842    1.0417 C   0  0  0  0  0  0  0  0  0  0  0  0
    8.5764    0.0022    1.0980 C   0  0  0  0  0  0  0  0  0  0  0  0
    8.8170   -0.2928   -0.3625 C   0  0  1  0  0  0  0  0  0  0  0  0
    8.1568   -1.5869   -0.7250 C   0  0  0  0  0  0  0  0  0  0  0  0
    6.7022   -1.6239   -0.4015 C   0  0  0  0  0  0  0  0  0  0  0  0
    6.3480   -2.6399    0.2353 O   0  0  0  0  0  0  0  0  0  0  0  0
    8.2851    0.8562   -1.0710 N   0  0  0  0  0  0  0  0  0  0  0  0
    3.2955   -0.2001   -0.3310 C   0  0  0  0  0  0  0  0  0  0  0  0
    2.0000   -0.5744   -0.2491 N   0  0  0  0  0  0  0  0  0  0  0  0
   -1.9743   -0.9548   -0.0817 N   0  0  0  0  0  0  0  0  0  0  0  0
   -2.7058    0.1443    0.2105 C   0  0  0  0  0  0  0  0  0  0  0  0
   -4.0682    0.4062    0.1950 N   0  0  0  0  0  0  0  0  0  0  0  0
   -4.9688   -0.6281   -0.1613 C   0  0  0  0  0  0  0  0  0  0  0  0
   -6.3737   -0.5572    0.2718 C   0  0  0  0  0  0  0  0  0  0  0  0
   -6.5767   -0.8489    1.7501 C   0  0  0  0  0  0  0  0  0  0  0  0
   -6.2612   -2.3142    1.9582 C   0  0  0  0  0  0  0  0  0  0  0  0
   -5.4804   -2.8973    0.8214 C   0  0  0  0  0  0  0  0  0  0  0  0
   -4.4100   -1.9519    0.3903 C   0  0  0  0  0  0  0  0  0  0  0  0
   -7.8668    3.3881   -0.4380 H   0  0  0  0  0  0  0  0  0  0  0  0
   -7.0449    4.9151   -1.1029 H   0  0  0  0  0  0  0  0  0  0  0  0
   -7.0757    4.5335    0.6662 H   0  0  0  0  0  0  0  0  0  0  0  0
   -3.7909    3.6887   -1.0826 H   0  0  0  0  0  0  0  0  0  0  0  0
   -4.9307    2.8340   -2.2707 H   0  0  0  0  0  0  0  0  0  0  0  0
   -5.0228    4.5855   -1.9562 H   0  0  0  0  0  0  0  0  0  0  0  0
   -2.8585    3.2756    1.1096 H   0  0  0  0  0  0  0  0  0  0  0  0
   -0.2041    2.2384    0.9676 H   0  0  0  0  0  0  0  0  0  0  0  0
   -0.1653   -3.0278   -0.5562 H   0  0  0  0  0  0  0  0  0  0  0  0
    2.2506   -3.7659   -0.9028 H   0  0  0  0  0  0  0  0  0  0  0  0
    4.6476   -3.1708   -1.0850 H   0  0  0  0  0  0  0  0  0  0  0  0
    5.0514    1.3221   -1.1600 H   0  0  0  0  0  0  0  0  0  0  0  0
    6.2703    0.6183   -2.2046 H   0  0  0  0  0  0  0  0  0  0  0  0
    7.0158    2.3445   -0.2488 H   0  0  0  0  0  0  0  0  0  0  0  0
    7.2195    1.4960    1.8216 H   0  0  0  0  0  0  0  0  0  0  0  0
    6.3982    0.0080    1.3604 H   0  0  0  0  0  0  0  0  0  0  0  0
    9.3330    0.7636    1.4299 H   0  0  0  0  0  0  0  0  0  0  0  0
    8.5673   -0.8947    1.7434 H   0  0  0  0  0  0  0  0  0  0  0  0
    9.8855   -0.3738   -0.6390 H   0  0  0  0  0  0  0  0  0  0  0  0
    8.3559   -1.8307   -1.8077 H   0  0  0  0  0  0  0  0  0  0  0  0
    8.6815   -2.3808   -0.1416 H   0  0  0  0  0  0  0  0  0  0  0  0
    8.0696    0.6129   -2.0589 H   0  0  0  0  0  0  0  0  0  0  0  0
    3.5878    0.8243   -0.1505 H   0  0  0  0  0  0  0  0  0  0  0  0
   -4.9981   -0.7997   -1.2884 H   0  0  0  0  0  0  0  0  0  0  0  0
   -6.9763    0.2686   -0.1194 H   0  0  0  0  0  0  0  0  0  0  0  0
   -6.8733   -1.4661   -0.2214 H   0  0  0  0  0  0  0  0  0  0  0  0
   -5.9380   -0.2156    2.4046 H   0  0  0  0  0  0  0  0  0  0  0  0
   -7.6522   -0.7063    1.9624 H   0  0  0  0  0  0  0  0  0  0  0  0
   -7.1729   -2.9019    2.1384 H   0  0  0  0  0  0  0  0  0  0  0  0
   -5.6346   -2.3947    2.8888 H   0  0  0  0  0  0  0  0  0  0  0  0
   -6.0971   -3.3047   -0.0025 H   0  0  0  0  0  0  0  0  0  0  0  0
   -4.9411   -3.8037    1.2378 H   0  0  0  0  0  0  0  0  0  0  0  0
   -3.8036   -2.4782   -0.3960 H   0  0  0  0  0  0  0  0  0  0  0  0
   -3.7971   -1.7199    1.2832 H   0  0  0  0  0  0  0  0  0  0  0  0
  1  2  1  0
  2  3  1  0
  2  4  1  0
  4  5  2  0
  4  6  1  0
  6  7  2  0
  7  8  1  0
  8  9  2  0
  9 10  1  0
 10 11  2  0
 11 12  1  0
 12 13  1  0
 13 14  2  0
 14 15  1  0
 15 16  2  0
 16 17  1  0
 17 18  1  0
 18 19  1  0
 19 20  1  0
 20 21  1  0
 21 22  1  0
 22 23  1  0
 23 24  1  0
 24 25  2  0
 22 26  1  0
 16 27  1  0
 27 28  2  0
 11 29  1  0
 29 30  2  0
 30 31  1  0
 31 32  1  0
 32 33  1  0
 33 34  1  0
 34 35  1  0
 35 36  1  0
 36 37  1  0
 31  6  1  0
 37 32  1  0
 30  8  1  0
 28 13  1  0
 24 17  1  0
 26 19  1  0
  1 38  1  0
  1 39  1  0
  1 40  1  0
  3 41  1  0
  3 42  1  0
  3 43  1  0
  7 44  1  0
  9 45  1  0
 12 46  1  0
 14 47  1  0
 15 48  1  0
 18 49  1  0
 18 50  1  0
 19 51  1  1
 20 52  1  0
 20 53  1  0
 21 54  1  0
 21 55  1  0
 22 56  1  1
 23 57  1  0
 23 58  1  0
 26 59  1  0
 27 60  1  0
 32 61  1  0
 33 62  1  0
 33 63  1  0
 34 64  1  0
 34 65  1  0
 35 66  1  0
 35 67  1  0
 36 68  1  0
 36 69  1  0
 37 70  1  0
 37 71  1  0
M  END
$$$$
