@<TRIPOS>MOLECULE
*****
 71 76 0 0 0
SMALL
GASTEIGER

@<TRIPOS>ATOM
      1 C          -7.0281    4.0821   -0.3667 C.3     1  UNL1        0.0032
      2 N          -5.7965    3.3466   -0.4051 N.am    1  UNL1       -0.3024
      3 C          -4.8523    3.5815   -1.4602 C.3     1  UNL1        0.0032
      4 C          -5.5205    2.4023    0.6216 C.2     1  UNL1        0.2627
      5 O          -6.3847    2.2788    1.5094 O.2     1  UNL1       -0.2684
      6 C          -4.2564    1.6710    0.5476 C.ar    1  UNL1        0.1070
      7 C          -3.0085    2.2723    0.8076 C.ar    1  UNL1       -0.0209
      8 C          -2.0770    1.2962    0.5864 C.ar    1  UNL1        0.0378
      9 C          -0.6756    1.3282    0.6686 C.ar    1  UNL1        0.0419
     10 N          -0.0343    0.1977    0.3613 N.ar    1  UNL1       -0.2219
     11 C          -0.6414   -0.9558   -0.0154 C.ar    1  UNL1        0.2224
     12 N           0.1921   -2.0865   -0.3671 N.pl3   1  UNL1       -0.2684
     13 C           1.5848   -1.8446   -0.4491 C.ar    1  UNL1        0.1251
     14 C           2.5605   -2.7456   -0.7403 C.ar    1  UNL1       -0.0197
     15 C           3.9168   -2.4203   -0.8401 C.ar    1  UNL1       -0.0355
     16 C           4.3128   -1.1178   -0.6344 C.ar    1  UNL1        0.0545
     17 N           5.6650   -0.6938   -0.6978 N.am    1  UNL1       -0.2685
     18 C           5.9125    0.6700   -1.1167 C.3     1  UNL1        0.0352
     19 C           7.0691    1.2326   -0.3436 C.3     1  UNL1        0.0241
     20 C           7.2099    0.6842    1.0417 C.3     1  UNL1       -0.0347
     21 C           8.5764    0.0022    1.0980 C.3     1  UNL1       -0.0356
     22 C           8.8170   -0.2928   -0.3625 C.3     1  UNL1        0.0162
     23 C           8.1568   -1.5869   -0.7250 C.3     1  UNL1        0.0399
     24 C           6.7022   -1.6239   -0.4015 C.2     1  UNL1        0.2213
     25 O           6.3480   -2.6399    0.2353 O.2     1  UNL1       -0.2752
     26 N           8.2851    0.8562   -1.0710 N.3     1  UNL1       -0.3086
     27 C           3.2955   -0.2001   -0.3310 C.ar    1  UNL1        0.0511
     28 N           2.0000   -0.5744   -0.2491 N.ar    1  UNL1       -0.2383
     29 N          -1.9743   -0.9548   -0.0817 N.ar    1  UNL1       -0.1962
     30 C          -2.7058    0.1443    0.2105 C.ar    1  UNL1        0.1466
     31 N          -4.0682    0.4062    0.1950 N.ar    1  UNL1       -0.3180
     32 C          -4.9688   -0.6281   -0.1613 C.3     1  UNL1        0.0366
     33 C          -6.3737   -0.5572    0.2718 C.3     1  UNL1       -0.0320
     34 C          -6.5767   -0.8489    1.7501 C.3     1  UNL1       -0.0512
     35 C          -6.2612   -2.3142    1.9582 C.3     1  UNL1       -0.0529
     36 C          -5.4804   -2.8973    0.8214 C.3     1  UNL1       -0.0512
     37 C          -4.4100   -1.9519    0.3903 C.3     1  UNL1       -0.0320
     38 H          -7.8668    3.3881   -0.4380 H       1  UNL1        0.0428
     39 H          -7.0449    4.9151   -1.1029 H       1  UNL1        0.0428
     40 H          -7.0757    4.5335    0.6662 H       1  UNL1        0.0428
     41 H          -3.7909    3.6887   -1.0826 H       1  UNL1        0.0428
     42 H          -4.9307    2.8340   -2.2707 H       1  UNL1        0.0428
     43 H          -5.0228    4.5855   -1.9562 H       1  UNL1        0.0428
     44 H          -2.8585    3.2756    1.1096 H       1  UNL1        0.0647
     45 H          -0.2041    2.2384    0.9676 H       1  UNL1        0.0838
     46 H          -0.1653   -3.0278   -0.5562 H       1  UNL1        0.1564
     47 H           2.2506   -3.7659   -0.9028 H       1  UNL1        0.0652
     48 H           4.6476   -3.1708   -1.0850 H       1  UNL1        0.0638
     49 H           5.0514    1.3221   -1.1600 H       1  UNL1        0.0484
     50 H           6.2703    0.6183   -2.2046 H       1  UNL1        0.0484
     51 H           7.0158    2.3445   -0.2488 H       1  UNL1        0.0476
     52 H           7.2195    1.4960    1.8216 H       1  UNL1        0.0281
     53 H           6.3982    0.0080    1.3604 H       1  UNL1        0.0281
     54 H           9.3330    0.7636    1.4299 H       1  UNL1        0.0281
     55 H           8.5673   -0.8947    1.7434 H       1  UNL1        0.0281
     56 H           9.8855   -0.3738   -0.6390 H       1  UNL1        0.0465
     57 H           8.3559   -1.8307   -1.8077 H       1  UNL1        0.0374
     58 H           8.6815   -2.3808   -0.1416 H       1  UNL1        0.0374
     59 H           8.0696    0.6129   -2.0589 H       1  UNL1        0.1225
     60 H           3.5878    0.8243   -0.1505 H       1  UNL1        0.0849
     61 H          -4.9981   -0.7997   -1.2884 H       1  UNL1        0.0528
     62 H          -6.9763    0.2686   -0.1194 H       1  UNL1        0.0285
     63 H          -6.8733   -1.4661   -0.2214 H       1  UNL1        0.0285
     64 H          -5.9380   -0.2156    2.4046 H       1  UNL1        0.0266
     65 H          -7.6522   -0.7063    1.9624 H       1  UNL1        0.0266
     66 H          -7.1729   -2.9019    2.1384 H       1  UNL1        0.0265
     67 H          -5.6346   -2.3947    2.8888 H       1  UNL1        0.0265
     68 H          -6.0971   -3.3047   -0.0025 H       1  UNL1        0.0266
     69 H          -4.9411   -3.8037    1.2378 H       1  UNL1        0.0266
     70 H          -3.8036   -2.4782   -0.3960 H       1  UNL1        0.0285
     71 H          -3.7971   -1.7199    1.2832 H       1  UNL1        0.0285
@<TRIPOS>BOND
     1     1     2    1
     2     2     3    1
     3     2     4   am
     4     4     5    2
     5     4     6    1
     6     6     7   ar
     7     7     8   ar
     8     8     9   ar
     9     9    10   ar
    10    10    11   ar
    11    11    12    1
    12    12    13    1
    13    13    14   ar
    14    14    15   ar
    15    15    16   ar
    16    16    17    1
    17    17    18    1
    18    18    19    1
    19    19    20    1
    20    20    21    1
    21    21    22    1
    22    22    23    1
    23    23    24    1
    24    24    25    2
    25    22    26    1
    26    16    27   ar
    27    27    28   ar
    28    11    29   ar
    29    29    30   ar
    30    30    31   ar
    31    31    32    1
    32    32    33    1
    33    33    34    1
    34    34    35    1
    35    35    36    1
    36    36    37    1
    37    31     6   ar
    38    37    32    1
    39    30     8   ar
    40    28    13   ar
    41    24    17   am
    42    26    19    1
    43     1    38    1
    44     1    39    1
    45     1    40    1
    46     3    41    1
    47     3    42    1
    48     3    43    1
    49     7    44    1
    50     9    45    1
    51    12    46    1
    52    14    47    1
    53    15    48    1
    54    18    49    1
    55    18    50    1
    56    19    51    1
    57    20    52    1
    58    20    53    1
    59    21    54    1
    60    21    55    1
    61    22    56    1
    62    23    57    1
    63    23    58    1
    64    26    59    1
    65    27    60    1
    66    32    61    1
    67    33    62    1
    68    33    63    1
    69    34    64    1
    70    34    65    1
    71    35    66    1
    72    35    67    1
    73    36    68    1
    74    36    69    1
    75    37    70    1
    76    37    71    1
