@<TRIPOS>MOLECULE
*****
 50 51 0 0 0
SMALL
GASTEIGER

@<TRIPOS>ATOM
      1 C           6.8984    0.2889    0.2748 C.3     1  UNL1        0.0788
      2 O           6.0866   -0.8520    0.5165 O.3     1  UNL1       -0.4951
      3 C           4.7569   -0.8005    0.0965 C.ar    1  UNL1        0.1202
      4 C           3.9347   -1.8806    0.3092 C.ar    1  UNL1       -0.0181
      5 C           2.6160   -1.8148   -0.1136 C.ar    1  UNL1       -0.0319
      6 C           2.1087   -0.6996   -0.7392 C.ar    1  UNL1        0.1057
      7 S           0.4132   -0.7586   -1.2213 S.O2    1  UNL1        0.0618
      8 O           0.3203    0.0382   -2.4954 O.2     1  UNL1       -0.1528
      9 O           0.1821   -2.1930   -1.6414 O.2     1  UNL1       -0.1528
     10 N          -0.4996   -0.2311    0.0477 N.3     1  UNL1       -0.1601
     11 C          -0.2608    1.0909    0.4657 C.3     1  UNL1        0.0478
     12 C          -1.0098    2.1680   -0.1763 C.ar    1  UNL1       -0.0136
     13 C          -2.2437    2.5677    0.2858 C.ar    1  UNL1       -0.0544
     14 C          -2.9346    3.6108   -0.3451 C.ar    1  UNL1       -0.0433
     15 C          -2.3709    4.2379   -1.4349 C.ar    1  UNL1        0.0276
     16 N          -1.1837    3.8498   -1.8750 N.ar    1  UNL1       -0.2629
     17 C          -0.5189    2.8474   -1.2692 C.ar    1  UNL1        0.0320
     18 C          -1.8429   -0.6685    0.2471 C.3     1  UNL1        0.1124
     19 C          -2.7484   -0.3109   -0.8542 C.2     1  UNL1        0.2546
     20 O          -2.3608   -0.0193   -2.0182 O.2     1  UNL1       -0.2719
     21 N          -4.1480   -0.2700   -0.6589 N.am    1  UNL1       -0.1961
     22 O          -5.0053    0.0530   -1.6647 O.3     1  UNL1       -0.2951
     23 C          -1.9239   -2.1456    0.5567 C.3     1  UNL1       -0.0209
     24 C          -3.3272   -2.6478    0.7808 C.3     1  UNL1       -0.0607
     25 C          -1.1726   -2.4556    1.8636 C.3     1  UNL1       -0.0607
     26 C           2.9152    0.3728   -0.9533 C.ar    1  UNL1       -0.0319
     27 C           4.2309    0.3111   -0.5332 C.ar    1  UNL1       -0.0181
     28 H           7.0027    0.3918   -0.8083 H       1  UNL1        0.0660
     29 H           7.8638    0.2213    0.8094 H       1  UNL1        0.0660
     30 H           6.3550    1.1640    0.7139 H       1  UNL1        0.0660
     31 H           4.3326   -2.7482    0.7969 H       1  UNL1        0.0655
     32 H           2.0104   -2.6992    0.0809 H       1  UNL1        0.0638
     33 H           0.8553    1.2925    0.3810 H       1  UNL1        0.0494
     34 H          -0.4017    1.1047    1.5941 H       1  UNL1        0.0494
     35 H          -2.7353    2.1341    1.1209 H       1  UNL1        0.0622
     36 H          -3.8997    3.9465   -0.0089 H       1  UNL1        0.0633
     37 H          -2.9235    5.0564   -1.9226 H       1  UNL1        0.0829
     38 H           0.4505    2.6082   -1.6964 H       1  UNL1        0.0833
     39 H          -2.2105   -0.1618    1.1573 H       1  UNL1        0.0579
     40 H          -4.5711   -0.4711    0.2693 H       1  UNL1        0.1822
     41 H          -5.0318    1.0556   -1.6966 H       1  UNL1        0.2414
     42 H          -1.4749   -2.8027   -0.1862 H       1  UNL1        0.0316
     43 H          -3.8096   -2.1894    1.6670 H       1  UNL1        0.0233
     44 H          -3.9460   -2.6938   -0.1233 H       1  UNL1        0.0233
     45 H          -3.2303   -3.7440    1.0870 H       1  UNL1        0.0233
     46 H          -1.1138   -1.5221    2.4355 H       1  UNL1        0.0233
     47 H          -1.6746   -3.2189    2.4540 H       1  UNL1        0.0233
     48 H          -0.1502   -2.8252    1.6381 H       1  UNL1        0.0233
     49 H           2.5036    1.2405   -1.4452 H       1  UNL1        0.0638
     50 H           4.8870    1.1720   -0.7026 H       1  UNL1        0.0655
@<TRIPOS>BOND
     1     1     2    1
     2     2     3    1
     3     3     4   ar
     4     4     5   ar
     5     5     6   ar
     6     6     7    1
     7     7     8    2
     8     7     9    2
     9     7    10    1
    10    10    11    1
    11    11    12    1
    12    12    13   ar
    13    13    14   ar
    14    14    15   ar
    15    15    16   ar
    16    16    17   ar
    17    10    18    1
    18    18    19    1
    19    19    20    2
    20    19    21   am
    21    21    22    1
    22    18    23    1
    23    23    24    1
    24    23    25    1
    25     6    26   ar
    26    26    27   ar
    27    27     3   ar
    28    17    12   ar
    29     1    28    1
    30     1    29    1
    31     1    30    1
    32     4    31    1
    33     5    32    1
    34    11    33    1
    35    11    34    1
    36    13    35    1
    37    14    36    1
    38    15    37    1
    39    17    38    1
    40    18    39    1
    41    21    40    1
    42    22    41    1
    43    23    42    1
    44    24    43    1
    45    24    44    1
    46    24    45    1
    47    25    46    1
    48    25    47    1
    49    25    48    1
    50    26    49    1
    51    27    50    1
