
     RDKit          3D

 52 56  0  0  0  0  0  0  0  0999 V2000
    0.0398    3.1669    0.9967 C   0  0  0  0  0  0  0  0  0  0  0  0
    1.2104    2.2977    0.7821 C   0  0  0  0  0  0  0  0  0  0  0  0
    2.4976    2.7930    0.7789 C   0  0  0  0  0  0  0  0  0  0  0  0
    3.5741    1.9389    0.5729 C   0  0  0  0  0  0  0  0  0  0  0  0
    3.4182    0.5840    0.3656 C   0  0  0  0  0  0  0  0  0  0  0  0
    4.5390   -0.3238    0.1481 C   0  0  0  0  0  0  0  0  0  0  0  0
    4.2797   -1.5392   -0.0300 O   0  0  0  0  0  0  0  0  0  0  0  0
    5.8960    0.0716    0.1243 N   0  0  0  0  0  0  0  0  0  0  0  0
    7.0018   -0.8379   -0.0925 C   0  0  0  0  0  0  0  0  0  0  0  0
    8.1999   -0.3124   -0.8753 C   0  0  0  0  0  0  0  0  0  0  0  0
    8.3091   -0.5887    0.5892 C   0  0  0  0  0  0  0  0  0  0  0  0
    2.1090    0.1098    0.3737 C   0  0  0  0  0  0  0  0  0  0  0  0
    1.0285    0.9405    0.5762 C   0  0  0  0  0  0  0  0  0  0  0  0
   -0.3394    0.4210    0.5808 C   0  0  0  0  0  0  0  0  0  0  0  0
   -0.9410   -0.0199    1.7329 C   0  0  0  0  0  0  0  0  0  0  0  0
   -2.2311   -0.5029    1.6997 C   0  0  0  0  0  0  0  0  0  0  0  0
   -3.1036   -1.0076    2.6451 C   0  0  0  0  0  0  0  0  0  0  0  0
   -4.2428   -1.3250    2.0274 N   0  0  0  0  0  0  0  0  0  0  0  0
   -4.1627   -1.0577    0.7432 N   0  0  0  0  0  0  0  0  0  0  0  0
   -5.2166   -1.2780   -0.2185 C   0  0  0  0  0  0  0  0  0  0  0  0
   -5.5286   -2.5510   -0.6340 C   0  0  0  0  0  0  0  0  0  0  0  0
   -4.8451   -3.6162   -0.1541 F   0  0  0  0  0  0  0  0  0  0  0  0
   -6.5246   -2.7706   -1.5311 C   0  0  0  0  0  0  0  0  0  0  0  0
   -7.2532   -1.7188   -2.0520 C   0  0  0  0  0  0  0  0  0  0  0  0
   -6.9359   -0.4413   -1.6314 C   0  0  0  0  0  0  0  0  0  0  0  0
   -5.9308   -0.2211   -0.7263 C   0  0  0  0  0  0  0  0  0  0  0  0
   -5.6487    1.0386   -0.3384 F   0  0  0  0  0  0  0  0  0  0  0  0
   -2.9391   -0.5482    0.4920 C   0  0  0  0  0  0  0  0  0  0  0  0
   -2.3016   -0.1047   -0.6013 N   0  0  0  0  0  0  0  0  0  0  0  0
   -2.9767   -0.1218   -1.8938 C   0  0  0  0  0  0  0  0  0  0  0  0
   -1.0496    0.3684   -0.5924 C   0  0  0  0  0  0  0  0  0  0  0  0
   -0.5003    0.7784   -1.6842 O   0  0  0  0  0  0  0  0  0  0  0  0
   -0.6877    2.7237    1.7237 H   0  0  0  0  0  0  0  0  0  0  0  0
   -0.5336    3.3640    0.0582 H   0  0  0  0  0  0  0  0  0  0  0  0
    0.3483    4.1409    1.4610 H   0  0  0  0  0  0  0  0  0  0  0  0
    2.6635    3.8624    0.9397 H   0  0  0  0  0  0  0  0  0  0  0  0
    4.5887    2.3500    0.5736 H   0  0  0  0  0  0  0  0  0  0  0  0
    6.1249    1.0707    0.2698 H   0  0  0  0  0  0  0  0  0  0  0  0
    6.7651   -1.9054   -0.2484 H   0  0  0  0  0  0  0  0  0  0  0  0
    8.7056   -0.9846   -1.5877 H   0  0  0  0  0  0  0  0  0  0  0  0
    8.2012    0.7445   -1.1947 H   0  0  0  0  0  0  0  0  0  0  0  0
    8.9335   -1.4690    0.8906 H   0  0  0  0  0  0  0  0  0  0  0  0
    8.3439    0.2245    1.3271 H   0  0  0  0  0  0  0  0  0  0  0  0
    1.9522   -0.9352    0.2162 H   0  0  0  0  0  0  0  0  0  0  0  0
   -0.4130    0.0058    2.6773 H   0  0  0  0  0  0  0  0  0  0  0  0
   -2.8233   -1.0947    3.6922 H   0  0  0  0  0  0  0  0  0  0  0  0
   -6.8041   -3.7688   -1.8874 H   0  0  0  0  0  0  0  0  0  0  0  0
   -8.0433   -1.9157   -2.7662 H   0  0  0  0  0  0  0  0  0  0  0  0
   -7.4956    0.3933   -2.0286 H   0  0  0  0  0  0  0  0  0  0  0  0
   -3.4817   -1.0812   -1.9935 H   0  0  0  0  0  0  0  0  0  0  0  0
   -3.5895    0.7785   -2.0650 H   0  0  0  0  0  0  0  0  0  0  0  0
   -2.1867   -0.1254   -2.7019 H   0  0  0  0  0  0  0  0  0  0  0  0
  1  2  1  0
  2  3  2  0
  3  4  1  0
  4  5  2  0
  5  6  1  0
  6  7  2  0
  6  8  1  0
  8  9  1  0
  9 10  1  0
 10 11  1  0
  5 12  1  0
 12 13  2  0
 13 14  1  0
 14 15  2  0
 15 16  1  0
 16 17  1  0
 17 18  2  0
 18 19  1  0
 19 20  1  0
 20 21  2  0
 21 22  1  0
 21 23  1  0
 23 24  2  0
 24 25  1  0
 25 26  2  0
 26 27  1  0
 19 28  1  0
 28 29  1  0
 29 30  1  0
 29 31  1  0
 31 32  2  0
 13  2  1  0
 31 14  1  0
 11  9  1  0
 28 16  2  0
 26 20  1  0
  1 33  1  0
  1 34  1  0
  1 35  1  0
  3 36  1  0
  4 37  1  0
  8 38  1  0
  9 39  1  0
 10 40  1  0
 10 41  1  0
 11 42  1  0
 11 43  1  0
 12 44  1  0
 15 45  1  0
 17 46  1  0
 23 47  1  0
 24 48  1  0
 25 49  1  0
 30 50  1  0
 30 51  1  0
 30 52  1  0
M  END
$$$$
