@<TRIPOS>MOLECULE
*****
 52 56 0 0 0
SMALL
GASTEIGER

@<TRIPOS>ATOM
      1 C           0.0398    3.1669    0.9967 C.3     1  UNL1       -0.0391
      2 C           1.2104    2.2977    0.7821 C.ar    1  UNL1       -0.0425
      3 C           2.4976    2.7930    0.7789 C.ar    1  UNL1       -0.0575
      4 C           3.5741    1.9389    0.5729 C.ar    1  UNL1       -0.0494
      5 C           3.4182    0.5840    0.3656 C.ar    1  UNL1        0.0373
      6 C           4.5390   -0.3238    0.1481 C.2     1  UNL1        0.2443
      7 O           4.2797   -1.5392   -0.0300 O.2     1  UNL1       -0.2702
      8 N           5.8960    0.0716    0.1243 N.am    1  UNL1       -0.3085
      9 C           7.0018   -0.8379   -0.0925 C.3     1  UNL1        0.0235
     10 C           8.1999   -0.3124   -0.8753 C.3     1  UNL1       -0.0328
     11 C           8.3091   -0.5887    0.5892 C.3     1  UNL1       -0.0328
     12 C           2.1090    0.1098    0.3737 C.ar    1  UNL1       -0.0415
     13 C           1.0285    0.9405    0.5762 C.ar    1  UNL1       -0.0091
     14 C          -0.3394    0.4210    0.5808 C.ar    1  UNL1        0.0476
     15 C          -0.9410   -0.0199    1.7329 C.ar    1  UNL1       -0.0367
     16 C          -2.2311   -0.5029    1.6997 C.ar    1  UNL1        0.0381
     17 C          -3.1036   -1.0076    2.6451 C.ar    1  UNL1        0.0591
     18 N          -4.2428   -1.3250    2.0274 N.ar    1  UNL1       -0.1721
     19 N          -4.1627   -1.0577    0.7432 N.ar    1  UNL1       -0.2100
     20 C          -5.2166   -1.2780   -0.2185 C.ar    1  UNL1        0.1377
     21 C          -5.5286   -2.5510   -0.6340 C.ar    1  UNL1        0.1516
     22 F          -4.8451   -3.6162   -0.1541 F       1  UNL1       -0.2032
     23 C          -6.5246   -2.7706   -1.5311 C.ar    1  UNL1       -0.0242
     24 C          -7.2532   -1.7188   -2.0520 C.ar    1  UNL1       -0.0562
     25 C          -6.9359   -0.4413   -1.6314 C.ar    1  UNL1       -0.0242
     26 C          -5.9308   -0.2211   -0.7263 C.ar    1  UNL1        0.1516
     27 F          -5.6487    1.0386   -0.3384 F       1  UNL1       -0.2032
     28 C          -2.9391   -0.5482    0.4920 C.ar    1  UNL1        0.1469
     29 N          -2.3016   -0.1047   -0.6013 N.ar    1  UNL1       -0.2953
     30 C          -2.9767   -0.1218   -1.8938 C.3     1  UNL1        0.0167
     31 C          -1.0496    0.3684   -0.5924 C.ar    1  UNL1        0.2603
     32 O          -0.5003    0.7784   -1.6842 O.2     1  UNL1       -0.2670
     33 H          -0.6877    2.7237    1.7237 H       1  UNL1        0.0278
     34 H          -0.5336    3.3640    0.0582 H       1  UNL1        0.0278
     35 H           0.3483    4.1409    1.4610 H       1  UNL1        0.0278
     36 H           2.6635    3.8624    0.9397 H       1  UNL1        0.0621
     37 H           4.5887    2.3500    0.5736 H       1  UNL1        0.0625
     38 H           6.1249    1.0707    0.2698 H       1  UNL1        0.1493
     39 H           6.7651   -1.9054   -0.2484 H       1  UNL1        0.0498
     40 H           8.7056   -0.9846   -1.5877 H       1  UNL1        0.0284
     41 H           8.2012    0.7445   -1.1947 H       1  UNL1        0.0284
     42 H           8.9335   -1.4690    0.8906 H       1  UNL1        0.0284
     43 H           8.3439    0.2245    1.3271 H       1  UNL1        0.0284
     44 H           1.9522   -0.9352    0.2162 H       1  UNL1        0.0631
     45 H          -0.4130    0.0058    2.6773 H       1  UNL1        0.0633
     46 H          -2.8233   -1.0947    3.6922 H       1  UNL1        0.0855
     47 H          -6.8041   -3.7688   -1.8874 H       1  UNL1        0.0647
     48 H          -8.0433   -1.9157   -2.7662 H       1  UNL1        0.0619
     49 H          -7.4956    0.3933   -2.0286 H       1  UNL1        0.0647
     50 H          -3.4817   -1.0812   -1.9935 H       1  UNL1        0.0457
     51 H          -3.5895    0.7785   -2.0650 H       1  UNL1        0.0457
     52 H          -2.1867   -0.1254   -2.7019 H       1  UNL1        0.0457
@<TRIPOS>BOND
     1     1     2    1
     2     2     3   ar
     3     3     4   ar
     4     4     5   ar
     5     5     6    1
     6     6     7    2
     7     6     8   am
     8     8     9    1
     9     9    10    1
    10    10    11    1
    11     5    12   ar
    12    12    13   ar
    13    13    14    1
    14    14    15   ar
    15    15    16   ar
    16    16    17   ar
    17    17    18   ar
    18    18    19   ar
    19    19    20    1
    20    20    21   ar
    21    21    22    1
    22    21    23   ar
    23    23    24   ar
    24    24    25   ar
    25    25    26   ar
    26    26    27    1
    27    19    28   ar
    28    28    29   ar
    29    29    30    1
    30    29    31   ar
    31    31    32    2
    32    13     2   ar
    33    31    14   ar
    34    11     9    1
    35    28    16   ar
    36    26    20   ar
    37     1    33    1
    38     1    34    1
    39     1    35    1
    40     3    36    1
    41     4    37    1
    42     8    38    1
    43     9    39    1
    44    10    40    1
    45    10    41    1
    46    11    42    1
    47    11    43    1
    48    12    44    1
    49    15    45    1
    50    17    46    1
    51    23    47    1
    52    24    48    1
    53    25    49    1
    54    30    50    1
    55    30    51    1
    56    30    52    1
