@<TRIPOS>MOLECULE
*****
 55 57 0 0 0
SMALL
GASTEIGER

@<TRIPOS>ATOM
      1 C          -3.7067    0.2439   -2.0096 C.3     1  UNL1       -0.0598
      2 C          -2.5649    1.2272   -1.9512 C.3     1  UNL1       -0.0124
      3 C          -2.6650    2.0187   -0.7034 C.ar    1  UNL1        0.0556
      4 N          -3.1445    3.2727   -0.7618 N.ar    1  UNL1       -0.2190
      5 C          -3.2518    4.0248    0.3580 C.ar    1  UNL1        0.2145
      6 N          -3.7731    5.3405    0.1701 N.pl3   1  UNL1       -0.3274
      7 N          -2.8674    3.4916    1.5367 N.ar    1  UNL1       -0.1995
      8 C          -2.3840    2.2273    1.5960 C.ar    1  UNL1        0.1293
      9 N          -2.0244    1.8105    2.9081 N.pl3   1  UNL1       -0.3425
     10 C          -2.2617    1.4303    0.4647 C.ar    1  UNL1        0.0431
     11 C          -1.7272    0.0942    0.6634 C.ar    1  UNL1       -0.0109
     12 C          -0.3572   -0.0222    0.5330 C.ar    1  UNL1       -0.0288
     13 C           0.2801   -1.2427    0.7100 C.ar    1  UNL1        0.0790
     14 C          -0.4476   -2.3792    1.0236 C.ar    1  UNL1        0.1433
     15 O           0.1128   -3.6535    1.2201 O.3     1  UNL1       -0.4752
     16 C           1.3667   -3.9027    0.6019 C.3     1  UNL1        0.1806
     17 C           2.0734   -5.0903    1.2105 C.3     1  UNL1       -0.0164
     18 C           1.0830   -4.1780   -0.8605 C.3     1  UNL1       -0.0164
     19 C           2.2750   -2.7275    0.7855 C.2     1  UNL1        0.2632
     20 O           3.4998   -2.7362    1.0986 O.2     1  UNL1       -0.2709
     21 N           1.6993   -1.4200    0.5848 N.am    1  UNL1       -0.2635
     22 C           2.5318   -0.3020    0.2608 C.3     1  UNL1        0.0356
     23 C           2.7085   -0.1336   -1.2507 C.3     1  UNL1        0.0278
     24 N           3.5543    0.9915   -1.5856 N.am    1  UNL1       -0.3140
     25 C           3.2838    2.3344   -1.2335 C.2     1  UNL1        0.2100
     26 C           4.2023    3.4407   -1.6124 C.3     1  UNL1        0.0121
     27 O           2.2193    2.5519   -0.5778 O.2     1  UNL1       -0.2761
     28 C          -1.8261   -2.2921    1.1612 C.ar    1  UNL1       -0.0175
     29 C          -2.4107   -1.0610    0.9761 C.ar    1  UNL1       -0.0503
     30 H          -4.5274    0.7603   -2.5940 H       1  UNL1        0.0233
     31 H          -4.1249    0.1054   -1.0029 H       1  UNL1        0.0233
     32 H          -3.4511   -0.7138   -2.5107 H       1  UNL1        0.0233
     33 H          -1.5977    0.6447   -1.9449 H       1  UNL1        0.0326
     34 H          -2.5735    1.9097   -2.8399 H       1  UNL1        0.0326
     35 H          -3.3187    6.2582    0.3593 H       1  UNL1        0.1452
     36 H          -4.7536    5.3101   -0.2142 H       1  UNL1        0.1452
     37 H          -1.0161    2.0505    2.9562 H       1  UNL1        0.1437
     38 H          -2.5387    1.3629    3.7228 H       1  UNL1        0.1437
     39 H           0.2810    0.8138    0.2904 H       1  UNL1        0.0643
     40 H           3.0416   -5.1912    0.6412 H       1  UNL1        0.0273
     41 H           1.4844   -6.0206    1.1184 H       1  UNL1        0.0273
     42 H           2.3751   -4.8666    2.2520 H       1  UNL1        0.0273
     43 H           0.2576   -4.9049   -0.9036 H       1  UNL1        0.0273
     44 H           1.9545   -4.5552   -1.4096 H       1  UNL1        0.0273
     45 H           0.7142   -3.2623   -1.3801 H       1  UNL1        0.0273
     46 H           2.2884    0.6292    0.7518 H       1  UNL1        0.0484
     47 H           3.5595   -0.5598    0.6404 H       1  UNL1        0.0484
     48 H           1.6921    0.0986   -1.6840 H       1  UNL1        0.0477
     49 H           3.0579   -1.0543   -1.7202 H       1  UNL1        0.0477
     50 H           4.4433    0.7992   -2.1354 H       1  UNL1        0.1487
     51 H           5.1724    3.3102   -1.0652 H       1  UNL1        0.0322
     52 H           4.3438    3.3534   -2.7090 H       1  UNL1        0.0322
     53 H           3.7348    4.3996   -1.3686 H       1  UNL1        0.0322
     54 H          -2.4865   -3.1015    1.3995 H       1  UNL1        0.0655
     55 H          -3.4904   -0.9350    1.0717 H       1  UNL1        0.0625
@<TRIPOS>BOND
     1     1     2    1
     2     2     3    1
     3     3     4   ar
     4     4     5   ar
     5     5     6    1
     6     5     7   ar
     7     7     8   ar
     8     8     9    1
     9     8    10   ar
    10    10    11    1
    11    11    12   ar
    12    12    13   ar
    13    13    14   ar
    14    14    15    1
    15    15    16    1
    16    16    17    1
    17    16    18    1
    18    16    19    1
    19    19    20    2
    20    19    21   am
    21    21    22    1
    22    22    23    1
    23    23    24    1
    24    24    25   am
    25    25    26    1
    26    25    27    2
    27    14    28   ar
    28    28    29   ar
    29    10     3   ar
    30    29    11   ar
    31    21    13    1
    32     1    30    1
    33     1    31    1
    34     1    32    1
    35     2    33    1
    36     2    34    1
    37     6    35    1
    38     6    36    1
    39     9    37    1
    40     9    38    1
    41    12    39    1
    42    17    40    1
    43    17    41    1
    44    17    42    1
    45    18    43    1
    46    18    44    1
    47    18    45    1
    48    22    46    1
    49    22    47    1
    50    23    48    1
    51    23    49    1
    52    24    50    1
    53    26    51    1
    54    26    52    1
    55    26    53    1
    56    28    54    1
    57    29    55    1
