
     RDKit          3D

 55 57  0  0  0  0  0  0  0  0999 V2000
   -3.7067    0.2439   -2.0096 C   0  0  0  0  0  0  0  0  0  0  0  0
   -2.5649    1.2272   -1.9512 C   0  0  0  0  0  0  0  0  0  0  0  0
   -2.6650    2.0187   -0.7034 C   0  0  0  0  0  0  0  0  0  0  0  0
   -3.1445    3.2727   -0.7618 N   0  0  0  0  0  0  0  0  0  0  0  0
   -3.2518    4.0248    0.3580 C   0  0  0  0  0  0  0  0  0  0  0  0
   -3.7731    5.3405    0.1701 N   0  0  0  0  0  0  0  0  0  0  0  0
   -2.8674    3.4916    1.5367 N   0  0  0  0  0  0  0  0  0  0  0  0
   -2.3840    2.2273    1.5960 C   0  0  0  0  0  0  0  0  0  0  0  0
   -2.0244    1.8105    2.9081 N   0  0  0  0  0  0  0  0  0  0  0  0
   -2.2617    1.4303    0.4647 C   0  0  0  0  0  0  0  0  0  0  0  0
   -1.7272    0.0942    0.6634 C   0  0  0  0  0  0  0  0  0  0  0  0
   -0.3572   -0.0222    0.5330 C   0  0  0  0  0  0  0  0  0  0  0  0
    0.2801   -1.2427    0.7100 C   0  0  0  0  0  0  0  0  0  0  0  0
   -0.4476   -2.3792    1.0236 C   0  0  0  0  0  0  0  0  0  0  0  0
    0.1128   -3.6535    1.2201 O   0  0  0  0  0  0  0  0  0  0  0  0
    1.3667   -3.9027    0.6019 C   0  0  0  0  0  0  0  0  0  0  0  0
    2.0734   -5.0903    1.2105 C   0  0  0  0  0  0  0  0  0  0  0  0
    1.0830   -4.1780   -0.8605 C   0  0  0  0  0  0  0  0  0  0  0  0
    2.2750   -2.7275    0.7855 C   0  0  0  0  0  0  0  0  0  0  0  0
    3.4998   -2.7362    1.0986 O   0  0  0  0  0  0  0  0  0  0  0  0
    1.6993   -1.4200    0.5848 N   0  0  0  0  0  0  0  0  0  0  0  0
    2.5318   -0.3020    0.2608 C   0  0  0  0  0  0  0  0  0  0  0  0
    2.7085   -0.1336   -1.2507 C   0  0  0  0  0  0  0  0  0  0  0  0
    3.5543    0.9915   -1.5856 N   0  0  0  0  0  0  0  0  0  0  0  0
    3.2838    2.3344   -1.2335 C   0  0  0  0  0  0  0  0  0  0  0  0
    4.2023    3.4407   -1.6124 C   0  0  0  0  0  0  0  0  0  0  0  0
    2.2193    2.5519   -0.5778 O   0  0  0  0  0  0  0  0  0  0  0  0
   -1.8261   -2.2921    1.1612 C   0  0  0  0  0  0  0  0  0  0  0  0
   -2.4107   -1.0610    0.9761 C   0  0  0  0  0  0  0  0  0  0  0  0
   -4.5274    0.7603   -2.5940 H   0  0  0  0  0  0  0  0  0  0  0  0
   -4.1249    0.1054   -1.0029 H   0  0  0  0  0  0  0  0  0  0  0  0
   -3.4511   -0.7138   -2.5107 H   0  0  0  0  0  0  0  0  0  0  0  0
   -1.5977    0.6447   -1.9449 H   0  0  0  0  0  0  0  0  0  0  0  0
   -2.5735    1.9097   -2.8399 H   0  0  0  0  0  0  0  0  0  0  0  0
   -3.3187    6.2582    0.3593 H   0  0  0  0  0  0  0  0  0  0  0  0
   -4.7536    5.3101   -0.2142 H   0  0  0  0  0  0  0  0  0  0  0  0
   -1.0161    2.0505    2.9562 H   0  0  0  0  0  0  0  0  0  0  0  0
   -2.5387    1.3629    3.7228 H   0  0  0  0  0  0  0  0  0  0  0  0
    0.2810    0.8138    0.2904 H   0  0  0  0  0  0  0  0  0  0  0  0
    3.0416   -5.1912    0.6412 H   0  0  0  0  0  0  0  0  0  0  0  0
    1.4844   -6.0206    1.1184 H   0  0  0  0  0  0  0  0  0  0  0  0
    2.3751   -4.8666    2.2520 H   0  0  0  0  0  0  0  0  0  0  0  0
    0.2576   -4.9049   -0.9036 H   0  0  0  0  0  0  0  0  0  0  0  0
    1.9545   -4.5552   -1.4096 H   0  0  0  0  0  0  0  0  0  0  0  0
    0.7142   -3.2623   -1.3801 H   0  0  0  0  0  0  0  0  0  0  0  0
    2.2884    0.6292    0.7518 H   0  0  0  0  0  0  0  0  0  0  0  0
    3.5595   -0.5598    0.6404 H   0  0  0  0  0  0  0  0  0  0  0  0
    1.6921    0.0986   -1.6840 H   0  0  0  0  0  0  0  0  0  0  0  0
    3.0579   -1.0543   -1.7202 H   0  0  0  0  0  0  0  0  0  0  0  0
    4.4433    0.7992   -2.1354 H   0  0  0  0  0  0  0  0  0  0  0  0
    5.1724    3.3102   -1.0652 H   0  0  0  0  0  0  0  0  0  0  0  0
    4.3438    3.3534   -2.7090 H   0  0  0  0  0  0  0  0  0  0  0  0
    3.7348    4.3996   -1.3686 H   0  0  0  0  0  0  0  0  0  0  0  0
   -2.4865   -3.1015    1.3995 H   0  0  0  0  0  0  0  0  0  0  0  0
   -3.4904   -0.9350    1.0717 H   0  0  0  0  0  0  0  0  0  0  0  0
  1  2  1  0
  2  3  1  0
  3  4  2  0
  4  5  1  0
  5  6  1  0
  5  7  2  0
  7  8  1  0
  8  9  1  0
  8 10  2  0
 10 11  1  0
 11 12  2  0
 12 13  1  0
 13 14  2  0
 14 15  1  0
 15 16  1  0
 16 17  1  0
 16 18  1  0
 16 19  1  0
 19 20  2  0
 19 21  1  0
 21 22  1  0
 22 23  1  0
 23 24  1  0
 24 25  1  0
 25 26  1  0
 25 27  2  0
 14 28  1  0
 28 29  2  0
 10  3  1  0
 29 11  1  0
 21 13  1  0
  1 30  1  0
  1 31  1  0
  1 32  1  0
  2 33  1  0
  2 34  1  0
  6 35  1  0
  6 36  1  0
  9 37  1  0
  9 38  1  0
 12 39  1  0
 17 40  1  0
 17 41  1  0
 17 42  1  0
 18 43  1  0
 18 44  1  0
 18 45  1  0
 22 46  1  0
 22 47  1  0
 23 48  1  0
 23 49  1  0
 24 50  1  0
 26 51  1  0
 26 52  1  0
 26 53  1  0
 28 54  1  0
 29 55  1  0
M  END
$$$$
