@<TRIPOS>MOLECULE
*****
 91 94 0 0 0
SMALL
GASTEIGER

@<TRIPOS>ATOM
      1 C          -3.3605   -1.6900    3.1943 C.3     1  UNL1       -0.0494
      2 C          -2.2577   -2.3435    2.4176 C.3     1  UNL1        0.0097
      3 N          -2.0551   -1.8135    1.0900 N.pl3   1  UNL1       -0.3269
      4 C          -0.8429   -1.1105    0.8453 C.ar    1  UNL1        0.0342
      5 C          -0.9180    0.2538    0.6630 C.ar    1  UNL1       -0.0326
      6 C           0.2131    1.0258    0.4359 C.ar    1  UNL1       -0.0154
      7 C           0.1742    2.4664    0.2441 C.ar    1  UNL1       -0.0176
      8 C           1.2756    3.2011    0.6754 C.ar    1  UNL1       -0.0506
      9 C           1.3731    4.5661    0.5544 C.ar    1  UNL1       -0.0194
     10 C           0.3303    5.2417   -0.0216 C.ar    1  UNL1        0.1206
     11 O           0.4341    6.6254   -0.1419 O.3     1  UNL1       -0.4897
     12 C          -0.6044    7.3974   -0.7276 C.3     1  UNL1        0.1128
     13 C          -0.2802    8.8544   -0.7543 C.3     1  UNL1        0.0813
     14 O           0.8554    9.1769   -1.4646 O.3     1  UNL1       -0.3796
     15 C           0.7850    8.8066   -2.7854 C.3     1  UNL1        0.0366
     16 C          -0.7784    4.5423   -0.4606 C.ar    1  UNL1       -0.0194
     17 C          -0.8517    3.1525   -0.3252 C.ar    1  UNL1       -0.0506
     18 C           1.4497    0.3722    0.3960 C.ar    1  UNL1       -0.0415
     19 C           1.5494   -0.9889    0.5751 C.ar    1  UNL1        0.0419
     20 C           2.8959   -1.6059    0.5183 C.2     1  UNL1        0.2447
     21 O           3.1656   -2.4890   -0.2926 O.2     1  UNL1       -0.2702
     22 N           3.8639   -1.1472    1.4259 N.am    1  UNL1       -0.3070
     23 C           5.2257   -1.5379    1.6091 C.3     1  UNL1        0.0425
     24 C           6.1491   -1.3756    0.4929 C.ar    1  UNL1        0.0368
     25 C           6.4084   -2.3357   -0.4368 C.ar    1  UNL1       -0.0390
     26 C           5.9076   -3.7265   -0.3754 C.3     1  UNL1       -0.0392
     27 C           7.2712   -1.9806   -1.4930 C.ar    1  UNL1       -0.0393
     28 C           7.7927   -0.7226   -1.5276 C.ar    1  UNL1        0.0162
     29 C           8.7121   -0.3290   -2.6454 C.3     1  UNL1       -0.0244
     30 N           7.5361    0.2174   -0.6095 N.ar    1  UNL1       -0.3262
     31 C           6.7289   -0.0927    0.3889 C.ar    1  UNL1        0.2539
     32 O           6.4848    0.7827    1.2515 O.2     1  UNL1       -0.2675
     33 C           0.4073   -1.7241    0.7984 C.ar    1  UNL1       -0.0173
     34 C           0.5371   -3.1745    0.9736 C.3     1  UNL1       -0.0372
     35 C          -3.0373   -1.9927    0.0301 C.3     1  UNL1        0.0236
     36 C          -3.3346   -3.4675   -0.0575 C.3     1  UNL1       -0.0330
     37 C          -4.3969   -3.6131   -1.1410 C.3     1  UNL1       -0.0357
     38 C          -5.6741   -3.0556   -0.5584 C.3     1  UNL1        0.0100
     39 N          -6.6984   -3.1926   -1.5573 N.3     1  UNL1       -0.3054
     40 C          -6.8105   -4.6316   -1.8499 C.3     1  UNL1       -0.0128
     41 C          -7.9893   -2.7856   -1.0836 C.3     1  UNL1       -0.0128
     42 C          -5.5534   -1.7189    0.0686 C.3     1  UNL1       -0.0357
     43 C          -4.2101   -1.0936    0.0846 C.3     1  UNL1       -0.0330
     44 H          -3.2621   -0.5803    3.2349 H       1  UNL1        0.0245
     45 H          -3.2956   -1.9991    4.2839 H       1  UNL1        0.0245
     46 H          -4.3716   -1.9267    2.8727 H       1  UNL1        0.0245
     47 H          -1.3242   -2.2267    3.0448 H       1  UNL1        0.0461
     48 H          -2.4484   -3.4358    2.4370 H       1  UNL1        0.0461
     49 H          -1.8639    0.7880    0.6881 H       1  UNL1        0.0642
     50 H           2.1243    2.7089    1.1394 H       1  UNL1        0.0625
     51 H           2.2554    5.0915    0.9068 H       1  UNL1        0.0654
     52 H          -1.4934    7.2559   -0.0688 H       1  UNL1        0.0720
     53 H          -0.8299    6.9944   -1.7213 H       1  UNL1        0.0720
     54 H          -0.2060    9.2376    0.2769 H       1  UNL1        0.0593
     55 H          -1.1810    9.3723   -1.1845 H       1  UNL1        0.0593
     56 H          -0.0506    9.2911   -3.2968 H       1  UNL1        0.0524
     57 H           1.7450    9.1059   -3.2840 H       1  UNL1        0.0524
     58 H           0.7129    7.7093   -2.8411 H       1  UNL1        0.0524
     59 H          -1.5724    5.1200   -0.9061 H       1  UNL1        0.0654
     60 H          -1.7141    2.6236   -0.6679 H       1  UNL1        0.0625
     61 H           2.3564    0.9250    0.2207 H       1  UNL1        0.0631
     62 H           3.4932   -0.3609    2.0920 H       1  UNL1        0.1493
     63 H           5.6212   -0.9792    2.4943 H       1  UNL1        0.0513
     64 H           5.2921   -2.6200    1.9685 H       1  UNL1        0.0513
     65 H           6.7859   -4.4067   -0.3840 H       1  UNL1        0.0278
     66 H           5.3071   -4.0135   -1.2700 H       1  UNL1        0.0278
     67 H           5.3196   -3.9784    0.5039 H       1  UNL1        0.0278
     68 H           7.4714   -2.7337   -2.2207 H       1  UNL1        0.0637
     69 H           8.0931    0.2912   -3.3435 H       1  UNL1        0.0292
     70 H           9.1026   -1.2344   -3.1121 H       1  UNL1        0.0292
     71 H           9.5223    0.2930   -2.2028 H       1  UNL1        0.0292
     72 H           7.9575    1.1895   -0.6623 H       1  UNL1        0.1686
     73 H          -0.2599   -3.6819    1.5027 H       1  UNL1        0.0278
     74 H           0.6406   -3.6117   -0.0642 H       1  UNL1        0.0278
     75 H           1.5004   -3.4608    1.4729 H       1  UNL1        0.0278
     76 H          -2.5353   -1.7669   -0.9741 H       1  UNL1        0.0500
     77 H          -3.6854   -3.9045    0.8992 H       1  UNL1        0.0284
     78 H          -2.4313   -3.9904   -0.4370 H       1  UNL1        0.0284
     79 H          -4.4860   -4.6877   -1.3305 H       1  UNL1        0.0281
     80 H          -4.0637   -3.0098   -2.0081 H       1  UNL1        0.0281
     81 H          -5.9626   -3.7754    0.2668 H       1  UNL1        0.0462
     82 H          -7.8513   -4.8885   -2.1676 H       1  UNL1        0.0391
     83 H          -6.0699   -4.9769   -2.5781 H       1  UNL1        0.0391
     84 H          -6.6496   -5.1447   -0.8630 H       1  UNL1        0.0391
     85 H          -7.8899   -2.1912   -0.1631 H       1  UNL1        0.0391
     86 H          -8.4746   -2.2240   -1.9140 H       1  UNL1        0.0391
     87 H          -8.6660   -3.6396   -0.8652 H       1  UNL1        0.0391
     88 H          -6.2580   -1.0297   -0.4912 H       1  UNL1        0.0281
     89 H          -5.9763   -1.6932    1.1191 H       1  UNL1        0.0281
     90 H          -4.1080   -0.4632    1.0190 H       1  UNL1        0.0284
     91 H          -4.1932   -0.3057   -0.7286 H       1  UNL1        0.0284
@<TRIPOS>BOND
     1     1     2    1
     2     2     3    1
     3     3     4    1
     4     4     5   ar
     5     5     6   ar
     6     6     7    1
     7     7     8   ar
     8     8     9   ar
     9     9    10   ar
    10    10    11    1
    11    11    12    1
    12    12    13    1
    13    13    14    1
    14    14    15    1
    15    10    16   ar
    16    16    17   ar
    17     6    18   ar
    18    18    19   ar
    19    19    20    1
    20    20    21    2
    21    20    22   am
    22    22    23    1
    23    23    24    1
    24    24    25   ar
    25    25    26    1
    26    25    27   ar
    27    27    28   ar
    28    28    29    1
    29    28    30   ar
    30    30    31   ar
    31    31    32    2
    32    19    33   ar
    33    33    34    1
    34     3    35    1
    35    35    36    1
    36    36    37    1
    37    37    38    1
    38    38    39    1
    39    39    40    1
    40    39    41    1
    41    38    42    1
    42    42    43    1
    43    33     4   ar
    44    43    35    1
    45    17     7   ar
    46    31    24   ar
    47     1    44    1
    48     1    45    1
    49     1    46    1
    50     2    47    1
    51     2    48    1
    52     5    49    1
    53     8    50    1
    54     9    51    1
    55    12    52    1
    56    12    53    1
    57    13    54    1
    58    13    55    1
    59    15    56    1
    60    15    57    1
    61    15    58    1
    62    16    59    1
    63    17    60    1
    64    18    61    1
    65    22    62    1
    66    23    63    1
    67    23    64    1
    68    26    65    1
    69    26    66    1
    70    26    67    1
    71    27    68    1
    72    29    69    1
    73    29    70    1
    74    29    71    1
    75    30    72    1
    76    34    73    1
    77    34    74    1
    78    34    75    1
    79    35    76    1
    80    36    77    1
    81    36    78    1
    82    37    79    1
    83    37    80    1
    84    38    81    1
    85    40    82    1
    86    40    83    1
    87    40    84    1
    88    41    85    1
    89    41    86    1
    90    41    87    1
    91    42    88    1
    92    42    89    1
    93    43    90    1
    94    43    91    1
