
     RDKit          3D

 91 94  0  0  0  0  0  0  0  0999 V2000
   -3.3605   -1.6900    3.1943 C   0  0  0  0  0  0  0  0  0  0  0  0
   -2.2577   -2.3435    2.4176 C   0  0  0  0  0  0  0  0  0  0  0  0
   -2.0551   -1.8135    1.0900 N   0  0  0  0  0  0  0  0  0  0  0  0
   -0.8429   -1.1105    0.8453 C   0  0  0  0  0  0  0  0  0  0  0  0
   -0.9180    0.2538    0.6630 C   0  0  0  0  0  0  0  0  0  0  0  0
    0.2131    1.0258    0.4359 C   0  0  0  0  0  0  0  0  0  0  0  0
    0.1742    2.4664    0.2441 C   0  0  0  0  0  0  0  0  0  0  0  0
    1.2756    3.2011    0.6754 C   0  0  0  0  0  0  0  0  0  0  0  0
    1.3731    4.5661    0.5544 C   0  0  0  0  0  0  0  0  0  0  0  0
    0.3303    5.2417   -0.0216 C   0  0  0  0  0  0  0  0  0  0  0  0
    0.4341    6.6254   -0.1419 O   0  0  0  0  0  0  0  0  0  0  0  0
   -0.6044    7.3974   -0.7276 C   0  0  0  0  0  0  0  0  0  0  0  0
   -0.2802    8.8544   -0.7543 C   0  0  0  0  0  0  0  0  0  0  0  0
    0.8554    9.1769   -1.4646 O   0  0  0  0  0  0  0  0  0  0  0  0
    0.7850    8.8066   -2.7854 C   0  0  0  0  0  0  0  0  0  0  0  0
   -0.7784    4.5423   -0.4606 C   0  0  0  0  0  0  0  0  0  0  0  0
   -0.8517    3.1525   -0.3252 C   0  0  0  0  0  0  0  0  0  0  0  0
    1.4497    0.3722    0.3960 C   0  0  0  0  0  0  0  0  0  0  0  0
    1.5494   -0.9889    0.5751 C   0  0  0  0  0  0  0  0  0  0  0  0
    2.8959   -1.6059    0.5183 C   0  0  0  0  0  0  0  0  0  0  0  0
    3.1656   -2.4890   -0.2926 O   0  0  0  0  0  0  0  0  0  0  0  0
    3.8639   -1.1472    1.4259 N   0  0  0  0  0  0  0  0  0  0  0  0
    5.2257   -1.5379    1.6091 C   0  0  0  0  0  0  0  0  0  0  0  0
    6.1491   -1.3756    0.4929 C   0  0  0  0  0  0  0  0  0  0  0  0
    6.4084   -2.3357   -0.4368 C   0  0  0  0  0  0  0  0  0  0  0  0
    5.9076   -3.7265   -0.3754 C   0  0  0  0  0  0  0  0  0  0  0  0
    7.2712   -1.9806   -1.4930 C   0  0  0  0  0  0  0  0  0  0  0  0
    7.7927   -0.7226   -1.5276 C   0  0  0  0  0  0  0  0  0  0  0  0
    8.7121   -0.3290   -2.6454 C   0  0  0  0  0  0  0  0  0  0  0  0
    7.5361    0.2174   -0.6095 N   0  0  0  0  0  0  0  0  0  0  0  0
    6.7289   -0.0927    0.3889 C   0  0  0  0  0  0  0  0  0  0  0  0
    6.4848    0.7827    1.2515 O   0  0  0  0  0  0  0  0  0  0  0  0
    0.4073   -1.7241    0.7984 C   0  0  0  0  0  0  0  0  0  0  0  0
    0.5371   -3.1745    0.9736 C   0  0  0  0  0  0  0  0  0  0  0  0
   -3.0373   -1.9927    0.0301 C   0  0  1  0  0  0  0  0  0  0  0  0
   -3.3346   -3.4675   -0.0575 C   0  0  0  0  0  0  0  0  0  0  0  0
   -4.3969   -3.6131   -1.1410 C   0  0  0  0  0  0  0  0  0  0  0  0
   -5.6741   -3.0556   -0.5584 C   0  0  2  0  0  0  0  0  0  0  0  0
   -6.6984   -3.1926   -1.5573 N   0  0  0  0  0  0  0  0  0  0  0  0
   -6.8105   -4.6316   -1.8499 C   0  0  0  0  0  0  0  0  0  0  0  0
   -7.9893   -2.7856   -1.0836 C   0  0  0  0  0  0  0  0  0  0  0  0
   -5.5534   -1.7189    0.0686 C   0  0  0  0  0  0  0  0  0  0  0  0
   -4.2101   -1.0936    0.0846 C   0  0  0  0  0  0  0  0  0  0  0  0
   -3.2621   -0.5803    3.2349 H   0  0  0  0  0  0  0  0  0  0  0  0
   -3.2956   -1.9991    4.2839 H   0  0  0  0  0  0  0  0  0  0  0  0
   -4.3716   -1.9267    2.8727 H   0  0  0  0  0  0  0  0  0  0  0  0
   -1.3242   -2.2267    3.0448 H   0  0  0  0  0  0  0  0  0  0  0  0
   -2.4484   -3.4358    2.4370 H   0  0  0  0  0  0  0  0  0  0  0  0
   -1.8639    0.7880    0.6881 H   0  0  0  0  0  0  0  0  0  0  0  0
    2.1243    2.7089    1.1394 H   0  0  0  0  0  0  0  0  0  0  0  0
    2.2554    5.0915    0.9068 H   0  0  0  0  0  0  0  0  0  0  0  0
   -1.4934    7.2559   -0.0688 H   0  0  0  0  0  0  0  0  0  0  0  0
   -0.8299    6.9944   -1.7213 H   0  0  0  0  0  0  0  0  0  0  0  0
   -0.2060    9.2376    0.2769 H   0  0  0  0  0  0  0  0  0  0  0  0
   -1.1810    9.3723   -1.1845 H   0  0  0  0  0  0  0  0  0  0  0  0
   -0.0506    9.2911   -3.2968 H   0  0  0  0  0  0  0  0  0  0  0  0
    1.7450    9.1059   -3.2840 H   0  0  0  0  0  0  0  0  0  0  0  0
    0.7129    7.7093   -2.8411 H   0  0  0  0  0  0  0  0  0  0  0  0
   -1.5724    5.1200   -0.9061 H   0  0  0  0  0  0  0  0  0  0  0  0
   -1.7141    2.6236   -0.6679 H   0  0  0  0  0  0  0  0  0  0  0  0
    2.3564    0.9250    0.2207 H   0  0  0  0  0  0  0  0  0  0  0  0
    3.4932   -0.3609    2.0920 H   0  0  0  0  0  0  0  0  0  0  0  0
    5.6212   -0.9792    2.4943 H   0  0  0  0  0  0  0  0  0  0  0  0
    5.2921   -2.6200    1.9685 H   0  0  0  0  0  0  0  0  0  0  0  0
    6.7859   -4.4067   -0.3840 H   0  0  0  0  0  0  0  0  0  0  0  0
    5.3071   -4.0135   -1.2700 H   0  0  0  0  0  0  0  0  0  0  0  0
    5.3196   -3.9784    0.5039 H   0  0  0  0  0  0  0  0  0  0  0  0
    7.4714   -2.7337   -2.2207 H   0  0  0  0  0  0  0  0  0  0  0  0
    8.0931    0.2912   -3.3435 H   0  0  0  0  0  0  0  0  0  0  0  0
    9.1026   -1.2344   -3.1121 H   0  0  0  0  0  0  0  0  0  0  0  0
    9.5223    0.2930   -2.2028 H   0  0  0  0  0  0  0  0  0  0  0  0
    7.9575    1.1895   -0.6623 H   0  0  0  0  0  0  0  0  0  0  0  0
   -0.2599   -3.6819    1.5027 H   0  0  0  0  0  0  0  0  0  0  0  0
    0.6406   -3.6117   -0.0642 H   0  0  0  0  0  0  0  0  0  0  0  0
    1.5004   -3.4608    1.4729 H   0  0  0  0  0  0  0  0  0  0  0  0
   -2.5353   -1.7669   -0.9741 H   0  0  0  0  0  0  0  0  0  0  0  0
   -3.6854   -3.9045    0.8992 H   0  0  0  0  0  0  0  0  0  0  0  0
   -2.4313   -3.9904   -0.4370 H   0  0  0  0  0  0  0  0  0  0  0  0
   -4.4860   -4.6877   -1.3305 H   0  0  0  0  0  0  0  0  0  0  0  0
   -4.0637   -3.0098   -2.0081 H   0  0  0  0  0  0  0  0  0  0  0  0
   -5.9626   -3.7754    0.2668 H   0  0  0  0  0  0  0  0  0  0  0  0
   -7.8513   -4.8885   -2.1676 H   0  0  0  0  0  0  0  0  0  0  0  0
   -6.0699   -4.9769   -2.5781 H   0  0  0  0  0  0  0  0  0  0  0  0
   -6.6496   -5.1447   -0.8630 H   0  0  0  0  0  0  0  0  0  0  0  0
   -7.8899   -2.1912   -0.1631 H   0  0  0  0  0  0  0  0  0  0  0  0
   -8.4746   -2.2240   -1.9140 H   0  0  0  0  0  0  0  0  0  0  0  0
   -8.6660   -3.6396   -0.8652 H   0  0  0  0  0  0  0  0  0  0  0  0
   -6.2580   -1.0297   -0.4912 H   0  0  0  0  0  0  0  0  0  0  0  0
   -5.9763   -1.6932    1.1191 H   0  0  0  0  0  0  0  0  0  0  0  0
   -4.1080   -0.4632    1.0190 H   0  0  0  0  0  0  0  0  0  0  0  0
   -4.1932   -0.3057   -0.7286 H   0  0  0  0  0  0  0  0  0  0  0  0
  1  2  1  0
  2  3  1  0
  3  4  1  0
  4  5  2  0
  5  6  1  0
  6  7  1  0
  7  8  2  0
  8  9  1  0
  9 10  2  0
 10 11  1  0
 11 12  1  0
 12 13  1  0
 13 14  1  0
 14 15  1  0
 10 16  1  0
 16 17  2  0
  6 18  2  0
 18 19  1  0
 19 20  1  0
 20 21  2  0
 20 22  1  0
 22 23  1  0
 23 24  1  0
 24 25  2  0
 25 26  1  0
 25 27  1  0
 27 28  2  0
 28 29  1  0
 28 30  1  0
 30 31  1  0
 31 32  2  0
 19 33  2  0
 33 34  1  0
  3 35  1  0
 35 36  1  0
 36 37  1  0
 37 38  1  0
 38 39  1  0
 39 40  1  0
 39 41  1  0
 38 42  1  0
 42 43  1  0
 33  4  1  0
 43 35  1  0
 17  7  1  0
 31 24  1  0
  1 44  1  0
  1 45  1  0
  1 46  1  0
  2 47  1  0
  2 48  1  0
  5 49  1  0
  8 50  1  0
  9 51  1  0
 12 52  1  0
 12 53  1  0
 13 54  1  0
 13 55  1  0
 15 56  1  0
 15 57  1  0
 15 58  1  0
 16 59  1  0
 17 60  1  0
 18 61  1  0
 22 62  1  0
 23 63  1  0
 23 64  1  0
 26 65  1  0
 26 66  1  0
 26 67  1  0
 27 68  1  0
 29 69  1  0
 29 70  1  0
 29 71  1  0
 30 72  1  0
 34 73  1  0
 34 74  1  0
 34 75  1  0
 35 76  1  6
 36 77  1  0
 36 78  1  0
 37 79  1  0
 37 80  1  0
 38 81  1  1
 40 82  1  0
 40 83  1  0
 40 84  1  0
 41 85  1  0
 41 86  1  0
 41 87  1  0
 42 88  1  0
 42 89  1  0
 43 90  1  0
 43 91  1  0
M  END
$$$$
