
     RDKit          3D

 49 48  0  0  0  0  0  0  0  0999 V2000
   -3.4803   -4.5606    0.3496 C   0  0  0  0  0  0  0  0  0  0  0  0
   -4.0718   -3.4416   -0.4792 C   0  0  0  0  0  0  0  0  0  0  0  0
   -4.4200   -2.2329    0.3210 C   0  0  0  0  0  0  0  0  0  0  0  0
   -3.2157   -1.6493    1.0110 C   0  0  0  0  0  0  0  0  0  0  0  0
   -2.7001   -1.6182    2.1569 O   0  0  0  0  0  0  0  0  0  0  0  0
   -2.4677   -0.9435    0.0839 O   0  0  0  0  0  0  0  0  0  0  0  0
   -1.2729   -0.2530    0.3412 C   0  0  2  0  0  0  0  0  0  0  0  0
   -1.3204    1.1861   -0.0224 C   0  0  0  0  0  0  0  0  0  0  0  0
   -2.3158    1.9082    0.6647 O   0  0  0  0  0  0  0  0  0  0  0  0
   -2.4812    3.2863    0.4233 C   0  0  0  0  0  0  0  0  0  0  0  0
   -1.6152    3.6052   -0.4414 O   0  0  0  0  0  0  0  0  0  0  0  0
   -3.5529    3.9741    1.1873 C   0  0  0  0  0  0  0  0  0  0  0  0
   -3.6340    5.4339    0.8661 C   0  0  0  0  0  0  0  0  0  0  0  0
   -0.0842   -0.9674   -0.3102 C   0  0  0  0  0  0  0  0  0  0  0  0
    1.1118   -0.3294   -0.0958 O   0  0  0  0  0  0  0  0  0  0  0  0
    2.4261   -1.2249   -0.6780 P   0  0  0  0  0  0  0  0  0  0  0  0
    2.6796   -0.9985   -2.3276 O   0  0  0  0  0  0  0  0  0  0  0  0
    2.2014   -2.7133   -0.4631 O   0  0  0  0  0  0  0  0  0  0  0  0
    3.8327   -0.7656    0.1380 O   0  0  0  0  0  0  0  0  0  0  0  0
    4.4121    0.3013   -0.5294 C   0  0  0  0  0  0  0  0  0  0  0  0
    5.7239    0.7219    0.0976 C   0  0  2  0  0  0  0  0  0  0  0  0
    6.2426    1.8334   -0.6691 N   0  0  0  0  0  0  0  0  0  0  0  0
    6.6778   -0.3995    0.0709 C   0  0  0  0  0  0  0  0  0  0  0  0
    7.9162   -0.5172   -0.5577 O   0  0  0  0  0  0  0  0  0  0  0  0
    6.1665   -1.2978    0.7512 O   0  0  0  0  0  0  0  0  0  0  0  0
   -3.0017   -5.3019   -0.3353 H   0  0  0  0  0  0  0  0  0  0  0  0
   -2.7500   -4.0996    1.0246 H   0  0  0  0  0  0  0  0  0  0  0  0
   -4.2580   -5.0586    0.9640 H   0  0  0  0  0  0  0  0  0  0  0  0
   -3.3917   -3.2141   -1.3336 H   0  0  0  0  0  0  0  0  0  0  0  0
   -5.0390   -3.8315   -0.8929 H   0  0  0  0  0  0  0  0  0  0  0  0
   -5.0646   -2.5823    1.1779 H   0  0  0  0  0  0  0  0  0  0  0  0
   -4.9453   -1.4529   -0.2294 H   0  0  0  0  0  0  0  0  0  0  0  0
   -1.0770   -0.3491    1.4310 H   0  0  0  0  0  0  0  0  0  0  0  0
   -0.3391    1.6954    0.1156 H   0  0  0  0  0  0  0  0  0  0  0  0
   -1.5763    1.2643   -1.1006 H   0  0  0  0  0  0  0  0  0  0  0  0
   -3.2820    3.9011    2.2823 H   0  0  0  0  0  0  0  0  0  0  0  0
   -4.5285    3.4897    1.0579 H   0  0  0  0  0  0  0  0  0  0  0  0
   -4.4352    5.8666    1.5312 H   0  0  0  0  0  0  0  0  0  0  0  0
   -3.9626    5.6033   -0.1772 H   0  0  0  0  0  0  0  0  0  0  0  0
   -2.6974    5.9664    1.0905 H   0  0  0  0  0  0  0  0  0  0  0  0
   -0.2890   -0.9843   -1.3968 H   0  0  0  0  0  0  0  0  0  0  0  0
   -0.0597   -2.0338   -0.0003 H   0  0  0  0  0  0  0  0  0  0  0  0
    3.0839   -1.7896   -2.7662 H   0  0  0  0  0  0  0  0  0  0  0  0
    3.6733    1.1265   -0.5333 H   0  0  0  0  0  0  0  0  0  0  0  0
    4.5710   -0.0077   -1.5822 H   0  0  0  0  0  0  0  0  0  0  0  0
    5.4955    1.0771    1.1260 H   0  0  0  0  0  0  0  0  0  0  0  0
    7.1739    1.6430   -1.0942 H   0  0  0  0  0  0  0  0  0  0  0  0
    5.5540    2.1496   -1.4007 H   0  0  0  0  0  0  0  0  0  0  0  0
    8.3872   -1.4149   -0.3675 H   0  0  0  0  0  0  0  0  0  0  0  0
  1  2  1  0
  2  3  1  0
  3  4  1  0
  4  5  2  0
  4  6  1  0
  6  7  1  0
  7  8  1  0
  8  9  1  0
  9 10  1  0
 10 11  2  0
 10 12  1  0
 12 13  1  0
  7 14  1  0
 14 15  1  0
 15 16  1  0
 16 17  1  0
 16 18  2  0
 16 19  1  0
 19 20  1  0
 20 21  1  0
 21 22  1  0
 21 23  1  0
 23 24  1  0
 23 25  2  0
  1 26  1  0
  1 27  1  0
  1 28  1  0
  2 29  1  0
  2 30  1  0
  3 31  1  0
  3 32  1  0
  7 33  1  1
  8 34  1  0
  8 35  1  0
 12 36  1  0
 12 37  1  0
 13 38  1  0
 13 39  1  0
 13 40  1  0
 14 41  1  0
 14 42  1  0
 17 43  1  0
 20 44  1  0
 20 45  1  0
 21 46  1  1
 22 47  1  0
 22 48  1  0
 24 49  1  0
M  END
$$$$
