@<TRIPOS>MOLECULE
*****
 19 19 0 0 0
SMALL
GASTEIGER

@<TRIPOS>ATOM
      1 O           3.3082   -0.0062    0.6812 O.2     1  UNL1       -0.2793
      2 C           2.4426   -0.4415   -0.1241 C.2     1  UNL1        0.2025
      3 N           1.0579   -0.2745    0.0008 N.am    1  UNL1       -0.3040
      4 C           0.1916   -0.8283   -0.9988 C.3     1  UNL1        0.0144
      5 C          -1.2576   -0.7412   -0.6823 C.3     1  UNL1       -0.0371
      6 C          -1.6817    0.3987    0.1745 C.3     1  UNL1       -0.0502
      7 C          -0.5575    1.3433    0.5334 C.3     1  UNL1       -0.0371
      8 C           0.5215    0.4539    1.1354 C.3     1  UNL1        0.0144
      9 H           2.9020   -0.9732   -0.9450 H       1  UNL1        0.1253
     10 H           0.4220   -0.3238   -1.9617 H       1  UNL1        0.0464
     11 H           0.4918   -1.8955   -1.1357 H       1  UNL1        0.0464
     12 H          -1.8216   -0.6829   -1.6405 H       1  UNL1        0.0280
     13 H          -1.6076   -1.6817   -0.1972 H       1  UNL1        0.0280
     14 H          -2.1451    0.0667    1.1306 H       1  UNL1        0.0266
     15 H          -2.4403    1.0424   -0.3222 H       1  UNL1        0.0266
     16 H          -0.2323    1.8172   -0.4102 H       1  UNL1        0.0280
     17 H          -0.8922    2.0368    1.3074 H       1  UNL1        0.0280
     18 H           0.0183   -0.3293    1.7737 H       1  UNL1        0.0464
     19 H           1.2801    1.0190    1.6807 H       1  UNL1        0.0464
@<TRIPOS>BOND
     1     1     2    2
     2     2     3   am
     3     3     4    1
     4     4     5    1
     5     5     6    1
     6     6     7    1
     7     7     8    1
     8     8     3    1
     9     2     9    1
    10     4    10    1
    11     4    11    1
    12     5    12    1
    13     5    13    1
    14     6    14    1
    15     6    15    1
    16     7    16    1
    17     7    17    1
    18     8    18    1
    19     8    19    1
