@<TRIPOS>MOLECULE
*****
 55 59 0 0 0
SMALL
GASTEIGER

@<TRIPOS>ATOM
      1 N          -3.8144   -3.2219   -1.2361 N.pl3   1  UNL1       -0.3565
      2 C          -4.6809   -2.2989   -0.6433 C.ar    1  UNL1        0.0461
      3 C          -6.0570   -2.3760   -0.7806 C.ar    1  UNL1       -0.0386
      4 C          -6.9196   -1.4585   -0.1922 C.ar    1  UNL1       -0.0517
      5 C          -6.3353   -0.4562    0.5430 C.ar    1  UNL1       -0.0094
      6 C          -7.2294    0.5215    1.1703 C.ar    1  UNL1        0.0194
      7 C          -8.5998    0.6220    1.1567 C.ar    1  UNL1       -0.0469
      8 C          -9.1878    1.6058    1.8065 C.ar    1  UNL1       -0.0541
      9 C          -8.4067    2.5223    2.4929 C.ar    1  UNL1       -0.0237
     10 S          -6.7589    1.9147    2.1701 S.2     1  UNL1       -0.0967
     11 C          -4.9683   -0.3721    0.6846 C.ar    1  UNL1       -0.0305
     12 C          -4.1067   -1.2761    0.1057 C.ar    1  UNL1        0.0551
     13 N          -2.7009   -1.1711    0.2650 N.am    1  UNL1       -0.2799
     14 C          -1.9068   -0.4289   -0.6339 C.2     1  UNL1        0.2498
     15 O          -2.5075    0.1495   -1.6041 O.2     1  UNL1       -0.2698
     16 C          -0.4883   -0.3012   -0.5053 C.ar    1  UNL1        0.0552
     17 C           0.2219    0.4459   -1.4314 C.ar    1  UNL1       -0.0449
     18 C           1.5888    0.5659   -1.3030 C.ar    1  UNL1       -0.0210
     19 C           2.2951   -0.0320   -0.2801 C.ar    1  UNL1        0.1212
     20 N           3.7030    0.1191   -0.1876 N.pl3   1  UNL1       -0.3149
     21 C           4.3630   -0.5540    0.9173 C.3     1  UNL1        0.0172
     22 C           5.8079   -0.8368    0.5714 C.3     1  UNL1        0.0046
     23 C           6.5032    0.4037    0.1027 C.3     1  UNL1        0.1334
     24 C           5.8050    1.1751   -0.9503 C.3     1  UNL1        0.0046
     25 C           4.3711    0.9064   -1.1658 C.3     1  UNL1        0.0172
     26 C           6.8756    1.3224    1.2577 C.3     1  UNL1        0.0548
     27 N           7.9961    2.0471    0.7014 N.am    1  UNL1       -0.2773
     28 C           8.5574    1.2026   -0.2913 C.2     1  UNL1        0.4010
     29 O           9.5643    1.4422   -1.0322 O.2     1  UNL1       -0.2265
     30 O           7.8095    0.0075   -0.3442 O.3     1  UNL1       -0.4421
     31 N           1.5717   -0.7453    0.5940 N.ar    1  UNL1       -0.2396
     32 C           0.2212   -0.8917    0.5075 C.ar    1  UNL1        0.0418
     33 H          -3.7327   -4.1937   -0.8958 H       1  UNL1        0.1424
     34 H          -3.2311   -2.9302   -2.0443 H       1  UNL1        0.1424
     35 H          -6.5067   -3.1698   -1.3621 H       1  UNL1        0.0637
     36 H          -7.9890   -1.5541   -0.3238 H       1  UNL1        0.0624
     37 H          -9.1682   -0.1584    0.5783 H       1  UNL1        0.0629
     38 H         -10.2932    1.7641    1.8493 H       1  UNL1        0.0623
     39 H          -8.6821    3.3747    3.0702 H       1  UNL1        0.0693
     40 H          -4.5420    0.4471    1.2824 H       1  UNL1        0.0643
     41 H          -2.2589   -1.6552    1.0637 H       1  UNL1        0.1552
     42 H          -0.3255    0.9251   -2.2467 H       1  UNL1        0.0627
     43 H           2.1061    1.1661   -2.0589 H       1  UNL1        0.0652
     44 H           4.3376    0.0287    1.8555 H       1  UNL1        0.0465
     45 H           3.8894   -1.5372    1.1425 H       1  UNL1        0.0465
     46 H           5.8539   -1.6080   -0.2004 H       1  UNL1        0.0319
     47 H           6.3042   -1.1710    1.5091 H       1  UNL1        0.0319
     48 H           6.3400    0.9821   -1.9277 H       1  UNL1        0.0319
     49 H           5.9884    2.2751   -0.7762 H       1  UNL1        0.0319
     50 H           4.1688    0.4398   -2.1630 H       1  UNL1        0.0465
     51 H           3.8173    1.8908   -1.2204 H       1  UNL1        0.0465
     52 H           7.2297    0.6571    2.0891 H       1  UNL1        0.0502
     53 H           6.0441    1.9694    1.5706 H       1  UNL1        0.0502
     54 H           8.3396    2.9891    0.9566 H       1  UNL1        0.1521
     55 H          -0.2762   -1.4845    1.2565 H       1  UNL1        0.0838
@<TRIPOS>BOND
     1     1     2    1
     2     2     3   ar
     3     3     4   ar
     4     4     5   ar
     5     5     6    1
     6     6     7   ar
     7     7     8   ar
     8     8     9   ar
     9     9    10   ar
    10     5    11   ar
    11    11    12   ar
    12    12    13    1
    13    13    14   am
    14    14    15    2
    15    14    16    1
    16    16    17   ar
    17    17    18   ar
    18    18    19   ar
    19    19    20    1
    20    20    21    1
    21    21    22    1
    22    22    23    1
    23    23    24    1
    24    24    25    1
    25    23    26    1
    26    26    27    1
    27    27    28   am
    28    28    29    2
    29    28    30    1
    30    19    31   ar
    31    31    32   ar
    32    12     2   ar
    33    32    16   ar
    34    10     6   ar
    35    25    20    1
    36    30    23    1
    37     1    33    1
    38     1    34    1
    39     3    35    1
    40     4    36    1
    41     7    37    1
    42     8    38    1
    43     9    39    1
    44    11    40    1
    45    13    41    1
    46    17    42    1
    47    18    43    1
    48    21    44    1
    49    21    45    1
    50    22    46    1
    51    22    47    1
    52    24    48    1
    53    24    49    1
    54    25    50    1
    55    25    51    1
    56    26    52    1
    57    26    53    1
    58    27    54    1
    59    32    55    1
