
     RDKit          3D

 55 59  0  0  0  0  0  0  0  0999 V2000
   -3.8144   -3.2219   -1.2361 N   0  0  0  0  0  0  0  0  0  0  0  0
   -4.6809   -2.2989   -0.6433 C   0  0  0  0  0  0  0  0  0  0  0  0
   -6.0570   -2.3760   -0.7806 C   0  0  0  0  0  0  0  0  0  0  0  0
   -6.9196   -1.4585   -0.1922 C   0  0  0  0  0  0  0  0  0  0  0  0
   -6.3353   -0.4562    0.5430 C   0  0  0  0  0  0  0  0  0  0  0  0
   -7.2294    0.5215    1.1703 C   0  0  0  0  0  0  0  0  0  0  0  0
   -8.5998    0.6220    1.1567 C   0  0  0  0  0  0  0  0  0  0  0  0
   -9.1878    1.6058    1.8065 C   0  0  0  0  0  0  0  0  0  0  0  0
   -8.4067    2.5223    2.4929 C   0  0  0  0  0  0  0  0  0  0  0  0
   -6.7589    1.9147    2.1701 S   0  0  0  0  0  0  0  0  0  0  0  0
   -4.9683   -0.3721    0.6846 C   0  0  0  0  0  0  0  0  0  0  0  0
   -4.1067   -1.2761    0.1057 C   0  0  0  0  0  0  0  0  0  0  0  0
   -2.7009   -1.1711    0.2650 N   0  0  0  0  0  0  0  0  0  0  0  0
   -1.9068   -0.4289   -0.6339 C   0  0  0  0  0  0  0  0  0  0  0  0
   -2.5075    0.1495   -1.6041 O   0  0  0  0  0  0  0  0  0  0  0  0
   -0.4883   -0.3012   -0.5053 C   0  0  0  0  0  0  0  0  0  0  0  0
    0.2219    0.4459   -1.4314 C   0  0  0  0  0  0  0  0  0  0  0  0
    1.5888    0.5659   -1.3030 C   0  0  0  0  0  0  0  0  0  0  0  0
    2.2951   -0.0320   -0.2801 C   0  0  0  0  0  0  0  0  0  0  0  0
    3.7030    0.1191   -0.1876 N   0  0  0  0  0  0  0  0  0  0  0  0
    4.3630   -0.5540    0.9173 C   0  0  0  0  0  0  0  0  0  0  0  0
    5.8079   -0.8368    0.5714 C   0  0  0  0  0  0  0  0  0  0  0  0
    6.5032    0.4037    0.1027 C   0  0  0  0  0  0  0  0  0  0  0  0
    5.8050    1.1751   -0.9503 C   0  0  0  0  0  0  0  0  0  0  0  0
    4.3711    0.9064   -1.1658 C   0  0  0  0  0  0  0  0  0  0  0  0
    6.8756    1.3224    1.2577 C   0  0  0  0  0  0  0  0  0  0  0  0
    7.9961    2.0471    0.7014 N   0  0  0  0  0  0  0  0  0  0  0  0
    8.5574    1.2026   -0.2913 C   0  0  0  0  0  0  0  0  0  0  0  0
    9.5643    1.4422   -1.0322 O   0  0  0  0  0  0  0  0  0  0  0  0
    7.8095    0.0075   -0.3442 O   0  0  0  0  0  0  0  0  0  0  0  0
    1.5717   -0.7453    0.5940 N   0  0  0  0  0  0  0  0  0  0  0  0
    0.2212   -0.8917    0.5075 C   0  0  0  0  0  0  0  0  0  0  0  0
   -3.7327   -4.1937   -0.8958 H   0  0  0  0  0  0  0  0  0  0  0  0
   -3.2311   -2.9302   -2.0443 H   0  0  0  0  0  0  0  0  0  0  0  0
   -6.5067   -3.1698   -1.3621 H   0  0  0  0  0  0  0  0  0  0  0  0
   -7.9890   -1.5541   -0.3238 H   0  0  0  0  0  0  0  0  0  0  0  0
   -9.1682   -0.1584    0.5783 H   0  0  0  0  0  0  0  0  0  0  0  0
  -10.2932    1.7641    1.8493 H   0  0  0  0  0  0  0  0  0  0  0  0
   -8.6821    3.3747    3.0702 H   0  0  0  0  0  0  0  0  0  0  0  0
   -4.5420    0.4471    1.2824 H   0  0  0  0  0  0  0  0  0  0  0  0
   -2.2589   -1.6552    1.0637 H   0  0  0  0  0  0  0  0  0  0  0  0
   -0.3255    0.9251   -2.2467 H   0  0  0  0  0  0  0  0  0  0  0  0
    2.1061    1.1661   -2.0589 H   0  0  0  0  0  0  0  0  0  0  0  0
    4.3376    0.0287    1.8555 H   0  0  0  0  0  0  0  0  0  0  0  0
    3.8894   -1.5372    1.1425 H   0  0  0  0  0  0  0  0  0  0  0  0
    5.8539   -1.6080   -0.2004 H   0  0  0  0  0  0  0  0  0  0  0  0
    6.3042   -1.1710    1.5091 H   0  0  0  0  0  0  0  0  0  0  0  0
    6.3400    0.9821   -1.9277 H   0  0  0  0  0  0  0  0  0  0  0  0
    5.9884    2.2751   -0.7762 H   0  0  0  0  0  0  0  0  0  0  0  0
    4.1688    0.4398   -2.1630 H   0  0  0  0  0  0  0  0  0  0  0  0
    3.8173    1.8908   -1.2204 H   0  0  0  0  0  0  0  0  0  0  0  0
    7.2297    0.6571    2.0891 H   0  0  0  0  0  0  0  0  0  0  0  0
    6.0441    1.9694    1.5706 H   0  0  0  0  0  0  0  0  0  0  0  0
    8.3396    2.9891    0.9566 H   0  0  0  0  0  0  0  0  0  0  0  0
   -0.2762   -1.4845    1.2565 H   0  0  0  0  0  0  0  0  0  0  0  0
  1  2  1  0
  2  3  2  0
  3  4  1  0
  4  5  2  0
  5  6  1  0
  6  7  2  0
  7  8  1  0
  8  9  2  0
  9 10  1  0
  5 11  1  0
 11 12  2  0
 12 13  1  0
 13 14  1  0
 14 15  2  0
 14 16  1  0
 16 17  2  0
 17 18  1  0
 18 19  2  0
 19 20  1  0
 20 21  1  0
 21 22  1  0
 22 23  1  0
 23 24  1  0
 24 25  1  0
 23 26  1  0
 26 27  1  0
 27 28  1  0
 28 29  2  0
 28 30  1  0
 19 31  1  0
 31 32  2  0
 12  2  1  0
 32 16  1  0
 10  6  1  0
 25 20  1  0
 30 23  1  0
  1 33  1  0
  1 34  1  0
  3 35  1  0
  4 36  1  0
  7 37  1  0
  8 38  1  0
  9 39  1  0
 11 40  1  0
 13 41  1  0
 17 42  1  0
 18 43  1  0
 21 44  1  0
 21 45  1  0
 22 46  1  0
 22 47  1  0
 24 48  1  0
 24 49  1  0
 25 50  1  0
 25 51  1  0
 26 52  1  0
 26 53  1  0
 27 54  1  0
 32 55  1  0
M  END
$$$$
