
     RDKit          3D

 49 51  0  0  0  0  0  0  0  0999 V2000
   -7.1880    1.4633    2.5206 C   0  0  0  0  0  0  0  0  0  0  0  0
   -7.3641    0.1859    1.7253 C   0  0  0  0  0  0  0  0  0  0  0  0
   -6.3817    0.0580    0.7206 O   0  0  0  0  0  0  0  0  0  0  0  0
   -5.0389    0.0072    0.9489 C   0  0  0  0  0  0  0  0  0  0  0  0
   -4.5988    0.0758    2.1148 O   0  0  0  0  0  0  0  0  0  0  0  0
   -4.0319   -0.1292   -0.1373 C   0  0  0  0  0  0  0  0  0  0  0  0
   -2.7565   -0.1741    0.1058 C   0  0  0  0  0  0  0  0  0  0  0  0
   -1.6989   -0.3045   -0.8657 C   0  0  0  0  0  0  0  0  0  0  0  0
   -1.9458   -0.4230   -2.2230 C   0  0  0  0  0  0  0  0  0  0  0  0
   -3.2394   -0.4286   -2.7356 O   0  0  0  0  0  0  0  0  0  0  0  0
   -3.4150   -0.5524   -4.1229 C   0  0  0  0  0  0  0  0  0  0  0  0
   -0.8749   -0.5405   -3.1041 C   0  0  0  0  0  0  0  0  0  0  0  0
    0.4225   -0.5443   -2.6859 C   0  0  0  0  0  0  0  0  0  0  0  0
    0.6747   -0.4282   -1.3523 C   0  0  0  0  0  0  0  0  0  0  0  0
    1.9837   -0.4297   -0.9178 C   0  0  0  0  0  0  0  0  0  0  0  0
    2.3281   -0.3163    0.4076 C   0  0  0  0  0  0  0  0  0  0  0  0
    3.7286   -0.3247    0.8048 C   0  0  0  0  0  0  0  0  0  0  0  0
    4.0814   -0.8474    2.0385 C   0  0  0  0  0  0  0  0  0  0  0  0
    5.3879   -0.8730    2.4469 C   0  0  0  0  0  0  0  0  0  0  0  0
    6.3647   -0.3733    1.6224 C   0  0  0  0  0  0  0  0  0  0  0  0
    6.0765    0.1568    0.3901 C   0  0  0  0  0  0  0  0  0  0  0  0
    7.0771    0.6555   -0.4258 O   0  0  0  0  0  0  0  0  0  0  0  0
    8.4079    0.6032    0.0474 C   0  0  0  0  0  0  0  0  0  0  0  0
    4.7465    0.1652    0.0128 C   0  0  0  0  0  0  0  0  0  0  0  0
    1.2980   -0.1986    1.3046 C   0  0  0  0  0  0  0  0  0  0  0  0
   -0.0508   -0.1925    0.9051 C   0  0  0  0  0  0  0  0  0  0  0  0
   -0.3667   -0.3075   -0.4271 C   0  0  0  0  0  0  0  0  0  0  0  0
   -6.1961    1.5513    2.9676 H   0  0  0  0  0  0  0  0  0  0  0  0
   -7.9271    1.5368    3.3422 H   0  0  0  0  0  0  0  0  0  0  0  0
   -7.3666    2.3317    1.8439 H   0  0  0  0  0  0  0  0  0  0  0  0
   -8.3863    0.1295    1.3364 H   0  0  0  0  0  0  0  0  0  0  0  0
   -7.2230   -0.6589    2.4312 H   0  0  0  0  0  0  0  0  0  0  0  0
   -4.4182   -0.1854   -1.1235 H   0  0  0  0  0  0  0  0  0  0  0  0
   -2.5076   -0.1043    1.1721 H   0  0  0  0  0  0  0  0  0  0  0  0
   -3.1385   -1.5770   -4.4459 H   0  0  0  0  0  0  0  0  0  0  0  0
   -2.8617    0.1826   -4.7152 H   0  0  0  0  0  0  0  0  0  0  0  0
   -4.4998   -0.4174   -4.3863 H   0  0  0  0  0  0  0  0  0  0  0  0
   -1.0684   -0.6330   -4.1652 H   0  0  0  0  0  0  0  0  0  0  0  0
    1.2621   -0.6363   -3.3750 H   0  0  0  0  0  0  0  0  0  0  0  0
    2.7984   -0.5242   -1.6422 H   0  0  0  0  0  0  0  0  0  0  0  0
    3.2774   -1.2321    2.6594 H   0  0  0  0  0  0  0  0  0  0  0  0
    5.6263   -1.2948    3.4303 H   0  0  0  0  0  0  0  0  0  0  0  0
    7.4116   -0.4004    1.9635 H   0  0  0  0  0  0  0  0  0  0  0  0
    8.4989    1.0736    1.0482 H   0  0  0  0  0  0  0  0  0  0  0  0
    8.7853   -0.4286    0.1175 H   0  0  0  0  0  0  0  0  0  0  0  0
    9.1004    1.1700   -0.6244 H   0  0  0  0  0  0  0  0  0  0  0  0
    4.4931    0.5798   -0.9586 H   0  0  0  0  0  0  0  0  0  0  0  0
    1.5198   -0.1073    2.3526 H   0  0  0  0  0  0  0  0  0  0  0  0
   -0.8064   -0.0973    1.6527 H   0  0  0  0  0  0  0  0  0  0  0  0
  1  2  1  0
  2  3  1  0
  3  4  1  0
  4  5  2  0
  4  6  1  0
  6  7  2  0
  7  8  1  0
  8  9  2  0
  9 10  1  0
 10 11  1  0
  9 12  1  0
 12 13  2  0
 13 14  1  0
 14 15  2  0
 15 16  1  0
 16 17  1  0
 17 18  2  0
 18 19  1  0
 19 20  2  0
 20 21  1  0
 21 22  1  0
 22 23  1  0
 21 24  2  0
 16 25  2  0
 25 26  1  0
 26 27  2  0
 27  8  1  0
 27 14  1  0
 24 17  1  0
  1 28  1  0
  1 29  1  0
  1 30  1  0
  2 31  1  0
  2 32  1  0
  6 33  1  0
  7 34  1  0
 11 35  1  0
 11 36  1  0
 11 37  1  0
 12 38  1  0
 13 39  1  0
 15 40  1  0
 18 41  1  0
 19 42  1  0
 20 43  1  0
 23 44  1  0
 23 45  1  0
 23 46  1  0
 24 47  1  0
 25 48  1  0
 26 49  1  0
M  END
$$$$
