@<TRIPOS>MOLECULE
*****
 51 55 0 0 0
SMALL
GASTEIGER

@<TRIPOS>ATOM
      1 C          -7.3844   -0.3665   -0.8319 C.2     1  UNL1       -0.0962
      2 C          -6.3419   -0.8473   -0.4528 C.2     1  UNL1       -0.0395
      3 C          -6.1357   -1.7251    0.7680 C.3     1  UNL1       -0.0406
      4 C          -4.9888   -0.6581   -1.1906 C.3     1  UNL1        0.1249
      5 C          -4.0469   -0.1119   -0.1674 C.3     1  UNL1        0.0204
      6 C          -2.7822   -0.8128   -0.5858 C.ar    1  UNL1        0.0404
      7 C          -3.1283   -1.9134   -1.3343 C.ar    1  UNL1        0.1282
      8 C          -2.1019   -2.6978   -1.8295 C.ar    1  UNL1       -0.0187
      9 C          -0.7716   -2.3589   -1.5654 C.ar    1  UNL1       -0.0442
     10 C          -0.4831   -1.2554   -0.8153 C.ar    1  UNL1        0.0603
     11 C          -1.4773   -0.4306   -0.2897 C.ar    1  UNL1        0.1383
     12 O          -1.2239    0.6889    0.4693 O.3     1  UNL1       -0.4833
     13 C           0.0843    1.2346    0.5050 C.3     1  UNL1        0.1478
     14 C           0.2985    1.9439   -0.7888 C.3     1  UNL1        0.1273
     15 O           1.6658    2.0326   -1.1520 O.3     1  UNL1       -0.4879
     16 C           2.6846    1.5461   -0.3487 C.ar    1  UNL1        0.1283
     17 C           4.0078    1.9775   -0.4582 C.ar    1  UNL1        0.0257
     18 C           5.0150    1.4925    0.3272 C.ar    1  UNL1        0.1650
     19 O           6.3413    1.9189    0.2126 O.3     1  UNL1       -0.4913
     20 C           6.5257    2.9037   -0.8578 C.3     1  UNL1        0.0790
     21 C           4.7489    0.5361    1.2790 C.ar    1  UNL1        0.1620
     22 O           5.7881    0.0134    2.0916 O.3     1  UNL1       -0.4914
     23 C           5.4572   -1.0219    3.0192 C.3     1  UNL1        0.0790
     24 C           3.4520    0.0927    1.4128 C.ar    1  UNL1       -0.0088
     25 C           2.4179    0.5884    0.6046 C.ar    1  UNL1        0.0122
     26 C           1.0322    0.0780    0.6863 C.3     1  UNL1        0.0908
     27 C           0.8828   -0.8430   -0.5021 C.2     1  UNL1        0.1778
     28 O           1.8423   -1.2334   -1.1887 O.2     1  UNL1       -0.2912
     29 O          -4.5137   -1.9541   -1.4074 O.3     1  UNL1       -0.4838
     30 H          -8.1423    0.1816   -1.3981 H       1  UNL1        0.0535
     31 H          -8.2270   -0.7015    0.0592 H       1  UNL1        0.0535
     32 H          -5.3211   -2.4439    0.6611 H       1  UNL1        0.0275
     33 H          -6.0994   -1.0404    1.6371 H       1  UNL1        0.0275
     34 H          -7.1044   -2.2923    0.9132 H       1  UNL1        0.0275
     35 H          -5.1361   -0.0338   -2.0918 H       1  UNL1        0.0784
     36 H          -3.9234    0.9687   -0.1937 H       1  UNL1        0.0355
     37 H          -4.3635   -0.4692    0.8452 H       1  UNL1        0.0355
     38 H          -2.3281   -3.5769   -2.4165 H       1  UNL1        0.0654
     39 H           0.0439   -2.9559   -1.9487 H       1  UNL1        0.0627
     40 H           0.1883    1.9299    1.3781 H       1  UNL1        0.0778
     41 H          -0.3677    1.6183   -1.6251 H       1  UNL1        0.0734
     42 H          -0.0148    3.0204   -0.6190 H       1  UNL1        0.0734
     43 H           4.1371    2.7538   -1.2310 H       1  UNL1        0.0692
     44 H           5.9897    2.5523   -1.7382 H       1  UNL1        0.0660
     45 H           6.1332    3.8533   -0.4829 H       1  UNL1        0.0660
     46 H           7.6227    2.9729   -0.9993 H       1  UNL1        0.0660
     47 H           6.3496   -1.5815    3.3296 H       1  UNL1        0.0660
     48 H           4.8463   -0.6967    3.8515 H       1  UNL1        0.0660
     49 H           4.8231   -1.7511    2.4025 H       1  UNL1        0.0660
     50 H           3.2032   -0.6600    2.1567 H       1  UNL1        0.0659
     51 H           0.8264   -0.4652    1.6289 H       1  UNL1        0.0468
@<TRIPOS>BOND
     1     1     2    2
     2     2     3    1
     3     2     4    1
     4     4     5    1
     5     5     6    1
     6     6     7   ar
     7     7     8   ar
     8     8     9   ar
     9     9    10   ar
    10    10    11   ar
    11    11    12    1
    12    12    13    1
    13    13    14    1
    14    14    15    1
    15    15    16    1
    16    16    17   ar
    17    17    18   ar
    18    18    19    1
    19    19    20    1
    20    18    21   ar
    21    21    22    1
    22    22    23    1
    23    21    24   ar
    24    24    25   ar
    25    25    26    1
    26    26    27    1
    27    27    28    2
    28     7    29    1
    29    29     4    1
    30    11     6   ar
    31    26    13    1
    32    27    10    1
    33    25    16   ar
    34     1    30    1
    35     1    31    1
    36     3    32    1
    37     3    33    1
    38     3    34    1
    39     4    35    1
    40     5    36    1
    41     5    37    1
    42     8    38    1
    43     9    39    1
    44    13    40    1
    45    14    41    1
    46    14    42    1
    47    17    43    1
    48    20    44    1
    49    20    45    1
    50    20    46    1
    51    23    47    1
    52    23    48    1
    53    23    49    1
    54    24    50    1
    55    26    51    1
