
     RDKit          3D

 51 55  0  0  0  0  0  0  0  0999 V2000
   -7.3844   -0.3665   -0.8319 C   0  0  0  0  0  0  0  0  0  0  0  0
   -6.3419   -0.8473   -0.4528 C   0  0  0  0  0  0  0  0  0  0  0  0
   -6.1357   -1.7251    0.7680 C   0  0  0  0  0  0  0  0  0  0  0  0
   -4.9888   -0.6581   -1.1906 C   0  0  1  0  0  0  0  0  0  0  0  0
   -4.0469   -0.1119   -0.1674 C   0  0  0  0  0  0  0  0  0  0  0  0
   -2.7822   -0.8128   -0.5858 C   0  0  0  0  0  0  0  0  0  0  0  0
   -3.1283   -1.9134   -1.3343 C   0  0  0  0  0  0  0  0  0  0  0  0
   -2.1019   -2.6978   -1.8295 C   0  0  0  0  0  0  0  0  0  0  0  0
   -0.7716   -2.3589   -1.5654 C   0  0  0  0  0  0  0  0  0  0  0  0
   -0.4831   -1.2554   -0.8153 C   0  0  0  0  0  0  0  0  0  0  0  0
   -1.4773   -0.4306   -0.2897 C   0  0  0  0  0  0  0  0  0  0  0  0
   -1.2239    0.6889    0.4693 O   0  0  0  0  0  0  0  0  0  0  0  0
    0.0843    1.2346    0.5050 C   0  0  2  0  0  0  0  0  0  0  0  0
    0.2985    1.9439   -0.7888 C   0  0  0  0  0  0  0  0  0  0  0  0
    1.6658    2.0326   -1.1520 O   0  0  0  0  0  0  0  0  0  0  0  0
    2.6846    1.5461   -0.3487 C   0  0  0  0  0  0  0  0  0  0  0  0
    4.0078    1.9775   -0.4582 C   0  0  0  0  0  0  0  0  0  0  0  0
    5.0150    1.4925    0.3272 C   0  0  0  0  0  0  0  0  0  0  0  0
    6.3413    1.9189    0.2126 O   0  0  0  0  0  0  0  0  0  0  0  0
    6.5257    2.9037   -0.8578 C   0  0  0  0  0  0  0  0  0  0  0  0
    4.7489    0.5361    1.2790 C   0  0  0  0  0  0  0  0  0  0  0  0
    5.7881    0.0134    2.0916 O   0  0  0  0  0  0  0  0  0  0  0  0
    5.4572   -1.0219    3.0192 C   0  0  0  0  0  0  0  0  0  0  0  0
    3.4520    0.0927    1.4128 C   0  0  0  0  0  0  0  0  0  0  0  0
    2.4179    0.5884    0.6046 C   0  0  0  0  0  0  0  0  0  0  0  0
    1.0322    0.0780    0.6863 C   0  0  2  0  0  0  0  0  0  0  0  0
    0.8828   -0.8430   -0.5021 C   0  0  0  0  0  0  0  0  0  0  0  0
    1.8423   -1.2334   -1.1887 O   0  0  0  0  0  0  0  0  0  0  0  0
   -4.5137   -1.9541   -1.4074 O   0  0  0  0  0  0  0  0  0  0  0  0
   -8.1423    0.1816   -1.3981 H   0  0  0  0  0  0  0  0  0  0  0  0
   -8.2270   -0.7015    0.0592 H   0  0  0  0  0  0  0  0  0  0  0  0
   -5.3211   -2.4439    0.6611 H   0  0  0  0  0  0  0  0  0  0  0  0
   -6.0994   -1.0404    1.6371 H   0  0  0  0  0  0  0  0  0  0  0  0
   -7.1044   -2.2923    0.9132 H   0  0  0  0  0  0  0  0  0  0  0  0
   -5.1361   -0.0338   -2.0918 H   0  0  0  0  0  0  0  0  0  0  0  0
   -3.9234    0.9687   -0.1937 H   0  0  0  0  0  0  0  0  0  0  0  0
   -4.3635   -0.4692    0.8452 H   0  0  0  0  0  0  0  0  0  0  0  0
   -2.3281   -3.5769   -2.4165 H   0  0  0  0  0  0  0  0  0  0  0  0
    0.0439   -2.9559   -1.9487 H   0  0  0  0  0  0  0  0  0  0  0  0
    0.1883    1.9299    1.3781 H   0  0  0  0  0  0  0  0  0  0  0  0
   -0.3677    1.6183   -1.6251 H   0  0  0  0  0  0  0  0  0  0  0  0
   -0.0148    3.0204   -0.6190 H   0  0  0  0  0  0  0  0  0  0  0  0
    4.1371    2.7538   -1.2310 H   0  0  0  0  0  0  0  0  0  0  0  0
    5.9897    2.5523   -1.7382 H   0  0  0  0  0  0  0  0  0  0  0  0
    6.1332    3.8533   -0.4829 H   0  0  0  0  0  0  0  0  0  0  0  0
    7.6227    2.9729   -0.9993 H   0  0  0  0  0  0  0  0  0  0  0  0
    6.3496   -1.5815    3.3296 H   0  0  0  0  0  0  0  0  0  0  0  0
    4.8463   -0.6967    3.8515 H   0  0  0  0  0  0  0  0  0  0  0  0
    4.8231   -1.7511    2.4025 H   0  0  0  0  0  0  0  0  0  0  0  0
    3.2032   -0.6600    2.1567 H   0  0  0  0  0  0  0  0  0  0  0  0
    0.8264   -0.4652    1.6289 H   0  0  0  0  0  0  0  0  0  0  0  0
  1  2  2  3
  2  3  1  0
  2  4  1  0
  4  5  1  0
  5  6  1  0
  6  7  2  0
  7  8  1  0
  8  9  2  0
  9 10  1  0
 10 11  2  0
 11 12  1  0
 12 13  1  0
 13 14  1  0
 14 15  1  0
 15 16  1  0
 16 17  2  0
 17 18  1  0
 18 19  1  0
 19 20  1  0
 18 21  2  0
 21 22  1  0
 22 23  1  0
 21 24  1  0
 24 25  2  0
 25 26  1  0
 26 27  1  0
 27 28  2  0
  7 29  1  0
 29  4  1  0
 11  6  1  0
 26 13  1  0
 27 10  1  0
 25 16  1  0
  1 30  1  0
  1 31  1  0
  3 32  1  0
  3 33  1  0
  3 34  1  0
  4 35  1  6
  5 36  1  0
  5 37  1  0
  8 38  1  0
  9 39  1  0
 13 40  1  1
 14 41  1  0
 14 42  1  0
 17 43  1  0
 20 44  1  0
 20 45  1  0
 20 46  1  0
 23 47  1  0
 23 48  1  0
 23 49  1  0
 24 50  1  0
 26 51  1  1
M  END
$$$$
