@<TRIPOS>MOLECULE
*****
 69 75 0 0 0
SMALL
GASTEIGER

@<TRIPOS>ATOM
      1 C          -5.6636    1.5090    2.9260 C.3     1  UNL1       -0.0380
      2 C          -6.1852    0.3693    2.1022 C.ar    1  UNL1       -0.0279
      3 C          -7.1065   -0.5152    2.6252 C.ar    1  UNL1       -0.0557
      4 C          -7.5622   -1.5478    1.8419 C.ar    1  UNL1       -0.0433
      5 C          -7.1324   -1.7358    0.5443 C.ar    1  UNL1        0.0279
      6 N          -6.2339   -0.8471    0.0800 N.ar    1  UNL1       -0.2583
      7 C          -5.7620    0.1744    0.8091 C.ar    1  UNL1        0.0581
      8 C          -4.7835    1.0906    0.2214 C.3     1  UNL1        0.0415
      9 N          -3.4453    0.8866    0.6795 N.3     1  UNL1       -0.2965
     10 C          -2.5620    1.7950    0.0308 C.3     1  UNL1        0.0017
     11 C          -1.1377    1.3187   -0.0343 C.3     1  UNL1       -0.0095
     12 C          -0.9653   -0.0562   -0.6004 C.3     1  UNL1        0.1240
     13 C          -2.1854   -0.9269   -0.3847 C.3     1  UNL1       -0.0095
     14 C          -3.0206   -0.4684    0.7640 C.3     1  UNL1        0.0017
     15 C           0.2425   -0.6482    0.0248 C.2     1  UNL1        0.2516
     16 O           0.2640   -1.4049    1.0320 O.2     1  UNL1       -0.2724
     17 N           1.3491   -0.1916   -0.7359 N.am    1  UNL1       -0.1920
     18 C           2.6813   -0.1663   -0.2473 C.ar    1  UNL1        0.0455
     19 C           3.4370   -1.2987   -0.4516 C.ar    1  UNL1       -0.0392
     20 C           4.7254   -1.3622   -0.0118 C.ar    1  UNL1       -0.0523
     21 C           5.3230   -0.3184    0.6450 C.ar    1  UNL1       -0.0177
     22 C           6.7164   -0.4293    1.1098 C.ar    1  UNL1       -0.0158
     23 C           7.1019   -1.6996    1.4858 C.ar    1  UNL1       -0.0529
     24 C           8.4059   -1.8292    1.9164 C.ar    1  UNL1       -0.0453
     25 C           9.2073   -0.7468    1.9460 C.ar    1  UNL1        0.0390
     26 S          10.9097   -0.4893    2.4183 S.2     1  UNL1       -0.0754
     27 C          10.9968    1.2825    2.0859 C.ar    1  UNL1        0.0659
     28 N           9.7096    1.4935    1.6470 N.ar    1  UNL1       -0.2474
     29 C           8.8662    0.5471    1.5790 C.ar    1  UNL1        0.0787
     30 C           7.5162    0.6761    1.1345 C.ar    1  UNL1       -0.0275
     31 C           4.5737    0.8185    0.8530 C.ar    1  UNL1       -0.0523
     32 C           3.2563    0.8924    0.4074 C.ar    1  UNL1       -0.0392
     33 C           0.8173    0.1929   -1.9991 C.2     1  UNL1        0.3219
     34 O           1.4812    0.6549   -2.9619 O.2     1  UNL1       -0.2512
     35 N          -0.5885   -0.0259   -2.0080 N.am    1  UNL1       -0.2240
     36 C          -1.4765   -0.1860   -3.1045 C.ar    1  UNL1        0.1364
     37 C          -1.7637   -1.4128   -3.6622 C.ar    1  UNL1        0.0432
     38 C          -2.6383   -1.5284   -4.7276 C.ar    1  UNL1        0.2531
     39 O          -2.9114   -2.6497   -5.2498 O.2     1  UNL1       -0.2678
     40 N          -3.2291   -0.4373   -5.2430 N.ar    1  UNL1       -0.3133
     41 C          -2.9425    0.7527   -4.6928 C.ar    1  UNL1        0.0981
     42 N          -2.0857    0.8832   -3.6457 N.ar    1  UNL1       -0.2220
     43 H          -6.3073    1.5672    3.8483 H       1  UNL1        0.0278
     44 H          -4.6149    1.2632    3.1853 H       1  UNL1        0.0278
     45 H          -5.7581    2.4754    2.4060 H       1  UNL1        0.0278
     46 H          -7.4413   -0.3584    3.6523 H       1  UNL1        0.0621
     47 H          -8.2870   -2.2571    2.2323 H       1  UNL1        0.0633
     48 H          -7.4967   -2.5602   -0.0809 H       1  UNL1        0.0829
     49 H          -4.8408    1.0861   -0.8949 H       1  UNL1        0.0491
     50 H          -5.0820    2.1411    0.5125 H       1  UNL1        0.0491
     51 H          -2.5575    2.7505    0.5985 H       1  UNL1        0.0427
     52 H          -2.9127    2.0922   -1.0007 H       1  UNL1        0.0427
     53 H          -0.7517    1.3170    1.0180 H       1  UNL1        0.0303
     54 H          -0.5672    2.0417   -0.6546 H       1  UNL1        0.0303
     55 H          -2.8148   -0.8465   -1.3109 H       1  UNL1        0.0303
     56 H          -1.8762   -1.9652   -0.1986 H       1  UNL1        0.0303
     57 H          -3.9466   -1.1146    0.7614 H       1  UNL1        0.0427
     58 H          -2.5229   -0.6870    1.7426 H       1  UNL1        0.0427
     59 H           2.9998   -2.1615   -0.9753 H       1  UNL1        0.0636
     60 H           5.3080   -2.2730   -0.1864 H       1  UNL1        0.0624
     61 H           6.4642   -2.5548    1.4626 H       1  UNL1        0.0624
     62 H           8.8142   -2.7915    2.2376 H       1  UNL1        0.0629
     63 H          11.8524    1.9683    2.2089 H       1  UNL1        0.0907
     64 H           7.1087    1.6189    0.8185 H       1  UNL1        0.0645
     65 H           5.0185    1.6601    1.3689 H       1  UNL1        0.0624
     66 H           2.6669    1.8030    0.5763 H       1  UNL1        0.0636
     67 H          -1.3129   -2.3165   -3.2823 H       1  UNL1        0.0706
     68 H          -3.9060   -0.5090   -6.0630 H       1  UNL1        0.1698
     69 H          -3.4358    1.6169   -5.1308 H       1  UNL1        0.1028
@<TRIPOS>BOND
     1     1     2    1
     2     2     3   ar
     3     3     4   ar
     4     4     5   ar
     5     5     6   ar
     6     6     7   ar
     7     7     8    1
     8     8     9    1
     9     9    10    1
    10    10    11    1
    11    11    12    1
    12    12    13    1
    13    13    14    1
    14    12    15    1
    15    15    16    2
    16    15    17   am
    17    17    18    1
    18    18    19   ar
    19    19    20   ar
    20    20    21   ar
    21    21    22    1
    22    22    23   ar
    23    23    24   ar
    24    24    25   ar
    25    25    26   ar
    26    26    27   ar
    27    27    28   ar
    28    28    29   ar
    29    29    30   ar
    30    21    31   ar
    31    31    32   ar
    32    17    33   am
    33    33    34    2
    34    33    35   am
    35    35    36    1
    36    36    37   ar
    37    37    38   ar
    38    38    39    2
    39    38    40   ar
    40    40    41   ar
    41    41    42   ar
    42     7     2   ar
    43    14     9    1
    44    32    18   ar
    45    42    36   ar
    46    35    12    1
    47    30    22   ar
    48    29    25   ar
    49     1    43    1
    50     1    44    1
    51     1    45    1
    52     3    46    1
    53     4    47    1
    54     5    48    1
    55     8    49    1
    56     8    50    1
    57    10    51    1
    58    10    52    1
    59    11    53    1
    60    11    54    1
    61    13    55    1
    62    13    56    1
    63    14    57    1
    64    14    58    1
    65    19    59    1
    66    20    60    1
    67    23    61    1
    68    24    62    1
    69    27    63    1
    70    30    64    1
    71    31    65    1
    72    32    66    1
    73    37    67    1
    74    40    68    1
    75    41    69    1
