@<TRIPOS>MOLECULE
*****
 59 62 0 0 0
SMALL
GASTEIGER

@<TRIPOS>ATOM
      1 C          -6.7449    1.7467    0.0768 C.3     1  UNL1        0.0494
      2 N          -6.8577    0.4764    0.7414 N.pl3   1  UNL1       -0.2244
      3 C          -8.0687   -0.1231    1.2663 C.3     1  UNL1        0.0943
      4 C          -7.5097   -1.0498    2.3251 C.3     1  UNL1        0.1330
      5 N          -6.1563   -1.2765    1.8920 N.2     1  UNL1       -0.1140
      6 C          -5.7768   -0.4248    1.0010 C.cat   1  UNL1        0.3692
      7 N          -4.5026   -0.3746    0.3716 N.pl3   1  UNL1       -0.2235
      8 C          -4.3477   -0.7544   -1.0162 C.3     1  UNL1        0.0496
      9 C          -3.3797    0.0668    1.1657 C.3     1  UNL1        0.0856
     10 C          -2.1190    0.0790    0.4141 C.ar    1  UNL1       -0.0158
     11 C          -1.3300   -1.0476    0.4015 C.ar    1  UNL1       -0.0550
     12 C          -0.1164   -1.0829   -0.3030 C.ar    1  UNL1       -0.0493
     13 C           0.3023    0.0089   -0.9915 C.ar    1  UNL1        0.0370
     14 C           1.5371    0.0242   -1.7290 C.2     1  UNL1        0.2483
     15 O           1.8923    1.0691   -2.3612 O.2     1  UNL1       -0.2699
     16 N           2.4024   -1.0896   -1.7917 N.am    1  UNL1       -0.2808
     17 C           3.6378   -1.0335   -2.5460 C.ar    1  UNL1        0.0459
     18 C           3.6177   -1.4053   -3.8730 C.ar    1  UNL1       -0.0384
     19 C           4.7652   -1.3739   -4.6483 C.ar    1  UNL1       -0.0416
     20 C           5.9351   -0.9575   -4.0504 C.ar    1  UNL1        0.0418
     21 CL          7.4400   -0.8749   -4.9177 Cl      1  UNL1       -0.0835
     22 C           5.9288   -0.5887   -2.7138 C.ar    1  UNL1       -0.0295
     23 C           4.7922   -0.6191   -1.9435 C.ar    1  UNL1        0.0596
     24 C           4.7556   -0.2374   -0.5370 C.2     1  UNL1        0.2511
     25 O           3.6700   -0.2888    0.1181 O.2     1  UNL1       -0.2697
     26 N           5.8884    0.2090    0.1976 N.am    1  UNL1       -0.2663
     27 C           5.7723    0.5669    1.5795 C.ar    1  UNL1        0.1252
     28 C           5.4794    1.8448    1.9332 C.ar    1  UNL1       -0.0201
     29 C           5.3679    2.1861    3.2812 C.ar    1  UNL1       -0.0387
     30 C           5.5580    1.2160    4.2314 C.ar    1  UNL1        0.0592
     31 CL          5.4219    1.6250    5.9412 Cl      1  UNL1       -0.0820
     32 C           5.8544   -0.0741    3.8489 C.ar    1  UNL1        0.0480
     33 N           5.9516   -0.3553    2.5357 N.ar    1  UNL1       -0.2387
     34 C          -0.4807    1.1564   -0.9909 C.ar    1  UNL1       -0.0493
     35 C          -1.6880    1.1706   -0.2817 C.ar    1  UNL1       -0.0550
     36 H          -6.6516    2.5705    0.8375 H       1  UNL1        0.0597
     37 H          -7.6549    1.9914   -0.5077 H       1  UNL1        0.0597
     38 H          -5.8523    1.7503   -0.5910 H       1  UNL1        0.0597
     39 H          -8.6198   -0.6829    0.4826 H       1  UNL1        0.0667
     40 H          -8.7386    0.6488    1.7096 H       1  UNL1        0.0667
     41 H          -8.1038   -1.9802    2.4001 H       1  UNL1        0.0723
     42 H          -7.5191   -0.4764    3.2831 H       1  UNL1        0.0723
     43 H          -4.3934    0.1640   -1.6559 H       1  UNL1        0.0597
     44 H          -3.3405   -1.2120   -1.2019 H       1  UNL1        0.0597
     45 H          -5.1602   -1.4263   -1.3600 H       1  UNL1        0.0597
     46 H          -3.6438    1.0634    1.5879 H       1  UNL1        0.0685
     47 H          -3.3168   -0.6237    2.0382 H       1  UNL1        0.0685
     48 H          -1.6127   -1.9362    0.9276 H       1  UNL1        0.0621
     49 H           0.4495   -2.0004   -0.2678 H       1  UNL1        0.0625
     50 H           2.1441   -1.9578   -1.2882 H       1  UNL1        0.1552
     51 H           2.7048   -1.7308   -4.3414 H       1  UNL1        0.0637
     52 H           4.7784   -1.6587   -5.6869 H       1  UNL1        0.0633
     53 H           6.8473   -0.2630   -2.2491 H       1  UNL1        0.0640
     54 H           6.8064    0.2700   -0.2932 H       1  UNL1        0.1566
     55 H           5.3332    2.5939    1.1774 H       1  UNL1        0.0652
     56 H           5.1359    3.1986    3.5583 H       1  UNL1        0.0634
     57 H           5.9997   -0.8208    4.6163 H       1  UNL1        0.0845
     58 H          -0.2038    2.0544   -1.5173 H       1  UNL1        0.0625
     59 H          -2.2803    2.0497   -0.2857 H       1  UNL1        0.0621
@<TRIPOS>BOND
     1     1     2    1
     2     2     3    1
     3     3     4    1
     4     4     5    1
     5     5     6    2
     6     6     7    1
     7     7     8    1
     8     7     9    1
     9     9    10    1
    10    10    11   ar
    11    11    12   ar
    12    12    13   ar
    13    13    14    1
    14    14    15    2
    15    14    16   am
    16    16    17    1
    17    17    18   ar
    18    18    19   ar
    19    19    20   ar
    20    20    21    1
    21    20    22   ar
    22    22    23   ar
    23    23    24    1
    24    24    25    2
    25    24    26   am
    26    26    27    1
    27    27    28   ar
    28    28    29   ar
    29    29    30   ar
    30    30    31    1
    31    30    32   ar
    32    32    33   ar
    33    13    34   ar
    34    34    35   ar
    35     6     2    1
    36    35    10   ar
    37    23    17   ar
    38    33    27   ar
    39     1    36    1
    40     1    37    1
    41     1    38    1
    42     3    39    1
    43     3    40    1
    44     4    41    1
    45     4    42    1
    46     8    43    1
    47     8    44    1
    48     8    45    1
    49     9    46    1
    50     9    47    1
    51    11    48    1
    52    12    49    1
    53    16    50    1
    54    18    51    1
    55    19    52    1
    56    22    53    1
    57    26    54    1
    58    28    55    1
    59    29    56    1
    60    32    57    1
    61    34    58    1
    62    35    59    1
