
     RDKit          3D

 59 62  0  0  0  0  0  0  0  0999 V2000
   -6.7449    1.7467    0.0768 C   0  0  0  0  0  0  0  0  0  0  0  0
   -6.8577    0.4764    0.7414 N   0  0  0  0  0  0  0  0  0  0  0  0
   -8.0687   -0.1231    1.2663 C   0  0  0  0  0  0  0  0  0  0  0  0
   -7.5097   -1.0498    2.3251 C   0  0  0  0  0  0  0  0  0  0  0  0
   -6.1563   -1.2765    1.8920 N   0  0  0  0  0  0  0  0  0  0  0  0
   -5.7768   -0.4248    1.0010 C   0  0  0  0  0  0  0  0  0  0  0  0
   -4.5026   -0.3746    0.3716 N   0  0  0  0  0  0  0  0  0  0  0  0
   -4.3477   -0.7544   -1.0162 C   0  0  0  0  0  0  0  0  0  0  0  0
   -3.3797    0.0668    1.1657 C   0  0  0  0  0  0  0  0  0  0  0  0
   -2.1190    0.0790    0.4141 C   0  0  0  0  0  0  0  0  0  0  0  0
   -1.3300   -1.0476    0.4015 C   0  0  0  0  0  0  0  0  0  0  0  0
   -0.1164   -1.0829   -0.3030 C   0  0  0  0  0  0  0  0  0  0  0  0
    0.3023    0.0089   -0.9915 C   0  0  0  0  0  0  0  0  0  0  0  0
    1.5371    0.0242   -1.7290 C   0  0  0  0  0  0  0  0  0  0  0  0
    1.8923    1.0691   -2.3612 O   0  0  0  0  0  0  0  0  0  0  0  0
    2.4024   -1.0896   -1.7917 N   0  0  0  0  0  0  0  0  0  0  0  0
    3.6378   -1.0335   -2.5460 C   0  0  0  0  0  0  0  0  0  0  0  0
    3.6177   -1.4053   -3.8730 C   0  0  0  0  0  0  0  0  0  0  0  0
    4.7652   -1.3739   -4.6483 C   0  0  0  0  0  0  0  0  0  0  0  0
    5.9351   -0.9575   -4.0504 C   0  0  0  0  0  0  0  0  0  0  0  0
    7.4400   -0.8749   -4.9177 Cl  0  0  0  0  0  0  0  0  0  0  0  0
    5.9288   -0.5887   -2.7138 C   0  0  0  0  0  0  0  0  0  0  0  0
    4.7922   -0.6191   -1.9435 C   0  0  0  0  0  0  0  0  0  0  0  0
    4.7556   -0.2374   -0.5370 C   0  0  0  0  0  0  0  0  0  0  0  0
    3.6700   -0.2888    0.1181 O   0  0  0  0  0  0  0  0  0  0  0  0
    5.8884    0.2090    0.1976 N   0  0  0  0  0  0  0  0  0  0  0  0
    5.7723    0.5669    1.5795 C   0  0  0  0  0  0  0  0  0  0  0  0
    5.4794    1.8448    1.9332 C   0  0  0  0  0  0  0  0  0  0  0  0
    5.3679    2.1861    3.2812 C   0  0  0  0  0  0  0  0  0  0  0  0
    5.5580    1.2160    4.2314 C   0  0  0  0  0  0  0  0  0  0  0  0
    5.4219    1.6250    5.9412 Cl  0  0  0  0  0  0  0  0  0  0  0  0
    5.8544   -0.0741    3.8489 C   0  0  0  0  0  0  0  0  0  0  0  0
    5.9516   -0.3553    2.5357 N   0  0  0  0  0  0  0  0  0  0  0  0
   -0.4807    1.1564   -0.9909 C   0  0  0  0  0  0  0  0  0  0  0  0
   -1.6880    1.1706   -0.2817 C   0  0  0  0  0  0  0  0  0  0  0  0
   -6.6516    2.5705    0.8375 H   0  0  0  0  0  0  0  0  0  0  0  0
   -7.6549    1.9914   -0.5077 H   0  0  0  0  0  0  0  0  0  0  0  0
   -5.8523    1.7503   -0.5910 H   0  0  0  0  0  0  0  0  0  0  0  0
   -8.6198   -0.6829    0.4826 H   0  0  0  0  0  0  0  0  0  0  0  0
   -8.7386    0.6488    1.7096 H   0  0  0  0  0  0  0  0  0  0  0  0
   -8.1038   -1.9802    2.4001 H   0  0  0  0  0  0  0  0  0  0  0  0
   -7.5191   -0.4764    3.2831 H   0  0  0  0  0  0  0  0  0  0  0  0
   -4.3934    0.1640   -1.6559 H   0  0  0  0  0  0  0  0  0  0  0  0
   -3.3405   -1.2120   -1.2019 H   0  0  0  0  0  0  0  0  0  0  0  0
   -5.1602   -1.4263   -1.3600 H   0  0  0  0  0  0  0  0  0  0  0  0
   -3.6438    1.0634    1.5879 H   0  0  0  0  0  0  0  0  0  0  0  0
   -3.3168   -0.6237    2.0382 H   0  0  0  0  0  0  0  0  0  0  0  0
   -1.6127   -1.9362    0.9276 H   0  0  0  0  0  0  0  0  0  0  0  0
    0.4495   -2.0004   -0.2678 H   0  0  0  0  0  0  0  0  0  0  0  0
    2.1441   -1.9578   -1.2882 H   0  0  0  0  0  0  0  0  0  0  0  0
    2.7048   -1.7308   -4.3414 H   0  0  0  0  0  0  0  0  0  0  0  0
    4.7784   -1.6587   -5.6869 H   0  0  0  0  0  0  0  0  0  0  0  0
    6.8473   -0.2630   -2.2491 H   0  0  0  0  0  0  0  0  0  0  0  0
    6.8064    0.2700   -0.2932 H   0  0  0  0  0  0  0  0  0  0  0  0
    5.3332    2.5939    1.1774 H   0  0  0  0  0  0  0  0  0  0  0  0
    5.1359    3.1986    3.5583 H   0  0  0  0  0  0  0  0  0  0  0  0
    5.9997   -0.8208    4.6163 H   0  0  0  0  0  0  0  0  0  0  0  0
   -0.2038    2.0544   -1.5173 H   0  0  0  0  0  0  0  0  0  0  0  0
   -2.2803    2.0497   -0.2857 H   0  0  0  0  0  0  0  0  0  0  0  0
  1  2  1  0
  2  3  1  0
  3  4  1  0
  4  5  1  0
  5  6  2  0
  6  7  1  0
  7  8  1  0
  7  9  1  0
  9 10  1  0
 10 11  2  0
 11 12  1  0
 12 13  2  0
 13 14  1  0
 14 15  2  0
 14 16  1  0
 16 17  1  0
 17 18  2  0
 18 19  1  0
 19 20  2  0
 20 21  1  0
 20 22  1  0
 22 23  2  0
 23 24  1  0
 24 25  2  0
 24 26  1  0
 26 27  1  0
 27 28  2  0
 28 29  1  0
 29 30  2  0
 30 31  1  0
 30 32  1  0
 32 33  2  0
 13 34  1  0
 34 35  2  0
  6  2  1  0
 35 10  1  0
 23 17  1  0
 33 27  1  0
  1 36  1  0
  1 37  1  0
  1 38  1  0
  3 39  1  0
  3 40  1  0
  4 41  1  0
  4 42  1  0
  8 43  1  0
  8 44  1  0
  8 45  1  0
  9 46  1  0
  9 47  1  0
 11 48  1  0
 12 49  1  0
 16 50  1  0
 18 51  1  0
 19 52  1  0
 22 53  1  0
 26 54  1  0
 28 55  1  0
 29 56  1  0
 32 57  1  0
 34 58  1  0
 35 59  1  0
M  END
$$$$
