@<TRIPOS>MOLECULE
*****
 57 62 0 0 0
SMALL
GASTEIGER

@<TRIPOS>ATOM
      1 C          -1.9634   -2.9052   -3.0122 C.3     1  UNL1        0.0694
      2 O          -2.6545   -3.7410   -3.8859 O.3     1  UNL1       -0.3905
      3 C          -2.8290   -2.4329   -1.8770 C.3     1  UNL1        0.0259
      4 N          -1.8798   -2.0230   -0.8650 N.3     1  UNL1       -0.2885
      5 C          -0.6393   -2.6986   -1.1032 C.3     1  UNL1        0.0253
      6 C          -0.8275   -3.5869   -2.2979 C.3     1  UNL1       -0.0092
      7 C           0.3944   -1.6240   -1.3891 C.3     1  UNL1        0.0646
      8 C           1.6649   -1.8340   -0.6616 C.2     1  UNL1        0.2275
      9 O           2.6359   -2.4821   -1.1222 O.2     1  UNL1       -0.2748
     10 N           1.4903   -1.1530    0.5979 N.am    1  UNL1       -0.2372
     11 C           2.6179   -1.1079    1.5248 C.3     1  UNL1        0.0475
     12 C           3.4870    0.0609    1.3312 C.ar    1  UNL1       -0.0259
     13 C           3.3647    1.2942    1.9389 C.ar    1  UNL1       -0.0534
     14 C           4.2628    2.3052    1.6571 C.ar    1  UNL1       -0.0158
     15 C           5.3156    2.1321    0.7628 C.ar    1  UNL1        0.1662
     16 O           6.3218    3.0017    0.3379 O.3     1  UNL1       -0.4526
     17 C           6.9790    2.3468   -0.7220 C.3     1  UNL1        0.2332
     18 O           6.5628    0.9949   -0.6837 O.3     1  UNL1       -0.4526
     19 C           5.4376    0.8986    0.1553 C.ar    1  UNL1        0.1665
     20 C           4.5362   -0.1176    0.4375 C.ar    1  UNL1       -0.0114
     21 C           0.1483   -0.6248    0.6819 C.2     1  UNL1        0.2278
     22 O          -0.2628   -0.5468    1.8924 O.2     1  UNL1       -0.2748
     23 C          -0.2030   -0.3831   -0.7577 C.3     1  UNL1        0.0683
     24 C          -1.6704   -0.6118   -1.0392 C.3     1  UNL1        0.0478
     25 C          -2.4195    0.2518   -0.1125 C.ar    1  UNL1       -0.0295
     26 C          -1.8208    1.3620    0.4990 C.ar    1  UNL1       -0.0562
     27 C          -2.4733    2.1963    1.3720 C.ar    1  UNL1       -0.0466
     28 C          -3.7805    1.9627    1.6862 C.ar    1  UNL1        0.0647
     29 C          -4.4199    0.8978    1.1240 C.ar    1  UNL1       -0.0466
     30 C          -3.7464    0.0807    0.2562 C.ar    1  UNL1       -0.0562
     31 C          -4.5215    2.8145    2.6056 C.2     1  UNL1        0.3081
     32 N          -4.3982    4.1988    2.9023 N.pl3   1  UNL1       -0.2466
     33 N          -5.4883    2.4022    3.3561 N.2     1  UNL1       -0.0994
     34 H          -1.5913   -2.0600   -3.6181 H       1  UNL1        0.0606
     35 H          -2.9668   -3.2519   -4.7114 H       1  UNL1        0.2098
     36 H          -3.4664   -3.2696   -1.5534 H       1  UNL1        0.0452
     37 H          -3.4274   -1.5680   -2.2391 H       1  UNL1        0.0452
     38 H          -0.2787   -3.3129   -0.2758 H       1  UNL1        0.0471
     39 H          -1.1873   -4.6107   -1.9992 H       1  UNL1        0.0306
     40 H           0.0780   -3.6583   -2.9396 H       1  UNL1        0.0306
     41 H           0.5222   -1.4342   -2.4556 H       1  UNL1        0.0418
     42 H           2.1785   -1.0227    2.5556 H       1  UNL1        0.0519
     43 H           3.1619   -2.0665    1.5313 H       1  UNL1        0.0519
     44 H           2.5414    1.4019    2.6266 H       1  UNL1        0.0622
     45 H           4.1545    3.2628    2.1393 H       1  UNL1        0.0655
     46 H           8.0906    2.4153   -0.5484 H       1  UNL1        0.1166
     47 H           6.7158    2.8123   -1.7025 H       1  UNL1        0.1166
     48 H           4.7371   -1.0326   -0.0994 H       1  UNL1        0.0658
     49 H           0.1983    0.5570   -1.1214 H       1  UNL1        0.0421
     50 H          -1.8514   -0.2614   -2.0603 H       1  UNL1        0.0520
     51 H          -0.7887    1.6231    0.3056 H       1  UNL1        0.0621
     52 H          -1.9825    3.0454    1.8274 H       1  UNL1        0.0626
     53 H          -5.4661    0.6936    1.3624 H       1  UNL1        0.0626
     54 H          -4.2791   -0.7408   -0.1620 H       1  UNL1        0.0621
     55 H          -4.2952    4.7447    2.0140 H       1  UNL1        0.2884
     56 H          -4.2805    5.0185    2.2520 H       1  UNL1        0.2884
     57 H          -5.7381    1.3863    3.2820 H       1  UNL1        0.3633
@<TRIPOS>BOND
     1     1     2    1
     2     1     3    1
     3     3     4    1
     4     4     5    1
     5     5     6    1
     6     5     7    1
     7     7     8    1
     8     8     9    2
     9     8    10   am
    10    10    11    1
    11    11    12    1
    12    12    13   ar
    13    13    14   ar
    14    14    15   ar
    15    15    16    1
    16    16    17    1
    17    17    18    1
    18    18    19    1
    19    19    20   ar
    20    10    21   am
    21    21    22    2
    22    21    23    1
    23    23    24    1
    24    24    25    1
    25    25    26   ar
    26    26    27   ar
    27    27    28   ar
    28    28    29   ar
    29    29    30   ar
    30    28    31    1
    31    31    32    1
    32    31    33    2
    33     6     1    1
    34    23     7    1
    35    30    25   ar
    36    24     4    1
    37    20    12   ar
    38    19    15   ar
    39     1    34    1
    40     2    35    1
    41     3    36    1
    42     3    37    1
    43     5    38    1
    44     6    39    1
    45     6    40    1
    46     7    41    1
    47    11    42    1
    48    11    43    1
    49    13    44    1
    50    14    45    1
    51    17    46    1
    52    17    47    1
    53    20    48    1
    54    23    49    1
    55    24    50    1
    56    26    51    1
    57    27    52    1
    58    29    53    1
    59    30    54    1
    60    32    55    1
    61    32    56    1
    62    33    57    1
