@<TRIPOS>MOLECULE
*****
 118 120 0 0 0
SMALL
GASTEIGER

@<TRIPOS>ATOM
      1 C          -6.4129   -2.9306    1.4991 C.3     1  UNL1       -0.0618
      2 C          -5.0666   -2.3826    1.8149 C.3     1  UNL1       -0.0157
      3 C          -3.9570   -2.7312    0.8099 C.3     1  UNL1        0.1335
      4 O          -2.7627   -2.1045    1.2601 O.3     1  UNL1       -0.4581
      5 C          -2.2524   -0.9853    0.6519 C.2     1  UNL1        0.3128
      6 O          -2.9481   -0.5680   -0.3096 O.2     1  UNL1       -0.2504
      7 C          -0.9893   -0.4308    1.1737 C.3     1  UNL1        0.0801
      8 C          -1.3557   -0.0036    2.6263 C.3     1  UNL1       -0.0499
      9 C          -0.4321    0.7422    0.4284 C.3     1  UNL1        0.0793
     10 O          -1.0571    1.8461    0.9458 O.3     1  UNL1       -0.3468
     11 C          -1.8769    2.6061    0.1842 C.3     1  UNL1        0.1627
     12 C          -3.2116    2.6724    0.8889 C.3     1  UNL1        0.0298
     13 C          -4.0017    3.9027    0.5034 C.3     1  UNL1        0.0991
     14 C          -5.4418    3.5037    0.2347 C.3     1  UNL1       -0.0331
     15 O          -3.9418    4.7835    1.5507 O.3     1  UNL1       -0.3740
     16 C          -4.6068    5.9655    1.4162 C.3     1  UNL1        0.0373
     17 C          -3.4190    4.4082   -0.7921 C.3     1  UNL1        0.1098
     18 O          -4.2000    5.3966   -1.3782 O.3     1  UNL1       -0.3864
     19 C          -2.0121    4.8405   -0.5285 C.3     1  UNL1        0.0874
     20 C          -1.3895    5.0999   -1.9116 C.3     1  UNL1       -0.0361
     21 O          -1.2987    3.8673    0.0772 O.3     1  UNL1       -0.3456
     22 C           1.0570    0.7879    0.4934 C.3     1  UNL1        0.0124
     23 C           1.3566    2.2441   -0.1160 C.3     1  UNL1       -0.0576
     24 C           1.9534   -0.0954   -0.2727 C.3     1  UNL1        0.0951
     25 O           3.2113    0.1736    0.1601 O.3     1  UNL1       -0.3423
     26 C           4.2896    0.6693   -0.2800 C.3     1  UNL1        0.1871
     27 O           5.2192   -0.3869   -0.5721 O.3     1  UNL1       -0.3457
     28 C           6.2108    0.0321   -1.4207 C.3     1  UNL1        0.0605
     29 C           7.4910   -0.6983   -1.0121 C.3     1  UNL1       -0.0385
     30 C           6.3940    1.4754   -1.6440 C.3     1  UNL1       -0.0085
     31 C           5.9629    2.4263   -0.6077 C.3     1  UNL1        0.0429
     32 C           5.0676    1.7473    0.4037 C.3     1  UNL1        0.1214
     33 O           4.3468    2.7142    1.0398 O.3     1  UNL1       -0.3852
     34 N           7.0128    3.1605    0.0349 N.3     1  UNL1       -0.3027
     35 C           8.0197    2.4118    0.6949 C.3     1  UNL1       -0.0127
     36 C           6.5380    4.2587    0.8129 C.3     1  UNL1       -0.0127
     37 C           1.7424   -1.5711   -0.4963 C.3     1  UNL1        0.0903
     38 C           2.1688   -2.4514    0.6368 C.3     1  UNL1       -0.0336
     39 O           2.8321   -1.9165   -1.4565 O.3     1  UNL1       -0.3863
     40 C           0.5909   -1.9745   -1.2518 C.3     1  UNL1       -0.0125
     41 C           0.0636   -3.3299   -1.4812 C.3     1  UNL1        0.0177
     42 C           1.0174   -4.2870   -2.1405 C.3     1  UNL1       -0.0556
     43 C          -0.6355   -4.0185   -0.3701 C.2     1  UNL1        0.1416
     44 O          -0.4035   -3.8193    0.8105 O.2     1  UNL1       -0.2967
     45 C          -1.6969   -5.0300   -0.4219 C.3     1  UNL1        0.0437
     46 C          -1.3403   -6.1081   -1.4666 C.3     1  UNL1       -0.0532
     47 C          -3.1118   -4.6633   -0.6058 C.3     1  UNL1        0.0963
     48 O          -3.6764   -6.0286   -0.8350 O.3     1  UNL1       -0.3881
     49 C          -3.9076   -4.1842    0.5855 C.3     1  UNL1        0.1262
     50 C          -3.7566   -5.0552    1.7836 C.3     1  UNL1       -0.0301
     51 O          -5.2662   -4.4550    0.1154 O.3     1  UNL1       -0.3826
     52 H          -7.1548   -2.2476    2.0510 H       1  UNL1        0.0231
     53 H          -6.6797   -2.7377    0.4341 H       1  UNL1        0.0231
     54 H          -6.6218   -3.9556    1.8221 H       1  UNL1        0.0231
     55 H          -4.7345   -2.7662    2.8155 H       1  UNL1        0.0299
     56 H          -5.1545   -1.2627    1.8793 H       1  UNL1        0.0299
     57 H          -4.2757   -2.2038   -0.1069 H       1  UNL1        0.0764
     58 H          -0.2892   -1.2490    1.3377 H       1  UNL1        0.0436
     59 H          -2.3676    0.4340    2.5447 H       1  UNL1        0.0238
     60 H          -1.3997   -0.9088    3.2256 H       1  UNL1        0.0238
     61 H          -0.6688    0.7867    2.9745 H       1  UNL1        0.0238
     62 H          -0.7917    0.7473   -0.6526 H       1  UNL1        0.0608
     63 H          -1.9820    2.2018   -0.8207 H       1  UNL1        0.0911
     64 H          -3.0426    2.6426    1.9819 H       1  UNL1        0.0343
     65 H          -3.7952    1.7846    0.6150 H       1  UNL1        0.0343
     66 H          -5.4185    2.4358   -0.0930 H       1  UNL1        0.0258
     67 H          -5.9091    4.0585   -0.5900 H       1  UNL1        0.0258
     68 H          -6.0503    3.5187    1.1662 H       1  UNL1        0.0258
     69 H          -5.6982    5.8621    1.2567 H       1  UNL1        0.0524
     70 H          -4.1255    6.6319    0.6842 H       1  UNL1        0.0524
     71 H          -4.5027    6.5022    2.4005 H       1  UNL1        0.0524
     72 H          -3.4232    3.5533   -1.4942 H       1  UNL1        0.0648
     73 H          -4.5093    5.1991   -2.2847 H       1  UNL1        0.2100
     74 H          -1.9868    5.8081    0.0216 H       1  UNL1        0.0621
     75 H          -1.1191    4.1404   -2.4122 H       1  UNL1        0.0255
     76 H          -0.5613    5.8261   -1.8617 H       1  UNL1        0.0255
     77 H          -2.1585    5.5500   -2.6027 H       1  UNL1        0.0255
     78 H           1.3965    0.9673    1.5466 H       1  UNL1        0.0349
     79 H           1.2075    2.9816    0.6561 H       1  UNL1        0.0234
     80 H           0.6204    2.3072   -0.9636 H       1  UNL1        0.0234
     81 H           2.3296    2.2107   -0.6009 H       1  UNL1        0.0234
     82 H           1.9868    0.3124   -1.3195 H       1  UNL1        0.0629
     83 H           4.1572    1.0274   -1.3256 H       1  UNL1        0.0937
     84 H           5.9470   -0.4436   -2.4161 H       1  UNL1        0.0595
     85 H           7.5694   -1.7057   -1.5112 H       1  UNL1        0.0255
     86 H           7.5149   -0.9189    0.0757 H       1  UNL1        0.0255
     87 H           8.4043   -0.1575   -1.2517 H       1  UNL1        0.0255
     88 H           5.9087    1.7673   -2.6268 H       1  UNL1        0.0306
     89 H           7.4963    1.6092   -1.8957 H       1  UNL1        0.0306
     90 H           5.2968    3.2254   -1.0663 H       1  UNL1        0.0490
     91 H           5.7699    1.3344    1.1744 H       1  UNL1        0.0660
     92 H           4.0894    2.5355    1.9578 H       1  UNL1        0.2101
     93 H           7.7656    1.3861    0.9650 H       1  UNL1        0.0391
     94 H           8.2274    2.9213    1.6832 H       1  UNL1        0.0391
     95 H           9.0251    2.4786    0.1809 H       1  UNL1        0.0391
     96 H           6.2317    3.9037    1.8142 H       1  UNL1        0.0391
     97 H           7.3093    5.0499    0.8837 H       1  UNL1        0.0391
     98 H           5.6194    4.6863    0.3279 H       1  UNL1        0.0391
     99 H           1.6565   -2.3150    1.5707 H       1  UNL1        0.0258
    100 H           2.1731   -3.5256    0.3236 H       1  UNL1        0.0258
    101 H           3.3049   -2.3231    0.8174 H       1  UNL1        0.0258
    102 H           3.2072   -2.7750   -1.2136 H       1  UNL1        0.2103
    103 H           0.9037   -1.6543   -2.3780 H       1  UNL1        0.0300
    104 H          -0.2697   -1.2966   -1.1840 H       1  UNL1        0.0300
    105 H          -0.7458   -3.1845   -2.2657 H       1  UNL1        0.0376
    106 H           1.7545   -3.7625   -2.7957 H       1  UNL1        0.0236
    107 H           1.5066   -5.0027   -1.4534 H       1  UNL1        0.0236
    108 H           0.4548   -4.9039   -2.8611 H       1  UNL1        0.0236
    109 H          -1.6207   -5.6717    0.5325 H       1  UNL1        0.0401
    110 H          -0.3387   -6.4819   -1.2944 H       1  UNL1        0.0237
    111 H          -1.6365   -5.8359   -2.4759 H       1  UNL1        0.0237
    112 H          -2.0328   -6.9790   -1.2080 H       1  UNL1        0.0237
    113 H          -3.3513   -4.1420   -1.5048 H       1  UNL1        0.0630
    114 H          -3.7969   -6.1441   -1.7884 H       1  UNL1        0.2099
    115 H          -2.7210   -5.0993    2.1761 H       1  UNL1        0.0259
    116 H          -4.1139   -6.0853    1.4832 H       1  UNL1        0.0259
    117 H          -4.5021   -4.7556    2.5432 H       1  UNL1        0.0259
    118 H          -5.4019   -5.4189    0.1304 H       1  UNL1        0.2104
@<TRIPOS>BOND
     1     1     2    1
     2     2     3    1
     3     3     4    1
     4     4     5    1
     5     5     6    2
     6     5     7    1
     7     7     8    1
     8     7     9    1
     9     9    10    1
    10    10    11    1
    11    11    12    1
    12    12    13    1
    13    13    14    1
    14    13    15    1
    15    15    16    1
    16    13    17    1
    17    17    18    1
    18    17    19    1
    19    19    20    1
    20    19    21    1
    21     9    22    1
    22    22    23    1
    23    22    24    1
    24    24    25    1
    25    25    26    1
    26    26    27    1
    27    27    28    1
    28    28    29    1
    29    28    30    1
    30    30    31    1
    31    31    32    1
    32    32    33    1
    33    31    34    1
    34    34    35    1
    35    34    36    1
    36    24    37    1
    37    37    38    1
    38    37    39    1
    39    37    40    1
    40    40    41    1
    41    41    42    1
    42    41    43    1
    43    43    44    2
    44    43    45    1
    45    45    46    1
    46    45    47    1
    47    47    48    1
    48    47    49    1
    49    49    50    1
    50    49    51    1
    51    49     3    1
    52    21    11    1
    53    32    26    1
    54     1    52    1
    55     1    53    1
    56     1    54    1
    57     2    55    1
    58     2    56    1
    59     3    57    1
    60     7    58    1
    61     8    59    1
    62     8    60    1
    63     8    61    1
    64     9    62    1
    65    11    63    1
    66    12    64    1
    67    12    65    1
    68    14    66    1
    69    14    67    1
    70    14    68    1
    71    16    69    1
    72    16    70    1
    73    16    71    1
    74    17    72    1
    75    18    73    1
    76    19    74    1
    77    20    75    1
    78    20    76    1
    79    20    77    1
    80    22    78    1
    81    23    79    1
    82    23    80    1
    83    23    81    1
    84    24    82    1
    85    26    83    1
    86    28    84    1
    87    29    85    1
    88    29    86    1
    89    29    87    1
    90    30    88    1
    91    30    89    1
    92    31    90    1
    93    32    91    1
    94    33    92    1
    95    35    93    1
    96    35    94    1
    97    35    95    1
    98    36    96    1
    99    36    97    1
   100    36    98    1
   101    38    99    1
   102    38   100    1
   103    38   101    1
   104    39   102    1
   105    40   103    1
   106    40   104    1
   107    41   105    1
   108    42   106    1
   109    42   107    1
   110    42   108    1
   111    45   109    1
   112    46   110    1
   113    46   111    1
   114    46   112    1
   115    47   113    1
   116    48   114    1
   117    50   115    1
   118    50   116    1
   119    50   117    1
   120    51   118    1
