
     RDKit          3D

 48 51  0  0  0  0  0  0  0  0999 V2000
   -2.9568   -2.6348   -0.6951 C   0  0  0  0  0  0  0  0  0  0  0  0
   -3.2012   -1.2553   -1.2198 C   0  0  1  0  0  0  0  0  0  0  0  0
   -4.6460   -0.8880   -1.3296 C   0  0  0  0  0  0  0  0  0  0  0  0
   -4.9299   -0.2692   -0.0066 C   0  0  0  0  0  0  0  0  0  0  0  0
   -6.0905   -0.0334    0.7063 C   0  0  0  0  0  0  0  0  0  0  0  0
   -6.0717    0.5752    1.9453 C   0  0  0  0  0  0  0  0  0  0  0  0
   -4.8713    0.9675    2.5071 C   0  0  0  0  0  0  0  0  0  0  0  0
   -3.7330    0.7183    1.7715 C   0  0  0  0  0  0  0  0  0  0  0  0
   -3.7321    0.1103    0.5298 C   0  0  0  0  0  0  0  0  0  0  0  0
   -2.6589   -0.2165   -0.3494 N   0  0  0  0  0  0  0  0  0  0  0  0
   -1.3549    0.3354   -0.3812 C   0  0  0  0  0  0  0  0  0  0  0  0
   -1.0737    1.2230    0.4511 O   0  0  0  0  0  0  0  0  0  0  0  0
   -0.3144   -0.0800   -1.3411 C   0  0  0  0  0  0  0  0  0  0  0  0
    0.9361    0.7090   -1.0876 C   0  0  0  0  0  0  0  0  0  0  0  0
    1.8816    0.2635   -0.2403 N   0  0  0  0  0  0  0  0  0  0  0  0
    3.0220    0.9371    0.0215 C   0  0  0  0  0  0  0  0  0  0  0  0
    3.9896    0.4324    0.9200 N   0  0  0  0  0  0  0  0  0  0  0  0
    3.7097   -0.8456    1.5767 C   0  0  0  0  0  0  0  0  0  0  0  0
    4.9118   -1.7294    1.6422 C   0  0  0  0  0  0  0  0  0  0  0  0
    6.0723   -1.0247    1.9649 O   0  0  0  0  0  0  0  0  0  0  0  0
    6.3234   -0.0053    1.0565 C   0  0  0  0  0  0  0  0  0  0  0  0
    5.2393    1.0575    1.2585 C   0  0  0  0  0  0  0  0  0  0  0  0
    3.1639    2.1353   -0.6456 C   0  0  0  0  0  0  0  0  0  0  0  0
    2.1749    2.5932   -1.5268 C   0  0  0  0  0  0  0  0  0  0  0  0
    2.3003    3.6903   -2.1403 O   0  0  0  0  0  0  0  0  0  0  0  0
    1.0606    1.8772   -1.7463 N   0  0  0  0  0  0  0  0  0  0  0  0
   -2.5584   -3.2690   -1.5189 H   0  0  0  0  0  0  0  0  0  0  0  0
   -3.9340   -3.0759   -0.4070 H   0  0  0  0  0  0  0  0  0  0  0  0
   -2.2286   -2.6181    0.1453 H   0  0  0  0  0  0  0  0  0  0  0  0
   -2.6910   -1.1115   -2.2037 H   0  0  0  0  0  0  0  0  0  0  0  0
   -5.2564   -1.8105   -1.4390 H   0  0  0  0  0  0  0  0  0  0  0  0
   -4.8523   -0.1566   -2.1417 H   0  0  0  0  0  0  0  0  0  0  0  0
   -7.0542   -0.3353    0.2817 H   0  0  0  0  0  0  0  0  0  0  0  0
   -7.0000    0.7506    2.4885 H   0  0  0  0  0  0  0  0  0  0  0  0
   -4.7994    1.4464    3.4706 H   0  0  0  0  0  0  0  0  0  0  0  0
   -2.7912    1.0221    2.2034 H   0  0  0  0  0  0  0  0  0  0  0  0
   -0.1065   -1.1712   -1.2894 H   0  0  0  0  0  0  0  0  0  0  0  0
   -0.6776    0.1729   -2.3557 H   0  0  0  0  0  0  0  0  0  0  0  0
    3.4324   -0.5858    2.6340 H   0  0  0  0  0  0  0  0  0  0  0  0
    2.8794   -1.3644    1.0960 H   0  0  0  0  0  0  0  0  0  0  0  0
    5.0953   -2.2542    0.6787 H   0  0  0  0  0  0  0  0  0  0  0  0
    4.7671   -2.4857    2.4318 H   0  0  0  0  0  0  0  0  0  0  0  0
    7.3189    0.3952    1.2520 H   0  0  0  0  0  0  0  0  0  0  0  0
    6.2323   -0.3858   -0.0020 H   0  0  0  0  0  0  0  0  0  0  0  0
    5.2771    1.2930    2.3640 H   0  0  0  0  0  0  0  0  0  0  0  0
    5.4526    1.9640    0.6990 H   0  0  0  0  0  0  0  0  0  0  0  0
    4.0408    2.7390   -0.4977 H   0  0  0  0  0  0  0  0  0  0  0  0
    0.3026    2.1978   -2.4026 H   0  0  0  0  0  0  0  0  0  0  0  0
  1  2  1  0
  2  3  1  0
  3  4  1  0
  4  5  2  0
  5  6  1  0
  6  7  2  0
  7  8  1  0
  8  9  2  0
  9 10  1  0
 10 11  1  0
 11 12  2  0
 11 13  1  0
 13 14  1  0
 14 15  2  0
 15 16  1  0
 16 17  1  0
 17 18  1  0
 18 19  1  0
 19 20  1  0
 20 21  1  0
 21 22  1  0
 16 23  2  0
 23 24  1  0
 24 25  2  0
 24 26  1  0
 10  2  1  0
 26 14  1  0
  9  4  1  0
 22 17  1  0
  1 27  1  0
  1 28  1  0
  1 29  1  0
  2 30  1  6
  3 31  1  0
  3 32  1  0
  5 33  1  0
  6 34  1  0
  7 35  1  0
  8 36  1  0
 13 37  1  0
 13 38  1  0
 18 39  1  0
 18 40  1  0
 19 41  1  0
 19 42  1  0
 21 43  1  0
 21 44  1  0
 22 45  1  0
 22 46  1  0
 23 47  1  0
 26 48  1  0
M  END
$$$$
