@<TRIPOS>MOLECULE
*****
 48 51 0 0 0
SMALL
GASTEIGER

@<TRIPOS>ATOM
      1 C          -2.9568   -2.6348   -0.6951 C.3     1  UNL1       -0.0457
      2 C          -3.2012   -1.2553   -1.2198 C.3     1  UNL1        0.0323
      3 C          -4.6460   -0.8880   -1.3296 C.3     1  UNL1       -0.0071
      4 C          -4.9299   -0.2692   -0.0066 C.ar    1  UNL1       -0.0242
      5 C          -6.0905   -0.0334    0.7063 C.ar    1  UNL1       -0.0567
      6 C          -6.0717    0.5752    1.9453 C.ar    1  UNL1       -0.0614
      7 C          -4.8713    0.9675    2.5071 C.ar    1  UNL1       -0.0600
      8 C          -3.7330    0.7183    1.7715 C.ar    1  UNL1       -0.0400
      9 C          -3.7321    0.1103    0.5298 C.ar    1  UNL1        0.0398
     10 N          -2.6589   -0.2165   -0.3494 N.am    1  UNL1       -0.2677
     11 C          -1.3549    0.3354   -0.3812 C.2     1  UNL1        0.2273
     12 O          -1.0737    1.2230    0.4511 O.2     1  UNL1       -0.2748
     13 C          -0.3144   -0.0800   -1.3411 C.3     1  UNL1        0.0826
     14 C           0.9361    0.7090   -1.0876 C.ar    1  UNL1        0.1206
     15 N           1.8816    0.2635   -0.2403 N.ar    1  UNL1       -0.2186
     16 C           3.0220    0.9371    0.0215 C.ar    1  UNL1        0.1285
     17 N           3.9896    0.4324    0.9200 N.pl3   1  UNL1       -0.3106
     18 C           3.7097   -0.8456    1.5767 C.3     1  UNL1        0.0370
     19 C           4.9118   -1.7294    1.6422 C.3     1  UNL1        0.0634
     20 O           6.0723   -1.0247    1.9649 O.3     1  UNL1       -0.3767
     21 C           6.3234   -0.0053    1.0565 C.3     1  UNL1        0.0634
     22 C           5.2393    1.0575    1.2585 C.3     1  UNL1        0.0370
     23 C           3.1639    2.1353   -0.6456 C.ar    1  UNL1        0.0427
     24 C           2.1749    2.5932   -1.5268 C.ar    1  UNL1        0.2533
     25 O           2.3003    3.6903   -2.1403 O.2     1  UNL1       -0.2677
     26 N           1.0606    1.8772   -1.7463 N.ar    1  UNL1       -0.3104
     27 H          -2.5584   -3.2690   -1.5189 H       1  UNL1        0.0248
     28 H          -3.9340   -3.0759   -0.4070 H       1  UNL1        0.0248
     29 H          -2.2286   -2.6181    0.1453 H       1  UNL1        0.0248
     30 H          -2.6910   -1.1115   -2.2037 H       1  UNL1        0.0505
     31 H          -5.2564   -1.8105   -1.4390 H       1  UNL1        0.0332
     32 H          -4.8523   -0.1566   -2.1417 H       1  UNL1        0.0332
     33 H          -7.0542   -0.3353    0.2817 H       1  UNL1        0.0621
     34 H          -7.0000    0.7506    2.4885 H       1  UNL1        0.0618
     35 H          -4.7994    1.4464    3.4706 H       1  UNL1        0.0618
     36 H          -2.7912    1.0221    2.2034 H       1  UNL1        0.0636
     37 H          -0.1065   -1.1712   -1.2894 H       1  UNL1        0.0438
     38 H          -0.6776    0.1729   -2.3557 H       1  UNL1        0.0438
     39 H           3.4324   -0.5858    2.6340 H       1  UNL1        0.0487
     40 H           2.8794   -1.3644    1.0960 H       1  UNL1        0.0487
     41 H           5.0953   -2.2542    0.6787 H       1  UNL1        0.0575
     42 H           4.7671   -2.4857    2.4318 H       1  UNL1        0.0575
     43 H           7.3189    0.3952    1.2520 H       1  UNL1        0.0575
     44 H           6.2323   -0.3858   -0.0020 H       1  UNL1        0.0575
     45 H           5.2771    1.2930    2.3640 H       1  UNL1        0.0487
     46 H           5.4526    1.9640    0.6990 H       1  UNL1        0.0487
     47 H           4.0408    2.7390   -0.4977 H       1  UNL1        0.0706
     48 H           0.3026    2.1978   -2.4026 H       1  UNL1        0.1700
@<TRIPOS>BOND
     1     1     2    1
     2     2     3    1
     3     3     4    1
     4     4     5   ar
     5     5     6   ar
     6     6     7   ar
     7     7     8   ar
     8     8     9   ar
     9     9    10    1
    10    10    11   am
    11    11    12    2
    12    11    13    1
    13    13    14    1
    14    14    15   ar
    15    15    16   ar
    16    16    17    1
    17    17    18    1
    18    18    19    1
    19    19    20    1
    20    20    21    1
    21    21    22    1
    22    16    23   ar
    23    23    24   ar
    24    24    25    2
    25    24    26   ar
    26    10     2    1
    27    26    14   ar
    28     9     4   ar
    29    22    17    1
    30     1    27    1
    31     1    28    1
    32     1    29    1
    33     2    30    1
    34     3    31    1
    35     3    32    1
    36     5    33    1
    37     6    34    1
    38     7    35    1
    39     8    36    1
    40    13    37    1
    41    13    38    1
    42    18    39    1
    43    18    40    1
    44    19    41    1
    45    19    42    1
    46    21    43    1
    47    21    44    1
    48    22    45    1
    49    22    46    1
    50    23    47    1
    51    26    48    1
