@<TRIPOS>MOLECULE
*****
 49 51 0 0 0
SMALL
GASTEIGER

@<TRIPOS>ATOM
      1 C           5.4483   -1.0317    2.0393 C.3     1  UNL1       -0.0303
      2 C           4.0559   -0.7246    2.6101 C.3     1  UNL1        0.1283
      3 O           3.2433   -1.8240    2.5253 O.3     1  UNL1       -0.3828
      4 C           3.5242    0.5271    2.0593 C.2     1  UNL1        0.2440
      5 O           4.2999    1.5538    2.2506 O.2     1  UNL1       -0.2728
      6 N           2.3201    0.7335    1.3772 N.am    1  UNL1       -0.2975
      7 C           1.8619    2.0313    0.8777 C.3     1  UNL1        0.0165
      8 C           0.5335    1.7590    0.1698 C.3     1  UNL1       -0.0170
      9 C           0.7018    0.2654   -0.2202 C.3     1  UNL1        0.0410
     10 N          -0.3651   -0.2764   -0.9273 N.pl3   1  UNL1       -0.3209
     11 C          -0.6787    0.4467   -2.1919 C.3     1  UNL1        0.0390
     12 C          -1.6533    1.5147   -2.0111 C.ar    1  UNL1       -0.0105
     13 C          -2.4026    1.7239   -0.8871 C.ar    1  UNL1       -0.0373
     14 C          -3.3177    2.7463   -0.8639 C.ar    1  UNL1        0.0414
     15 CL         -4.3123    3.0470    0.5695 Cl      1  UNL1       -0.0835
     16 C          -3.5387    3.6022   -1.9259 C.ar    1  UNL1       -0.0420
     17 C          -2.7776    3.3934   -3.0720 C.ar    1  UNL1       -0.0417
     18 C          -1.8584    2.3639   -3.0910 C.ar    1  UNL1        0.0457
     19 CL         -0.9151    2.1705   -4.5801 Cl      1  UNL1       -0.0832
     20 C          -1.1649   -1.3851   -0.6354 C.ar    1  UNL1        0.0317
     21 C          -2.2485   -1.6551   -1.4908 C.ar    1  UNL1       -0.0393
     22 C          -3.1030   -2.7261   -1.3009 C.ar    1  UNL1       -0.0412
     23 C          -2.9505   -3.5994   -0.2585 C.ar    1  UNL1        0.0701
     24 C          -3.8591   -4.7107   -0.0079 C.1     1  UNL1        0.1006
     25 N          -4.5671   -5.5832    0.2079 N.1     1  UNL1       -0.1908
     26 C          -1.8983   -3.3694    0.6042 C.ar    1  UNL1        0.0600
     27 CL         -1.6669   -4.4364    1.9565 Cl      1  UNL1       -0.0822
     28 C          -1.0453   -2.2792    0.3905 C.ar    1  UNL1       -0.0210
     29 C           1.2833   -0.2909    1.0212 C.3     1  UNL1        0.0333
     30 H           6.1839   -0.2711    2.3827 H       1  UNL1        0.0259
     31 H           5.7801   -2.0491    2.3054 H       1  UNL1        0.0259
     32 H           5.4357   -0.9914    0.9403 H       1  UNL1        0.0259
     33 H           4.2646   -0.5393    3.7037 H       1  UNL1        0.0687
     34 H           3.6667   -2.6039    2.1170 H       1  UNL1        0.2104
     35 H           1.7672    2.7602    1.6800 H       1  UNL1        0.0465
     36 H           2.5841    2.4178    0.1465 H       1  UNL1        0.0465
     37 H           0.4206    2.4002   -0.7009 H       1  UNL1        0.0299
     38 H          -0.2372    1.9152    0.9046 H       1  UNL1        0.0299
     39 H           1.5866    0.3668   -0.9805 H       1  UNL1        0.0516
     40 H           0.2635    0.9411   -2.5903 H       1  UNL1        0.0513
     41 H          -0.9765   -0.2234   -3.0002 H       1  UNL1        0.0513
     42 H          -2.2780    1.0915   -0.0317 H       1  UNL1        0.0636
     43 H          -4.2720    4.3981   -1.8856 H       1  UNL1        0.0633
     44 H          -2.9385    4.0595   -3.9161 H       1  UNL1        0.0633
     45 H          -2.4933   -1.0347   -2.3371 H       1  UNL1        0.0636
     46 H          -3.9348   -2.9135   -1.9853 H       1  UNL1        0.0631
     47 H          -0.2222   -2.1510    1.0785 H       1  UNL1        0.0651
     48 H           0.6000   -0.3536    1.8914 H       1  UNL1        0.0483
     49 H           1.8503   -1.2061    0.8704 H       1  UNL1        0.0483
@<TRIPOS>BOND
     1     1     2    1
     2     2     3    1
     3     2     4    1
     4     4     5    2
     5     4     6   am
     6     6     7    1
     7     7     8    1
     8     8     9    1
     9     9    10    1
    10    10    11    1
    11    11    12    1
    12    12    13   ar
    13    13    14   ar
    14    14    15    1
    15    14    16   ar
    16    16    17   ar
    17    17    18   ar
    18    18    19    1
    19    10    20    1
    20    20    21   ar
    21    21    22   ar
    22    22    23   ar
    23    23    24    1
    24    24    25    3
    25    23    26   ar
    26    26    27    1
    27    26    28   ar
    28     9    29    1
    29    29     6    1
    30    18    12   ar
    31    28    20   ar
    32     1    30    1
    33     1    31    1
    34     1    32    1
    35     2    33    1
    36     3    34    1
    37     7    35    1
    38     7    36    1
    39     8    37    1
    40     8    38    1
    41     9    39    1
    42    11    40    1
    43    11    41    1
    44    13    42    1
    45    16    43    1
    46    17    44    1
    47    21    45    1
    48    22    46    1
    49    28    47    1
    50    29    48    1
    51    29    49    1
