
     RDKit          3D

 49 51  0  0  0  0  0  0  0  0999 V2000
    5.4483   -1.0317    2.0393 C   0  0  0  0  0  0  0  0  0  0  0  0
    4.0559   -0.7246    2.6101 C   0  0  2  0  0  0  0  0  0  0  0  0
    3.2433   -1.8240    2.5253 O   0  0  0  0  0  0  0  0  0  0  0  0
    3.5242    0.5271    2.0593 C   0  0  0  0  0  0  0  0  0  0  0  0
    4.2999    1.5538    2.2506 O   0  0  0  0  0  0  0  0  0  0  0  0
    2.3201    0.7335    1.3772 N   0  0  0  0  0  0  0  0  0  0  0  0
    1.8619    2.0313    0.8777 C   0  0  0  0  0  0  0  0  0  0  0  0
    0.5335    1.7590    0.1698 C   0  0  0  0  0  0  0  0  0  0  0  0
    0.7018    0.2654   -0.2202 C   0  0  2  0  0  0  0  0  0  0  0  0
   -0.3651   -0.2764   -0.9273 N   0  0  0  0  0  0  0  0  0  0  0  0
   -0.6787    0.4467   -2.1919 C   0  0  0  0  0  0  0  0  0  0  0  0
   -1.6533    1.5147   -2.0111 C   0  0  0  0  0  0  0  0  0  0  0  0
   -2.4026    1.7239   -0.8871 C   0  0  0  0  0  0  0  0  0  0  0  0
   -3.3177    2.7463   -0.8639 C   0  0  0  0  0  0  0  0  0  0  0  0
   -4.3123    3.0470    0.5695 Cl  0  0  0  0  0  0  0  0  0  0  0  0
   -3.5387    3.6022   -1.9259 C   0  0  0  0  0  0  0  0  0  0  0  0
   -2.7776    3.3934   -3.0720 C   0  0  0  0  0  0  0  0  0  0  0  0
   -1.8584    2.3639   -3.0910 C   0  0  0  0  0  0  0  0  0  0  0  0
   -0.9151    2.1705   -4.5801 Cl  0  0  0  0  0  0  0  0  0  0  0  0
   -1.1649   -1.3851   -0.6354 C   0  0  0  0  0  0  0  0  0  0  0  0
   -2.2485   -1.6551   -1.4908 C   0  0  0  0  0  0  0  0  0  0  0  0
   -3.1030   -2.7261   -1.3009 C   0  0  0  0  0  0  0  0  0  0  0  0
   -2.9505   -3.5994   -0.2585 C   0  0  0  0  0  0  0  0  0  0  0  0
   -3.8591   -4.7107   -0.0079 C   0  0  0  0  0  0  0  0  0  0  0  0
   -4.5671   -5.5832    0.2079 N   0  0  0  0  0  0  0  0  0  0  0  0
   -1.8983   -3.3694    0.6042 C   0  0  0  0  0  0  0  0  0  0  0  0
   -1.6669   -4.4364    1.9565 Cl  0  0  0  0  0  0  0  0  0  0  0  0
   -1.0453   -2.2792    0.3905 C   0  0  0  0  0  0  0  0  0  0  0  0
    1.2833   -0.2909    1.0212 C   0  0  0  0  0  0  0  0  0  0  0  0
    6.1839   -0.2711    2.3827 H   0  0  0  0  0  0  0  0  0  0  0  0
    5.7801   -2.0491    2.3054 H   0  0  0  0  0  0  0  0  0  0  0  0
    5.4357   -0.9914    0.9403 H   0  0  0  0  0  0  0  0  0  0  0  0
    4.2646   -0.5393    3.7037 H   0  0  0  0  0  0  0  0  0  0  0  0
    3.6667   -2.6039    2.1170 H   0  0  0  0  0  0  0  0  0  0  0  0
    1.7672    2.7602    1.6800 H   0  0  0  0  0  0  0  0  0  0  0  0
    2.5841    2.4178    0.1465 H   0  0  0  0  0  0  0  0  0  0  0  0
    0.4206    2.4002   -0.7009 H   0  0  0  0  0  0  0  0  0  0  0  0
   -0.2372    1.9152    0.9046 H   0  0  0  0  0  0  0  0  0  0  0  0
    1.5866    0.3668   -0.9805 H   0  0  0  0  0  0  0  0  0  0  0  0
    0.2635    0.9411   -2.5903 H   0  0  0  0  0  0  0  0  0  0  0  0
   -0.9765   -0.2234   -3.0002 H   0  0  0  0  0  0  0  0  0  0  0  0
   -2.2780    1.0915   -0.0317 H   0  0  0  0  0  0  0  0  0  0  0  0
   -4.2720    4.3981   -1.8856 H   0  0  0  0  0  0  0  0  0  0  0  0
   -2.9385    4.0595   -3.9161 H   0  0  0  0  0  0  0  0  0  0  0  0
   -2.4933   -1.0347   -2.3371 H   0  0  0  0  0  0  0  0  0  0  0  0
   -3.9348   -2.9135   -1.9853 H   0  0  0  0  0  0  0  0  0  0  0  0
   -0.2222   -2.1510    1.0785 H   0  0  0  0  0  0  0  0  0  0  0  0
    0.6000   -0.3536    1.8914 H   0  0  0  0  0  0  0  0  0  0  0  0
    1.8503   -1.2061    0.8704 H   0  0  0  0  0  0  0  0  0  0  0  0
  1  2  1  0
  2  3  1  0
  2  4  1  0
  4  5  2  0
  4  6  1  0
  6  7  1  0
  7  8  1  0
  8  9  1  0
  9 10  1  0
 10 11  1  0
 11 12  1  0
 12 13  2  0
 13 14  1  0
 14 15  1  0
 14 16  2  0
 16 17  1  0
 17 18  2  0
 18 19  1  0
 10 20  1  0
 20 21  2  0
 21 22  1  0
 22 23  2  0
 23 24  1  0
 24 25  3  0
 23 26  1  0
 26 27  1  0
 26 28  2  0
  9 29  1  0
 29  6  1  0
 18 12  1  0
 28 20  1  0
  1 30  1  0
  1 31  1  0
  1 32  1  0
  2 33  1  1
  3 34  1  0
  7 35  1  0
  7 36  1  0
  8 37  1  0
  8 38  1  0
  9 39  1  6
 11 40  1  0
 11 41  1  0
 13 42  1  0
 16 43  1  0
 17 44  1  0
 21 45  1  0
 22 46  1  0
 28 47  1  0
 29 48  1  0
 29 49  1  0
M  END
$$$$
