@<TRIPOS>MOLECULE
*****
 45 47 0 0 0
SMALL
GASTEIGER

@<TRIPOS>ATOM
      1 C          -2.7968    2.9916   -1.3642 C.3     1  UNL1       -0.0598
      2 C          -3.2756    2.5290   -0.0321 C.3     1  UNL1       -0.0124
      3 C          -3.9975    1.2474   -0.0293 C.ar    1  UNL1        0.0556
      4 C          -3.1875    0.1386   -0.1478 C.ar    1  UNL1        0.0430
      5 C          -3.7874   -1.1269   -0.1543 C.ar    1  UNL1        0.1293
      6 N          -3.0830   -2.3811   -0.2697 N.pl3   1  UNL1       -0.3425
      7 N          -5.1222   -1.2851   -0.0487 N.ar    1  UNL1       -0.1995
      8 C          -5.8759   -0.1772    0.0650 C.ar    1  UNL1        0.2145
      9 N          -7.3008   -0.2343    0.1827 N.pl3   1  UNL1       -0.3274
     10 N          -5.3236    1.0383    0.0733 N.ar    1  UNL1       -0.2190
     11 C          -1.7479    0.0312   -0.2747 C.ar    1  UNL1       -0.0128
     12 C          -1.0324    0.0165   -1.4771 C.ar    1  UNL1       -0.0521
     13 C           0.3428   -0.0928   -1.4892 C.ar    1  UNL1       -0.0403
     14 C           0.9972   -0.1879   -0.2787 C.ar    1  UNL1        0.0274
     15 N           2.4185   -0.3057   -0.2139 N.pl3   1  UNL1       -0.3397
     16 C           3.1949   -0.4138    1.0240 C.3     1  UNL1        0.0345
     17 C           4.6450   -0.5303    0.7251 C.ar    1  UNL1       -0.0250
     18 C           5.5270    0.5262    0.6035 C.ar    1  UNL1       -0.0216
     19 C           6.8586    0.2701    0.3209 C.ar    1  UNL1        0.1264
     20 F           7.7332    1.2975    0.1995 F       1  UNL1       -0.2054
     21 C           7.3838   -1.0039    0.1467 C.ar    1  UNL1        0.0088
     22 C           6.5065   -2.0557    0.2676 C.ar    1  UNL1        0.1264
     23 F           6.9140   -3.3487    0.1159 F       1  UNL1       -0.2054
     24 C           5.1848   -1.8074    0.5477 C.ar    1  UNL1       -0.0216
     25 C           0.3504   -0.1794    0.9435 C.ar    1  UNL1       -0.0403
     26 C          -1.0290   -0.0684    0.9227 C.ar    1  UNL1       -0.0521
     27 H          -2.9317    4.0907   -1.4286 H       1  UNL1        0.0233
     28 H          -3.4481    2.5651   -2.1595 H       1  UNL1        0.0233
     29 H          -1.7189    2.8236   -1.5596 H       1  UNL1        0.0233
     30 H          -2.4320    2.5104    0.7177 H       1  UNL1        0.0326
     31 H          -3.9546    3.3162    0.3838 H       1  UNL1        0.0326
     32 H          -2.3701   -2.7428    0.3975 H       1  UNL1        0.1437
     33 H          -3.3313   -2.9654   -1.1151 H       1  UNL1        0.1437
     34 H          -7.9530    0.2231    0.8390 H       1  UNL1        0.1452
     35 H          -7.7738   -0.8549   -0.5274 H       1  UNL1        0.1452
     36 H          -1.6299    0.0959   -2.3738 H       1  UNL1        0.0624
     37 H           0.8824   -0.1023   -2.4311 H       1  UNL1        0.0636
     38 H           2.9569   -0.3156   -1.1301 H       1  UNL1        0.1464
     39 H           2.9861    0.4608    1.6759 H       1  UNL1        0.0511
     40 H           2.8837   -1.3508    1.5197 H       1  UNL1        0.0511
     41 H           5.1293    1.5166    0.7366 H       1  UNL1        0.0649
     42 H           8.4200   -1.1923   -0.0727 H       1  UNL1        0.0675
     43 H           4.5087   -2.6540    0.6393 H       1  UNL1        0.0649
     44 H           0.8364   -0.2528    1.9064 H       1  UNL1        0.0636
     45 H          -1.5571   -0.0593    1.8836 H       1  UNL1        0.0624
@<TRIPOS>BOND
     1     1     2    1
     2     2     3    1
     3     3     4   ar
     4     4     5   ar
     5     5     6    1
     6     5     7   ar
     7     7     8   ar
     8     8     9    1
     9     8    10   ar
    10     4    11    1
    11    11    12   ar
    12    12    13   ar
    13    13    14   ar
    14    14    15    1
    15    15    16    1
    16    16    17    1
    17    17    18   ar
    18    18    19   ar
    19    19    20    1
    20    19    21   ar
    21    21    22   ar
    22    22    23    1
    23    22    24   ar
    24    14    25   ar
    25    25    26   ar
    26    10     3   ar
    27    26    11   ar
    28    24    17   ar
    29     1    27    1
    30     1    28    1
    31     1    29    1
    32     2    30    1
    33     2    31    1
    34     6    32    1
    35     6    33    1
    36     9    34    1
    37     9    35    1
    38    12    36    1
    39    13    37    1
    40    15    38    1
    41    16    39    1
    42    16    40    1
    43    18    41    1
    44    21    42    1
    45    24    43    1
    46    25    44    1
    47    26    45    1
