
     RDKit          3D

 51 55  0  0  0  0  0  0  0  0999 V2000
    0.4620   -2.9233   -2.0340 C   0  0  0  0  0  0  0  0  0  0  0  0
    1.4451   -2.0209   -1.4123 C   0  0  0  0  0  0  0  0  0  0  0  0
    2.7780   -2.3118   -1.5518 C   0  0  0  0  0  0  0  0  0  0  0  0
    3.7352   -1.4817   -0.9751 C   0  0  0  0  0  0  0  0  0  0  0  0
    3.3247   -0.3942   -0.2820 C   0  0  0  0  0  0  0  0  0  0  0  0
    4.2523    0.5232    0.3505 C   0  0  0  0  0  0  0  0  0  0  0  0
    3.8272    1.5431    0.9992 O   0  0  0  0  0  0  0  0  0  0  0  0
    5.6332    0.3149    0.2665 N   0  0  0  0  0  0  0  0  0  0  0  0
    6.5176    1.2850    0.9317 C   0  0  0  0  0  0  0  0  0  0  0  0
    7.7899    1.6619    0.1981 C   0  0  0  0  0  0  0  0  0  0  0  0
    7.8268    0.7327    1.3790 C   0  0  0  0  0  0  0  0  0  0  0  0
    1.9778   -0.1166   -0.1518 C   0  0  0  0  0  0  0  0  0  0  0  0
    1.0254   -0.9305   -0.7178 C   0  0  0  0  0  0  0  0  0  0  0  0
   -0.3831   -0.5652   -0.5362 C   0  0  0  0  0  0  0  0  0  0  0  0
   -1.3055   -0.5655   -1.5620 C   0  0  0  0  0  0  0  0  0  0  0  0
   -2.6303   -0.2143   -1.3447 C   0  0  0  0  0  0  0  0  0  0  0  0
   -3.0756    0.1484   -0.0957 C   0  0  0  0  0  0  0  0  0  0  0  0
   -2.1822    0.1584    0.9443 C   0  0  0  0  0  0  0  0  0  0  0  0
   -0.8501   -0.1992    0.7045 C   0  0  0  0  0  0  0  0  0  0  0  0
   -2.8306    0.5582    2.1460 N   0  0  0  0  0  0  0  0  0  0  0  0
   -4.1864    0.8056    1.8302 C   0  0  0  0  0  0  0  0  0  0  0  0
   -5.0733    1.1869    2.6787 O   0  0  0  0  0  0  0  0  0  0  0  0
   -4.3819    0.5540    0.4034 C   0  0  0  0  0  0  0  0  0  0  0  0
   -5.4548   -0.4786    0.1295 C   0  0  0  0  0  0  0  0  0  0  0  0
   -6.7212    0.3007    0.3384 C   0  0  0  0  0  0  0  0  0  0  0  0
   -6.4093    1.7370   -0.0437 C   0  0  0  0  0  0  0  0  0  0  0  0
   -4.9182    1.8010   -0.2636 C   0  0  0  0  0  0  0  0  0  0  0  0
   -0.5137   -2.9545   -1.5061 H   0  0  0  0  0  0  0  0  0  0  0  0
    0.3767   -2.7514   -3.1218 H   0  0  0  0  0  0  0  0  0  0  0  0
    0.8843   -3.9686   -1.9449 H   0  0  0  0  0  0  0  0  0  0  0  0
    3.1392   -3.1718   -2.0985 H   0  0  0  0  0  0  0  0  0  0  0  0
    4.7981   -1.7137   -1.0862 H   0  0  0  0  0  0  0  0  0  0  0  0
    6.0758   -0.4829   -0.2367 H   0  0  0  0  0  0  0  0  0  0  0  0
    6.0345    2.1265    1.4619 H   0  0  0  0  0  0  0  0  0  0  0  0
    7.9276    1.2621   -0.8312 H   0  0  0  0  0  0  0  0  0  0  0  0
    8.1634    2.7005    0.3089 H   0  0  0  0  0  0  0  0  0  0  0  0
    8.2304    1.2094    2.3174 H   0  0  0  0  0  0  0  0  0  0  0  0
    8.0285   -0.3469    1.2261 H   0  0  0  0  0  0  0  0  0  0  0  0
    1.6726    0.7601    0.4079 H   0  0  0  0  0  0  0  0  0  0  0  0
   -0.9644   -0.8491   -2.5541 H   0  0  0  0  0  0  0  0  0  0  0  0
   -3.2960   -0.2420   -2.2167 H   0  0  0  0  0  0  0  0  0  0  0  0
   -0.1475   -0.1862    1.5470 H   0  0  0  0  0  0  0  0  0  0  0  0
   -2.3540    0.6442    3.0884 H   0  0  0  0  0  0  0  0  0  0  0  0
   -5.3618   -1.3630    0.7818 H   0  0  0  0  0  0  0  0  0  0  0  0
   -5.3834   -0.7449   -0.9495 H   0  0  0  0  0  0  0  0  0  0  0  0
   -7.5107   -0.1314   -0.3287 H   0  0  0  0  0  0  0  0  0  0  0  0
   -7.0412    0.2053    1.3798 H   0  0  0  0  0  0  0  0  0  0  0  0
   -6.7400    2.4339    0.7691 H   0  0  0  0  0  0  0  0  0  0  0  0
   -6.9551    1.9646   -0.9843 H   0  0  0  0  0  0  0  0  0  0  0  0
   -4.5383    2.7315    0.1918 H   0  0  0  0  0  0  0  0  0  0  0  0
   -4.7173    1.7590   -1.3733 H   0  0  0  0  0  0  0  0  0  0  0  0
  1  2  1  0
  2  3  2  0
  3  4  1  0
  4  5  2  0
  5  6  1  0
  6  7  2  0
  6  8  1  0
  8  9  1  0
  9 10  1  0
 10 11  1  0
  5 12  1  0
 12 13  2  0
 13 14  1  0
 14 15  2  0
 15 16  1  0
 16 17  2  0
 17 18  1  0
 18 19  2  0
 18 20  1  0
 20 21  1  0
 21 22  2  0
 21 23  1  0
 23 24  1  0
 24 25  1  0
 25 26  1  0
 26 27  1  0
 13  2  1  0
 19 14  1  0
 27 23  1  0
 11  9  1  0
 23 17  1  0
  1 28  1  0
  1 29  1  0
  1 30  1  0
  3 31  1  0
  4 32  1  0
  8 33  1  0
  9 34  1  0
 10 35  1  0
 10 36  1  0
 11 37  1  0
 11 38  1  0
 12 39  1  0
 15 40  1  0
 16 41  1  0
 19 42  1  0
 20 43  1  0
 24 44  1  0
 24 45  1  0
 25 46  1  0
 25 47  1  0
 26 48  1  0
 26 49  1  0
 27 50  1  0
 27 51  1  0
M  END
$$$$
