@<TRIPOS>MOLECULE
*****
 51 55 0 0 0
SMALL
GASTEIGER

@<TRIPOS>ATOM
      1 C           0.4620   -2.9233   -2.0340 C.3     1  UNL1       -0.0391
      2 C           1.4451   -2.0209   -1.4123 C.ar    1  UNL1       -0.0427
      3 C           2.7780   -2.3118   -1.5518 C.ar    1  UNL1       -0.0575
      4 C           3.7352   -1.4817   -0.9751 C.ar    1  UNL1       -0.0494
      5 C           3.3247   -0.3942   -0.2820 C.ar    1  UNL1        0.0373
      6 C           4.2523    0.5232    0.3505 C.2     1  UNL1        0.2443
      7 O           3.8272    1.5431    0.9992 O.2     1  UNL1       -0.2702
      8 N           5.6332    0.3149    0.2665 N.am    1  UNL1       -0.3085
      9 C           6.5176    1.2850    0.9317 C.3     1  UNL1        0.0235
     10 C           7.7899    1.6619    0.1981 C.3     1  UNL1       -0.0328
     11 C           7.8268    0.7327    1.3790 C.3     1  UNL1       -0.0328
     12 C           1.9778   -0.1166   -0.1518 C.ar    1  UNL1       -0.0417
     13 C           1.0254   -0.9305   -0.7178 C.ar    1  UNL1       -0.0142
     14 C          -0.3831   -0.5652   -0.5362 C.ar    1  UNL1       -0.0158
     15 C          -1.3055   -0.5655   -1.5620 C.ar    1  UNL1       -0.0536
     16 C          -2.6303   -0.2143   -1.3447 C.ar    1  UNL1       -0.0552
     17 C          -3.0756    0.1484   -0.0957 C.ar    1  UNL1       -0.0112
     18 C          -2.1822    0.1584    0.9443 C.ar    1  UNL1        0.0382
     19 C          -0.8501   -0.1992    0.7045 C.ar    1  UNL1       -0.0325
     20 N          -2.8306    0.5582    2.1460 N.am    1  UNL1       -0.2845
     21 C          -4.1864    0.8056    1.8302 C.2     1  UNL1        0.2278
     22 O          -5.0733    1.1869    2.6787 O.2     1  UNL1       -0.2745
     23 C          -4.3819    0.5540    0.4034 C.3     1  UNL1        0.0738
     24 C          -5.4548   -0.4786    0.1295 C.3     1  UNL1       -0.0349
     25 C          -6.7212    0.3007    0.3384 C.3     1  UNL1       -0.0518
     26 C          -6.4093    1.7370   -0.0437 C.3     1  UNL1       -0.0518
     27 C          -4.9182    1.8010   -0.2636 C.3     1  UNL1       -0.0349
     28 H          -0.5137   -2.9545   -1.5061 H       1  UNL1        0.0278
     29 H           0.3767   -2.7514   -3.1218 H       1  UNL1        0.0278
     30 H           0.8843   -3.9686   -1.9449 H       1  UNL1        0.0278
     31 H           3.1392   -3.1718   -2.0985 H       1  UNL1        0.0621
     32 H           4.7981   -1.7137   -1.0862 H       1  UNL1        0.0625
     33 H           6.0758   -0.4829   -0.2367 H       1  UNL1        0.1493
     34 H           6.0345    2.1265    1.4619 H       1  UNL1        0.0498
     35 H           7.9276    1.2621   -0.8312 H       1  UNL1        0.0284
     36 H           8.1634    2.7005    0.3089 H       1  UNL1        0.0284
     37 H           8.2304    1.2094    2.3174 H       1  UNL1        0.0284
     38 H           8.0285   -0.3469    1.2261 H       1  UNL1        0.0284
     39 H           1.6726    0.7601    0.4079 H       1  UNL1        0.0631
     40 H          -0.9644   -0.8491   -2.5541 H       1  UNL1        0.0624
     41 H          -3.2960   -0.2420   -2.2167 H       1  UNL1        0.0621
     42 H          -0.1475   -0.1862    1.5470 H       1  UNL1        0.0642
     43 H          -2.3540    0.6442    3.0884 H       1  UNL1        0.1548
     44 H          -5.3618   -1.3630    0.7818 H       1  UNL1        0.0278
     45 H          -5.3834   -0.7449   -0.9495 H       1  UNL1        0.0278
     46 H          -7.5107   -0.1314   -0.3287 H       1  UNL1        0.0266
     47 H          -7.0412    0.2053    1.3798 H       1  UNL1        0.0266
     48 H          -6.7400    2.4339    0.7691 H       1  UNL1        0.0266
     49 H          -6.9551    1.9646   -0.9843 H       1  UNL1        0.0266
     50 H          -4.5383    2.7315    0.1918 H       1  UNL1        0.0278
     51 H          -4.7173    1.7590   -1.3733 H       1  UNL1        0.0278
@<TRIPOS>BOND
     1     1     2    1
     2     2     3   ar
     3     3     4   ar
     4     4     5   ar
     5     5     6    1
     6     6     7    2
     7     6     8   am
     8     8     9    1
     9     9    10    1
    10    10    11    1
    11     5    12   ar
    12    12    13   ar
    13    13    14    1
    14    14    15   ar
    15    15    16   ar
    16    16    17   ar
    17    17    18   ar
    18    18    19   ar
    19    18    20    1
    20    20    21   am
    21    21    22    2
    22    21    23    1
    23    23    24    1
    24    24    25    1
    25    25    26    1
    26    26    27    1
    27    13     2   ar
    28    19    14   ar
    29    27    23    1
    30    11     9    1
    31    23    17    1
    32     1    28    1
    33     1    29    1
    34     1    30    1
    35     3    31    1
    36     4    32    1
    37     8    33    1
    38     9    34    1
    39    10    35    1
    40    10    36    1
    41    11    37    1
    42    11    38    1
    43    12    39    1
    44    15    40    1
    45    16    41    1
    46    19    42    1
    47    20    43    1
    48    24    44    1
    49    24    45    1
    50    25    46    1
    51    25    47    1
    52    26    48    1
    53    26    49    1
    54    27    50    1
    55    27    51    1
