@<TRIPOS>MOLECULE
*****
 76 80 0 0 0
SMALL
GASTEIGER

@<TRIPOS>ATOM
      1 C          -6.1334    5.0860   -3.4114 C.3     1  UNL1       -0.0397
      2 C          -5.9197    3.8181   -2.6307 C.ar    1  UNL1       -0.0503
      3 C          -5.2963    3.9021   -1.4056 C.ar    1  UNL1       -0.0568
      4 C          -5.0860    2.7470   -0.6633 C.ar    1  UNL1       -0.0359
      5 C          -5.4838    1.4892   -1.1104 C.ar    1  UNL1        0.0674
      6 N          -5.2373    0.3440   -0.3017 N.ar    1  UNL1       -0.2181
      7 N          -6.1196   -0.4304    0.3050 N.ar    1  UNL1       -0.1691
      8 C          -5.5357   -1.4171    0.9977 C.ar    1  UNL1        0.0706
      9 C          -6.1856   -2.4811    1.8136 C.3     1  UNL1        0.0063
     10 C          -7.6710   -2.2726    1.7904 C.3     1  UNL1       -0.0546
     11 C          -5.9167   -3.8562    1.2411 C.3     1  UNL1       -0.0546
     12 C          -5.6823   -2.3487    3.2235 C.3     1  UNL1       -0.0546
     13 C          -4.1652   -1.2263    0.7934 C.ar    1  UNL1        0.0021
     14 C          -3.9878   -0.1294   -0.0157 C.ar    1  UNL1        0.1299
     15 N          -2.7989    0.4807   -0.4963 N.am    1  UNL1       -0.2538
     16 C          -1.4920    0.0691   -0.1253 C.2     1  UNL1        0.3092
     17 O          -1.3472   -0.8812    0.6689 O.2     1  UNL1       -0.2521
     18 N          -0.3213    0.6988   -0.6200 N.am    1  UNL1       -0.2686
     19 C           1.0023    0.3553   -0.2752 C.ar    1  UNL1        0.0427
     20 C           1.5602    0.9783    0.8196 C.ar    1  UNL1       -0.0364
     21 C           2.8555    0.6968    1.1993 C.ar    1  UNL1       -0.0176
     22 C           3.6094   -0.2108    0.4900 C.ar    1  UNL1        0.1283
     23 O           4.9326   -0.5050    0.8665 O.3     1  UNL1       -0.4901
     24 C           5.5008    0.1394    1.9976 C.3     1  UNL1        0.1023
     25 C           6.9100   -0.2581    2.2710 C.3     1  UNL1        0.0333
     26 N           7.8549    0.0012    1.2570 N.3     1  UNL1       -0.2948
     27 C           8.1919    1.3228    0.9524 C.3     1  UNL1        0.0225
     28 C           9.1713    1.5352   -0.1506 C.3     1  UNL1        0.0604
     29 O           9.9035    0.4063   -0.4840 O.3     1  UNL1       -0.3772
     30 C           9.1294   -0.7171   -0.7069 C.3     1  UNL1        0.0604
     31 C           8.5169   -1.0726    0.6449 C.3     1  UNL1        0.0225
     32 C           3.0815   -0.8462   -0.6021 C.ar    1  UNL1        0.0256
     33 C           3.8369   -1.7666   -1.3258 C.ar    1  UNL1       -0.0505
     34 C           3.2419   -2.3661   -2.4107 C.ar    1  UNL1       -0.0611
     35 C           1.9283   -2.0762   -2.7907 C.ar    1  UNL1       -0.0611
     36 C           1.2061   -1.1688   -2.0645 C.ar    1  UNL1       -0.0521
     37 C           1.7657   -0.5458   -0.9699 C.ar    1  UNL1        0.0069
     38 C          -6.1038    1.4341   -2.3361 C.ar    1  UNL1       -0.0359
     39 C          -6.3231    2.5848   -3.0946 C.ar    1  UNL1       -0.0568
     40 H          -5.1436    5.5869   -3.4670 H       1  UNL1        0.0278
     41 H          -6.8415    5.7432   -2.8881 H       1  UNL1        0.0278
     42 H          -6.4972    4.8049   -4.4035 H       1  UNL1        0.0278
     43 H          -4.9796    4.8787   -1.0447 H       1  UNL1        0.0621
     44 H          -4.5983    2.7947    0.2994 H       1  UNL1        0.0639
     45 H          -8.0938   -2.7522    2.7061 H       1  UNL1        0.0239
     46 H          -8.1654   -2.7000    0.8912 H       1  UNL1        0.0239
     47 H          -7.9088   -1.2025    1.8543 H       1  UNL1        0.0239
     48 H          -6.1942   -4.5806    2.0386 H       1  UNL1        0.0239
     49 H          -4.9039   -4.0002    0.8737 H       1  UNL1        0.0239
     50 H          -6.6429   -4.0020    0.4121 H       1  UNL1        0.0239
     51 H          -6.4405   -2.6015    3.9834 H       1  UNL1        0.0239
     52 H          -4.7622   -2.9514    3.3671 H       1  UNL1        0.0239
     53 H          -5.3954   -1.2920    3.3980 H       1  UNL1        0.0239
     54 H          -3.3970   -1.8369    1.2012 H       1  UNL1        0.0671
     55 H          -2.8296    1.2936   -1.1741 H       1  UNL1        0.1578
     56 H          -0.4761    1.4959   -1.3108 H       1  UNL1        0.1564
     57 H           0.9818    1.6813    1.3746 H       1  UNL1        0.0637
     58 H           3.2461    1.2153    2.0687 H       1  UNL1        0.0655
     59 H           5.4926    1.2371    1.7360 H       1  UNL1        0.0709
     60 H           4.9000    0.0270    2.9078 H       1  UNL1        0.0709
     61 H           6.8954   -1.3770    2.4360 H       1  UNL1        0.0460
     62 H           7.2983    0.1458    3.2320 H       1  UNL1        0.0460
     63 H           8.6070    1.8111    1.8838 H       1  UNL1        0.0449
     64 H           7.2709    1.9064    0.7177 H       1  UNL1        0.0449
     65 H           8.6833    1.8910   -1.0873 H       1  UNL1        0.0572
     66 H           9.9101    2.3230    0.1246 H       1  UNL1        0.0572
     67 H           8.3514   -0.5747   -1.4733 H       1  UNL1        0.0572
     68 H           9.7923   -1.5279   -1.0254 H       1  UNL1        0.0572
     69 H           9.3760   -1.3881    1.2867 H       1  UNL1        0.0449
     70 H           7.8912   -1.9669    0.4703 H       1  UNL1        0.0449
     71 H           4.8487   -1.9552   -0.9923 H       1  UNL1        0.0625
     72 H           3.8180   -3.0950   -2.9983 H       1  UNL1        0.0618
     73 H           1.5526   -2.5890   -3.6466 H       1  UNL1        0.0618
     74 H           0.1816   -0.9290   -2.3434 H       1  UNL1        0.0624
     75 H          -6.4103    0.4530   -2.6753 H       1  UNL1        0.0639
     76 H          -6.8092    2.5204   -4.0514 H       1  UNL1        0.0621
@<TRIPOS>BOND
     1     1     2    1
     2     2     3   ar
     3     3     4   ar
     4     4     5   ar
     5     5     6    1
     6     6     7   ar
     7     7     8   ar
     8     8     9    1
     9     9    10    1
    10     9    11    1
    11     9    12    1
    12     8    13   ar
    13    13    14   ar
    14    14    15    1
    15    15    16   am
    16    16    17    2
    17    16    18   am
    18    18    19    1
    19    19    20   ar
    20    20    21   ar
    21    21    22   ar
    22    22    23    1
    23    23    24    1
    24    24    25    1
    25    25    26    1
    26    26    27    1
    27    27    28    1
    28    28    29    1
    29    29    30    1
    30    30    31    1
    31    22    32   ar
    32    32    33   ar
    33    33    34   ar
    34    34    35   ar
    35    35    36   ar
    36    36    37   ar
    37     5    38   ar
    38    38    39   ar
    39    39     2   ar
    40    14     6   ar
    41    37    19   ar
    42    31    26    1
    43    37    32   ar
    44     1    40    1
    45     1    41    1
    46     1    42    1
    47     3    43    1
    48     4    44    1
    49    10    45    1
    50    10    46    1
    51    10    47    1
    52    11    48    1
    53    11    49    1
    54    11    50    1
    55    12    51    1
    56    12    52    1
    57    12    53    1
    58    13    54    1
    59    15    55    1
    60    18    56    1
    61    20    57    1
    62    21    58    1
    63    24    59    1
    64    24    60    1
    65    25    61    1
    66    25    62    1
    67    27    63    1
    68    27    64    1
    69    28    65    1
    70    28    66    1
    71    30    67    1
    72    30    68    1
    73    31    69    1
    74    31    70    1
    75    33    71    1
    76    34    72    1
    77    35    73    1
    78    36    74    1
    79    38    75    1
    80    39    76    1
