
     RDKit          3D

 76 80  0  0  0  0  0  0  0  0999 V2000
   -6.1334    5.0860   -3.4114 C   0  0  0  0  0  0  0  0  0  0  0  0
   -5.9197    3.8181   -2.6307 C   0  0  0  0  0  0  0  0  0  0  0  0
   -5.2963    3.9021   -1.4056 C   0  0  0  0  0  0  0  0  0  0  0  0
   -5.0860    2.7470   -0.6633 C   0  0  0  0  0  0  0  0  0  0  0  0
   -5.4838    1.4892   -1.1104 C   0  0  0  0  0  0  0  0  0  0  0  0
   -5.2373    0.3440   -0.3017 N   0  0  0  0  0  0  0  0  0  0  0  0
   -6.1196   -0.4304    0.3050 N   0  0  0  0  0  0  0  0  0  0  0  0
   -5.5357   -1.4171    0.9977 C   0  0  0  0  0  0  0  0  0  0  0  0
   -6.1856   -2.4811    1.8136 C   0  0  0  0  0  0  0  0  0  0  0  0
   -7.6710   -2.2726    1.7904 C   0  0  0  0  0  0  0  0  0  0  0  0
   -5.9167   -3.8562    1.2411 C   0  0  0  0  0  0  0  0  0  0  0  0
   -5.6823   -2.3487    3.2235 C   0  0  0  0  0  0  0  0  0  0  0  0
   -4.1652   -1.2263    0.7934 C   0  0  0  0  0  0  0  0  0  0  0  0
   -3.9878   -0.1294   -0.0157 C   0  0  0  0  0  0  0  0  0  0  0  0
   -2.7989    0.4807   -0.4963 N   0  0  0  0  0  0  0  0  0  0  0  0
   -1.4920    0.0691   -0.1253 C   0  0  0  0  0  0  0  0  0  0  0  0
   -1.3472   -0.8812    0.6689 O   0  0  0  0  0  0  0  0  0  0  0  0
   -0.3213    0.6988   -0.6200 N   0  0  0  0  0  0  0  0  0  0  0  0
    1.0023    0.3553   -0.2752 C   0  0  0  0  0  0  0  0  0  0  0  0
    1.5602    0.9783    0.8196 C   0  0  0  0  0  0  0  0  0  0  0  0
    2.8555    0.6968    1.1993 C   0  0  0  0  0  0  0  0  0  0  0  0
    3.6094   -0.2108    0.4900 C   0  0  0  0  0  0  0  0  0  0  0  0
    4.9326   -0.5050    0.8665 O   0  0  0  0  0  0  0  0  0  0  0  0
    5.5008    0.1394    1.9976 C   0  0  0  0  0  0  0  0  0  0  0  0
    6.9100   -0.2581    2.2710 C   0  0  0  0  0  0  0  0  0  0  0  0
    7.8549    0.0012    1.2570 N   0  0  0  0  0  0  0  0  0  0  0  0
    8.1919    1.3228    0.9524 C   0  0  0  0  0  0  0  0  0  0  0  0
    9.1713    1.5352   -0.1506 C   0  0  0  0  0  0  0  0  0  0  0  0
    9.9035    0.4063   -0.4840 O   0  0  0  0  0  0  0  0  0  0  0  0
    9.1294   -0.7171   -0.7069 C   0  0  0  0  0  0  0  0  0  0  0  0
    8.5169   -1.0726    0.6449 C   0  0  0  0  0  0  0  0  0  0  0  0
    3.0815   -0.8462   -0.6021 C   0  0  0  0  0  0  0  0  0  0  0  0
    3.8369   -1.7666   -1.3258 C   0  0  0  0  0  0  0  0  0  0  0  0
    3.2419   -2.3661   -2.4107 C   0  0  0  0  0  0  0  0  0  0  0  0
    1.9283   -2.0762   -2.7907 C   0  0  0  0  0  0  0  0  0  0  0  0
    1.2061   -1.1688   -2.0645 C   0  0  0  0  0  0  0  0  0  0  0  0
    1.7657   -0.5458   -0.9699 C   0  0  0  0  0  0  0  0  0  0  0  0
   -6.1038    1.4341   -2.3361 C   0  0  0  0  0  0  0  0  0  0  0  0
   -6.3231    2.5848   -3.0946 C   0  0  0  0  0  0  0  0  0  0  0  0
   -5.1436    5.5869   -3.4670 H   0  0  0  0  0  0  0  0  0  0  0  0
   -6.8415    5.7432   -2.8881 H   0  0  0  0  0  0  0  0  0  0  0  0
   -6.4972    4.8049   -4.4035 H   0  0  0  0  0  0  0  0  0  0  0  0
   -4.9796    4.8787   -1.0447 H   0  0  0  0  0  0  0  0  0  0  0  0
   -4.5983    2.7947    0.2994 H   0  0  0  0  0  0  0  0  0  0  0  0
   -8.0938   -2.7522    2.7061 H   0  0  0  0  0  0  0  0  0  0  0  0
   -8.1654   -2.7000    0.8912 H   0  0  0  0  0  0  0  0  0  0  0  0
   -7.9088   -1.2025    1.8543 H   0  0  0  0  0  0  0  0  0  0  0  0
   -6.1942   -4.5806    2.0386 H   0  0  0  0  0  0  0  0  0  0  0  0
   -4.9039   -4.0002    0.8737 H   0  0  0  0  0  0  0  0  0  0  0  0
   -6.6429   -4.0020    0.4121 H   0  0  0  0  0  0  0  0  0  0  0  0
   -6.4405   -2.6015    3.9834 H   0  0  0  0  0  0  0  0  0  0  0  0
   -4.7622   -2.9514    3.3671 H   0  0  0  0  0  0  0  0  0  0  0  0
   -5.3954   -1.2920    3.3980 H   0  0  0  0  0  0  0  0  0  0  0  0
   -3.3970   -1.8369    1.2012 H   0  0  0  0  0  0  0  0  0  0  0  0
   -2.8296    1.2936   -1.1741 H   0  0  0  0  0  0  0  0  0  0  0  0
   -0.4761    1.4959   -1.3108 H   0  0  0  0  0  0  0  0  0  0  0  0
    0.9818    1.6813    1.3746 H   0  0  0  0  0  0  0  0  0  0  0  0
    3.2461    1.2153    2.0687 H   0  0  0  0  0  0  0  0  0  0  0  0
    5.4926    1.2371    1.7360 H   0  0  0  0  0  0  0  0  0  0  0  0
    4.9000    0.0270    2.9078 H   0  0  0  0  0  0  0  0  0  0  0  0
    6.8954   -1.3770    2.4360 H   0  0  0  0  0  0  0  0  0  0  0  0
    7.2983    0.1458    3.2320 H   0  0  0  0  0  0  0  0  0  0  0  0
    8.6070    1.8111    1.8838 H   0  0  0  0  0  0  0  0  0  0  0  0
    7.2709    1.9064    0.7177 H   0  0  0  0  0  0  0  0  0  0  0  0
    8.6833    1.8910   -1.0873 H   0  0  0  0  0  0  0  0  0  0  0  0
    9.9101    2.3230    0.1246 H   0  0  0  0  0  0  0  0  0  0  0  0
    8.3514   -0.5747   -1.4733 H   0  0  0  0  0  0  0  0  0  0  0  0
    9.7923   -1.5279   -1.0254 H   0  0  0  0  0  0  0  0  0  0  0  0
    9.3760   -1.3881    1.2867 H   0  0  0  0  0  0  0  0  0  0  0  0
    7.8912   -1.9669    0.4703 H   0  0  0  0  0  0  0  0  0  0  0  0
    4.8487   -1.9552   -0.9923 H   0  0  0  0  0  0  0  0  0  0  0  0
    3.8180   -3.0950   -2.9983 H   0  0  0  0  0  0  0  0  0  0  0  0
    1.5526   -2.5890   -3.6466 H   0  0  0  0  0  0  0  0  0  0  0  0
    0.1816   -0.9290   -2.3434 H   0  0  0  0  0  0  0  0  0  0  0  0
   -6.4103    0.4530   -2.6753 H   0  0  0  0  0  0  0  0  0  0  0  0
   -6.8092    2.5204   -4.0514 H   0  0  0  0  0  0  0  0  0  0  0  0
  1  2  1  0
  2  3  2  0
  3  4  1  0
  4  5  2  0
  5  6  1  0
  6  7  1  0
  7  8  2  0
  8  9  1  0
  9 10  1  0
  9 11  1  0
  9 12  1  0
  8 13  1  0
 13 14  2  0
 14 15  1  0
 15 16  1  0
 16 17  2  0
 16 18  1  0
 18 19  1  0
 19 20  2  0
 20 21  1  0
 21 22  2  0
 22 23  1  0
 23 24  1  0
 24 25  1  0
 25 26  1  0
 26 27  1  0
 27 28  1  0
 28 29  1  0
 29 30  1  0
 30 31  1  0
 22 32  1  0
 32 33  2  0
 33 34  1  0
 34 35  2  0
 35 36  1  0
 36 37  2  0
  5 38  1  0
 38 39  2  0
 39  2  1  0
 14  6  1  0
 37 19  1  0
 31 26  1  0
 37 32  1  0
  1 40  1  0
  1 41  1  0
  1 42  1  0
  3 43  1  0
  4 44  1  0
 10 45  1  0
 10 46  1  0
 10 47  1  0
 11 48  1  0
 11 49  1  0
 11 50  1  0
 12 51  1  0
 12 52  1  0
 12 53  1  0
 13 54  1  0
 15 55  1  0
 18 56  1  0
 20 57  1  0
 21 58  1  0
 24 59  1  0
 24 60  1  0
 25 61  1  0
 25 62  1  0
 27 63  1  0
 27 64  1  0
 28 65  1  0
 28 66  1  0
 30 67  1  0
 30 68  1  0
 31 69  1  0
 31 70  1  0
 33 71  1  0
 34 72  1  0
 35 73  1  0
 36 74  1  0
 38 75  1  0
 39 76  1  0
M  END
$$$$
