
     RDKit          3D

 22 22  0  0  0  0  0  0  0  0999 V2000
   -1.7975   -0.8883    0.0084 C   0  0  1  0  0  0  0  0  0  0  0  0
   -1.4490   -1.6588   -1.0784 O   0  0  0  0  0  0  0  0  0  0  0  0
   -0.6803   -0.7233    1.0078 C   0  0  0  0  0  0  0  0  0  0  0  0
    0.5135   -0.0722    0.4106 C   0  0  0  0  0  0  0  0  0  0  0  0
    0.7335    1.2906    0.3859 C   0  0  0  0  0  0  0  0  0  0  0  0
    1.8978    1.7945   -0.2055 C   0  0  0  0  0  0  0  0  0  0  0  0
    2.8199    0.9304   -0.7605 C   0  0  0  0  0  0  0  0  0  0  0  0
    2.6516   -0.4402   -0.7641 C   0  0  0  0  0  0  0  0  0  0  0  0
    1.4807   -0.8791   -0.1647 C   0  0  0  0  0  0  0  0  0  0  0  0
   -2.4019    0.3715   -0.4424 C   0  0  0  0  0  0  0  0  0  0  0  0
   -2.6696    0.8943   -1.7139 O   0  0  0  0  0  0  0  0  0  0  0  0
   -2.8131    1.2631    0.3120 O   0  0  0  0  0  0  0  0  0  0  0  0
   -2.6097   -1.4458    0.5349 H   0  0  0  0  0  0  0  0  0  0  0  0
   -1.0406   -2.5071   -0.7882 H   0  0  0  0  0  0  0  0  0  0  0  0
   -0.4175   -1.7429    1.3588 H   0  0  0  0  0  0  0  0  0  0  0  0
   -1.0769   -0.1974    1.8902 H   0  0  0  0  0  0  0  0  0  0  0  0
   -0.0012    1.9307    0.8248 H   0  0  0  0  0  0  0  0  0  0  0  0
    2.0800    2.8592   -0.2303 H   0  0  0  0  0  0  0  0  0  0  0  0
    3.7344    1.2988   -1.2269 H   0  0  0  0  0  0  0  0  0  0  0  0
    3.3452   -1.1554   -1.1861 H   0  0  0  0  0  0  0  0  0  0  0  0
    1.3245   -1.9616   -0.1550 H   0  0  0  0  0  0  0  0  0  0  0  0
   -3.6241    1.0389   -2.0405 H   0  0  0  0  0  0  0  0  0  0  0  0
  1  2  1  0
  1  3  1  0
  3  4  1  0
  4  5  2  0
  5  6  1  0
  6  7  2  0
  7  8  1  0
  8  9  2  0
  1 10  1  0
 10 11  1  0
 10 12  2  0
  9  4  1  0
  1 13  1  1
  2 14  1  0
  3 15  1  0
  3 16  1  0
  5 17  1  0
  6 18  1  0
  7 19  1  0
  8 20  1  0
  9 21  1  0
 11 22  1  0
M  END
$$$$
