
     RDKit          3D

 65 67  0  0  0  0  0  0  0  0999 V2000
    6.6677   -3.2138    0.6976 C   0  0  0  0  0  0  0  0  0  0  0  0
    5.2979   -3.1662    0.0914 C   0  0  0  0  0  0  0  0  0  0  0  0
    5.0591   -2.0042   -0.8020 C   0  0  0  0  0  0  0  0  0  0  0  0
    5.1937   -0.6603   -0.1866 C   0  0  0  0  0  0  0  0  0  0  0  0
    4.2863   -0.3963    0.9120 N   0  0  0  0  0  0  0  0  0  0  0  0
    2.8631   -0.4608    0.6915 C   0  0  0  0  0  0  0  0  0  0  0  0
    2.2549   -1.6032    0.9972 N   0  0  0  0  0  0  0  0  0  0  0  0
    0.9401   -1.7237    0.8041 C   0  0  0  0  0  0  0  0  0  0  0  0
    0.1987   -0.6628    0.2848 C   0  0  0  0  0  0  0  0  0  0  0  0
   -1.2253   -0.8261    0.0628 C   0  0  0  0  0  0  0  0  0  0  0  0
   -1.9266    0.0549   -0.4626 O   0  0  0  0  0  0  0  0  0  0  0  0
   -1.9179   -2.0160    0.4348 N   0  0  0  0  0  0  0  0  0  0  0  0
   -3.3300   -2.1573    0.1967 C   0  0  0  0  0  0  0  0  0  0  0  0
   -3.7829   -2.7255   -0.9818 C   0  0  0  0  0  0  0  0  0  0  0  0
   -5.1339   -2.8727   -1.2401 C   0  0  0  0  0  0  0  0  0  0  0  0
   -5.5504   -3.4509   -2.4394 O   0  0  0  0  0  0  0  0  0  0  0  0
   -6.9247   -3.6102   -2.7222 C   0  0  0  0  0  0  0  0  0  0  0  0
   -6.0033   -2.4260   -0.2679 C   0  0  0  0  0  0  0  0  0  0  0  0
   -5.5608   -1.8526    0.9219 C   0  0  0  0  0  0  0  0  0  0  0  0
   -4.2018   -1.7134    1.1637 C   0  0  0  0  0  0  0  0  0  0  0  0
   -3.6946   -1.1501    2.3293 O   0  0  0  0  0  0  0  0  0  0  0  0
   -4.6539   -0.7050    3.3007 C   0  0  0  0  0  0  0  0  0  0  0  0
    0.8286    0.5130   -0.0285 C   0  0  0  0  0  0  0  0  0  0  0  0
    0.2286    1.6713   -0.5660 N   0  0  0  0  0  0  0  0  0  0  0  0
    1.0406    2.8717   -0.8405 C   0  0  1  0  0  0  0  0  0  0  0  0
    0.1488    3.8661   -1.5476 C   0  0  0  0  0  0  0  0  0  0  0  0
    0.5760    5.2972   -1.3718 C   0  0  0  0  0  0  0  0  0  0  0  0
    0.7161    5.6721    0.0884 C   0  0  2  0  0  0  0  0  0  0  0  0
    1.9847    6.2307    0.2561 O   0  0  0  0  0  0  0  0  0  0  0  0
    0.6425    4.4506    0.9797 C   0  0  0  0  0  0  0  0  0  0  0  0
    1.6346    3.4522    0.4019 C   0  0  0  0  0  0  0  0  0  0  0  0
    2.1806    0.5701    0.1944 N   0  0  0  0  0  0  0  0  0  0  0  0
    7.4106   -2.5932    0.1760 H   0  0  0  0  0  0  0  0  0  0  0  0
    6.5771   -2.9668    1.7749 H   0  0  0  0  0  0  0  0  0  0  0  0
    7.0630   -4.2670    0.6681 H   0  0  0  0  0  0  0  0  0  0  0  0
    4.5150   -3.2438    0.8714 H   0  0  0  0  0  0  0  0  0  0  0  0
    5.1731   -4.0885   -0.5422 H   0  0  0  0  0  0  0  0  0  0  0  0
    5.6598   -2.0213   -1.7314 H   0  0  0  0  0  0  0  0  0  0  0  0
    3.9890   -2.0897   -1.1573 H   0  0  0  0  0  0  0  0  0  0  0  0
    4.9144    0.0857   -0.9863 H   0  0  0  0  0  0  0  0  0  0  0  0
    6.2216   -0.3930    0.1171 H   0  0  0  0  0  0  0  0  0  0  0  0
    4.6224   -0.1625    1.8538 H   0  0  0  0  0  0  0  0  0  0  0  0
    0.4687   -2.6637    1.0588 H   0  0  0  0  0  0  0  0  0  0  0  0
   -1.4442   -2.8064    0.8817 H   0  0  0  0  0  0  0  0  0  0  0  0
   -3.0729   -3.0657   -1.7266 H   0  0  0  0  0  0  0  0  0  0  0  0
   -7.2950   -2.6069   -3.0800 H   0  0  0  0  0  0  0  0  0  0  0  0
   -7.4831   -3.9618   -1.8477 H   0  0  0  0  0  0  0  0  0  0  0  0
   -7.0545   -4.3447   -3.5454 H   0  0  0  0  0  0  0  0  0  0  0  0
   -7.0737   -2.5337   -0.4556 H   0  0  0  0  0  0  0  0  0  0  0  0
   -6.2625   -1.5191    1.6502 H   0  0  0  0  0  0  0  0  0  0  0  0
   -4.1512   -0.1157    4.0969 H   0  0  0  0  0  0  0  0  0  0  0  0
   -5.2208   -1.5600    3.7191 H   0  0  0  0  0  0  0  0  0  0  0  0
   -5.3675   -0.0035    2.8165 H   0  0  0  0  0  0  0  0  0  0  0  0
   -0.7769    1.7191   -0.7802 H   0  0  0  0  0  0  0  0  0  0  0  0
    1.8730    2.5178   -1.4738 H   0  0  0  0  0  0  0  0  0  0  0  0
   -0.9241    3.7043   -1.3631 H   0  0  0  0  0  0  0  0  0  0  0  0
    0.2951    3.6453   -2.6460 H   0  0  0  0  0  0  0  0  0  0  0  0
   -0.2509    5.9282   -1.7785 H   0  0  0  0  0  0  0  0  0  0  0  0
    1.4742    5.5307   -1.9704 H   0  0  0  0  0  0  0  0  0  0  0  0
   -0.0233    6.3962    0.4356 H   0  0  0  0  0  0  0  0  0  0  0  0
    2.3271    6.6612   -0.5710 H   0  0  0  0  0  0  0  0  0  0  0  0
   -0.3882    4.0804    0.9799 H   0  0  0  0  0  0  0  0  0  0  0  0
    0.9700    4.7498    1.9920 H   0  0  0  0  0  0  0  0  0  0  0  0
    2.5175    4.0571    0.0819 H   0  0  0  0  0  0  0  0  0  0  0  0
    1.8808    2.6784    1.1293 H   0  0  0  0  0  0  0  0  0  0  0  0
  1  2  1  0
  2  3  1  0
  3  4  1  0
  4  5  1  0
  5  6  1  0
  6  7  2  0
  7  8  1  0
  8  9  2  0
  9 10  1  0
 10 11  2  0
 10 12  1  0
 12 13  1  0
 13 14  2  0
 14 15  1  0
 15 16  1  0
 16 17  1  0
 15 18  2  0
 18 19  1  0
 19 20  2  0
 20 21  1  0
 21 22  1  0
  9 23  1  0
 23 24  1  0
 24 25  1  0
 25 26  1  0
 26 27  1  0
 27 28  1  0
 28 29  1  0
 28 30  1  0
 30 31  1  0
 23 32  2  0
 32  6  1  0
 20 13  1  0
 31 25  1  0
  1 33  1  0
  1 34  1  0
  1 35  1  0
  2 36  1  0
  2 37  1  0
  3 38  1  0
  3 39  1  0
  4 40  1  0
  4 41  1  0
  5 42  1  0
  8 43  1  0
 12 44  1  0
 14 45  1  0
 17 46  1  0
 17 47  1  0
 17 48  1  0
 18 49  1  0
 19 50  1  0
 22 51  1  0
 22 52  1  0
 22 53  1  0
 24 54  1  0
 25 55  1  6
 26 56  1  0
 26 57  1  0
 27 58  1  0
 27 59  1  0
 28 60  1  1
 29 61  1  0
 30 62  1  0
 30 63  1  0
 31 64  1  0
 31 65  1  0
M  END
$$$$
