@<TRIPOS>MOLECULE
*****
 65 67 0 0 0
SMALL
GASTEIGER

@<TRIPOS>ATOM
      1 C           6.6677   -3.2138    0.6976 C.3     1  UNL1       -0.0652
      2 C           5.2979   -3.1662    0.0914 C.3     1  UNL1       -0.0545
      3 C           5.0591   -2.0042   -0.8020 C.3     1  UNL1       -0.0376
      4 C           5.1937   -0.6603   -0.1866 C.3     1  UNL1        0.0118
      5 N           4.2863   -0.3963    0.9120 N.pl3   1  UNL1       -0.3134
      6 C           2.8631   -0.4608    0.6915 C.ar    1  UNL1        0.2169
      7 N           2.2549   -1.6032    0.9972 N.ar    1  UNL1       -0.2221
      8 C           0.9401   -1.7237    0.8041 C.ar    1  UNL1        0.0466
      9 C           0.1987   -0.6628    0.2848 C.ar    1  UNL1        0.0948
     10 C          -1.2253   -0.8261    0.0628 C.2     1  UNL1        0.2531
     11 O          -1.9266    0.0549   -0.4626 O.2     1  UNL1       -0.2697
     12 N          -1.9179   -2.0160    0.4348 N.am    1  UNL1       -0.2783
     13 C          -3.3300   -2.1573    0.1967 C.ar    1  UNL1        0.0793
     14 C          -3.7829   -2.7255   -0.9818 C.ar    1  UNL1        0.0049
     15 C          -5.1339   -2.8727   -1.2401 C.ar    1  UNL1        0.1221
     16 O          -5.5504   -3.4509   -2.4394 O.3     1  UNL1       -0.4950
     17 C          -6.9247   -3.6102   -2.7222 C.3     1  UNL1        0.0788
     18 C          -6.0033   -2.4260   -0.2679 C.ar    1  UNL1       -0.0164
     19 C          -5.5608   -1.8526    0.9219 C.ar    1  UNL1       -0.0147
     20 C          -4.2018   -1.7134    1.1637 C.ar    1  UNL1        0.1414
     21 O          -3.6946   -1.1501    2.3293 O.3     1  UNL1       -0.4933
     22 C          -4.6539   -0.7050    3.3007 C.3     1  UNL1        0.0789
     23 C           0.8286    0.5130   -0.0285 C.ar    1  UNL1        0.1363
     24 N           0.2286    1.6713   -0.5660 N.pl3   1  UNL1       -0.3255
     25 C           1.0406    2.8717   -0.8405 C.3     1  UNL1        0.0221
     26 C           0.1488    3.8661   -1.5476 C.3     1  UNL1       -0.0322
     27 C           0.5760    5.2972   -1.3718 C.3     1  UNL1       -0.0252
     28 C           0.7161    5.6721    0.0884 C.3     1  UNL1        0.0554
     29 O           1.9847    6.2307    0.2561 O.3     1  UNL1       -0.3918
     30 C           0.6425    4.4506    0.9797 C.3     1  UNL1       -0.0252
     31 C           1.6346    3.4522    0.4019 C.3     1  UNL1       -0.0322
     32 N           2.1806    0.5701    0.1944 N.ar    1  UNL1       -0.1990
     33 H           7.4106   -2.5932    0.1760 H       1  UNL1        0.0230
     34 H           6.5771   -2.9668    1.7749 H       1  UNL1        0.0230
     35 H           7.0630   -4.2670    0.6681 H       1  UNL1        0.0230
     36 H           4.5150   -3.2438    0.8714 H       1  UNL1        0.0263
     37 H           5.1731   -4.0885   -0.5422 H       1  UNL1        0.0263
     38 H           5.6598   -2.0213   -1.7314 H       1  UNL1        0.0280
     39 H           3.9890   -2.0897   -1.1573 H       1  UNL1        0.0280
     40 H           4.9144    0.0857   -0.9863 H       1  UNL1        0.0462
     41 H           6.2216   -0.3930    0.1171 H       1  UNL1        0.0462
     42 H           4.6224   -0.1625    1.8538 H       1  UNL1        0.1489
     43 H           0.4687   -2.6637    1.0588 H       1  UNL1        0.0839
     44 H          -1.4442   -2.8064    0.8817 H       1  UNL1        0.1552
     45 H          -3.0729   -3.0657   -1.7266 H       1  UNL1        0.0674
     46 H          -7.2950   -2.6069   -3.0800 H       1  UNL1        0.0660
     47 H          -7.4831   -3.9618   -1.8477 H       1  UNL1        0.0660
     48 H          -7.0545   -4.3447   -3.5454 H       1  UNL1        0.0660
     49 H          -7.0737   -2.5337   -0.4556 H       1  UNL1        0.0655
     50 H          -6.2625   -1.5191    1.6502 H       1  UNL1        0.0656
     51 H          -4.1512   -0.1157    4.0969 H       1  UNL1        0.0660
     52 H          -5.2208   -1.5600    3.7191 H       1  UNL1        0.0660
     53 H          -5.3675   -0.0035    2.8165 H       1  UNL1        0.0660
     54 H          -0.7769    1.7191   -0.7802 H       1  UNL1        0.1478
     55 H           1.8730    2.5178   -1.4738 H       1  UNL1        0.0498
     56 H          -0.9241    3.7043   -1.3631 H       1  UNL1        0.0284
     57 H           0.2951    3.6453   -2.6460 H       1  UNL1        0.0284
     58 H          -0.2509    5.9282   -1.7785 H       1  UNL1        0.0291
     59 H           1.4742    5.5307   -1.9704 H       1  UNL1        0.0291
     60 H          -0.0233    6.3962    0.4356 H       1  UNL1        0.0593
     61 H           2.3271    6.6612   -0.5710 H       1  UNL1        0.2098
     62 H          -0.3882    4.0804    0.9799 H       1  UNL1        0.0291
     63 H           0.9700    4.7498    1.9920 H       1  UNL1        0.0291
     64 H           2.5175    4.0571    0.0819 H       1  UNL1        0.0284
     65 H           1.8808    2.6784    1.1293 H       1  UNL1        0.0284
@<TRIPOS>BOND
     1     1     2    1
     2     2     3    1
     3     3     4    1
     4     4     5    1
     5     5     6    1
     6     6     7   ar
     7     7     8   ar
     8     8     9   ar
     9     9    10    1
    10    10    11    2
    11    10    12   am
    12    12    13    1
    13    13    14   ar
    14    14    15   ar
    15    15    16    1
    16    16    17    1
    17    15    18   ar
    18    18    19   ar
    19    19    20   ar
    20    20    21    1
    21    21    22    1
    22     9    23   ar
    23    23    24    1
    24    24    25    1
    25    25    26    1
    26    26    27    1
    27    27    28    1
    28    28    29    1
    29    28    30    1
    30    30    31    1
    31    23    32   ar
    32    32     6   ar
    33    20    13   ar
    34    31    25    1
    35     1    33    1
    36     1    34    1
    37     1    35    1
    38     2    36    1
    39     2    37    1
    40     3    38    1
    41     3    39    1
    42     4    40    1
    43     4    41    1
    44     5    42    1
    45     8    43    1
    46    12    44    1
    47    14    45    1
    48    17    46    1
    49    17    47    1
    50    17    48    1
    51    18    49    1
    52    19    50    1
    53    22    51    1
    54    22    52    1
    55    22    53    1
    56    24    54    1
    57    25    55    1
    58    26    56    1
    59    26    57    1
    60    27    58    1
    61    27    59    1
    62    28    60    1
    63    29    61    1
    64    30    62    1
    65    30    63    1
    66    31    64    1
    67    31    65    1
