
     RDKit          3D

 63 66  0  0  0  0  0  0  0  0999 V2000
    0.7719   -3.2765   -0.9234 C   0  0  0  0  0  0  0  0  0  0  0  0
    0.6951   -2.2301    0.1899 C   0  0  1  0  0  0  0  0  0  0  0  0
    1.9183   -1.4173    0.0732 C   0  0  0  0  0  0  0  0  0  0  0  0
    2.1770   -0.4642   -0.8693 C   0  0  0  0  0  0  0  0  0  0  0  0
    3.3836    0.2482   -0.8616 C   0  0  0  0  0  0  0  0  0  0  0  0
    4.3487    0.0326    0.0703 C   0  0  0  0  0  0  0  0  0  0  0  0
    5.6184    0.7609    0.1033 C   0  0  0  0  0  0  0  0  0  0  0  0
    6.2564    1.0083    1.3008 C   0  0  0  0  0  0  0  0  0  0  0  0
    7.4614    1.6963    1.3633 C   0  0  0  0  0  0  0  0  0  0  0  0
    8.0355    2.1437    0.2007 C   0  0  0  0  0  0  0  0  0  0  0  0
    9.2213    2.8165    0.3042 F   0  0  0  0  0  0  0  0  0  0  0  0
    7.4201    1.9098   -1.0016 C   0  0  0  0  0  0  0  0  0  0  0  0
    6.2125    1.2193   -1.0539 C   0  0  0  0  0  0  0  0  0  0  0  0
    4.1085   -0.9251    1.0304 C   0  0  0  0  0  0  0  0  0  0  0  0
    2.9273   -1.6198    1.0199 C   0  0  0  0  0  0  0  0  0  0  0  0
   -0.5402   -1.5313    0.1907 N   0  0  0  0  0  0  0  0  0  0  0  0
   -0.9871   -0.7166   -0.8939 C   0  0  0  0  0  0  0  0  0  0  0  0
   -2.5341   -0.7445   -0.8538 C   0  0  0  0  0  0  0  0  0  0  0  0
   -2.9720   -0.0044    0.3781 C   0  0  2  0  0  0  0  0  0  0  0  0
   -4.4296    0.2493    0.4916 C   0  0  0  0  0  0  0  0  0  0  0  0
   -5.3375   -0.9232    0.5436 C   0  0  0  0  0  0  0  0  0  0  0  0
   -5.3377   -1.8451   -0.6186 C   0  0  0  0  0  0  0  0  0  0  0  0
   -6.7633   -0.3499    0.6767 C   0  0  0  0  0  0  0  0  0  0  0  0
   -5.1285   -1.5928    1.7597 O   0  0  0  0  0  0  0  0  0  0  0  0
   -2.2439    1.2894    0.4405 C   0  0  0  0  0  0  0  0  0  0  0  0
   -1.1366    1.5045    1.2558 C   0  0  0  0  0  0  0  0  0  0  0  0
   -0.4596    2.7092    1.2952 C   0  0  0  0  0  0  0  0  0  0  0  0
   -0.8914    3.7470    0.4977 C   0  0  0  0  0  0  0  0  0  0  0  0
   -1.9813    3.5745   -0.3217 C   0  0  0  0  0  0  0  0  0  0  0  0
   -2.6419    2.3471   -0.3381 C   0  0  0  0  0  0  0  0  0  0  0  0
   -2.5125   -0.8106    1.4886 O   0  0  0  0  0  0  0  0  0  0  0  0
   -1.4200   -1.6497    1.3227 C   0  0  0  0  0  0  0  0  0  0  0  0
   -1.1940   -2.5372    2.1865 O   0  0  0  0  0  0  0  0  0  0  0  0
    1.6500   -3.9206   -0.6688 H   0  0  0  0  0  0  0  0  0  0  0  0
   -0.1121   -3.9167   -0.9405 H   0  0  0  0  0  0  0  0  0  0  0  0
    1.0125   -2.8097   -1.8979 H   0  0  0  0  0  0  0  0  0  0  0  0
    0.8129   -2.8529    1.1362 H   0  0  0  0  0  0  0  0  0  0  0  0
    1.4395   -0.2703   -1.6314 H   0  0  0  0  0  0  0  0  0  0  0  0
    3.5248    0.9865   -1.6326 H   0  0  0  0  0  0  0  0  0  0  0  0
    5.8307    0.6694    2.2351 H   0  0  0  0  0  0  0  0  0  0  0  0
    7.9489    1.8816    2.3158 H   0  0  0  0  0  0  0  0  0  0  0  0
    7.9037    2.2787   -1.9019 H   0  0  0  0  0  0  0  0  0  0  0  0
    5.7722    1.0618   -2.0137 H   0  0  0  0  0  0  0  0  0  0  0  0
    4.8794   -1.0990    1.7764 H   0  0  0  0  0  0  0  0  0  0  0  0
    2.8128   -2.3587    1.8100 H   0  0  0  0  0  0  0  0  0  0  0  0
   -0.6737    0.3213   -0.8022 H   0  0  0  0  0  0  0  0  0  0  0  0
   -0.7085   -1.1355   -1.8925 H   0  0  0  0  0  0  0  0  0  0  0  0
   -2.7797   -1.8074   -0.8366 H   0  0  0  0  0  0  0  0  0  0  0  0
   -2.9282   -0.2883   -1.7877 H   0  0  0  0  0  0  0  0  0  0  0  0
   -4.7426    0.9827   -0.2855 H   0  0  0  0  0  0  0  0  0  0  0  0
   -4.5813    0.8067    1.4662 H   0  0  0  0  0  0  0  0  0  0  0  0
   -5.0121   -1.3656   -1.5525 H   0  0  0  0  0  0  0  0  0  0  0  0
   -6.4131   -2.1528   -0.8379 H   0  0  0  0  0  0  0  0  0  0  0  0
   -4.8496   -2.8287   -0.4094 H   0  0  0  0  0  0  0  0  0  0  0  0
   -6.7679    0.6038    1.2069 H   0  0  0  0  0  0  0  0  0  0  0  0
   -7.1605   -0.2731   -0.3695 H   0  0  0  0  0  0  0  0  0  0  0  0
   -7.3807   -1.1390    1.1699 H   0  0  0  0  0  0  0  0  0  0  0  0
   -4.9722   -0.9271    2.4758 H   0  0  0  0  0  0  0  0  0  0  0  0
   -0.8250    0.6721    1.8708 H   0  0  0  0  0  0  0  0  0  0  0  0
    0.4090    2.8552    1.9443 H   0  0  0  0  0  0  0  0  0  0  0  0
   -0.3408    4.6916    0.5449 H   0  0  0  0  0  0  0  0  0  0  0  0
   -2.3048    4.3974   -0.9385 H   0  0  0  0  0  0  0  0  0  0  0  0
   -3.4885    2.3183   -1.0277 H   0  0  0  0  0  0  0  0  0  0  0  0
  1  2  1  0
  2  3  1  0
  3  4  2  0
  4  5  1  0
  5  6  2  0
  6  7  1  0
  7  8  2  0
  8  9  1  0
  9 10  2  0
 10 11  1  0
 10 12  1  0
 12 13  2  0
  6 14  1  0
 14 15  2  0
  2 16  1  0
 16 17  1  0
 17 18  1  0
 18 19  1  0
 19 20  1  6
 20 21  1  0
 21 22  1  0
 21 23  1  0
 21 24  1  0
 19 25  1  0
 25 26  2  0
 26 27  1  0
 27 28  2  0
 28 29  1  0
 29 30  2  0
 19 31  1  0
 31 32  1  0
 32 33  2  0
 15  3  1  0
 32 16  1  0
 13  7  1  0
 30 25  1  0
  1 34  1  0
  1 35  1  0
  1 36  1  0
  2 37  1  1
  4 38  1  0
  5 39  1  0
  8 40  1  0
  9 41  1  0
 12 42  1  0
 13 43  1  0
 14 44  1  0
 15 45  1  0
 17 46  1  0
 17 47  1  0
 18 48  1  0
 18 49  1  0
 20 50  1  0
 20 51  1  0
 22 52  1  0
 22 53  1  0
 22 54  1  0
 23 55  1  0
 23 56  1  0
 23 57  1  0
 24 58  1  0
 26 59  1  0
 27 60  1  0
 28 61  1  0
 29 62  1  0
 30 63  1  0
M  END
$$$$
