@<TRIPOS>MOLECULE
*****
 63 66 0 0 0
SMALL
GASTEIGER

@<TRIPOS>ATOM
      1 C           0.7719   -3.2765   -0.9234 C.3     1  UNL1       -0.0421
      2 C           0.6951   -2.2301    0.1899 C.3     1  UNL1        0.0515
      3 C           1.9183   -1.4173    0.0732 C.ar    1  UNL1       -0.0271
      4 C           2.1770   -0.4642   -0.8693 C.ar    1  UNL1       -0.0562
      5 C           3.3836    0.2482   -0.8616 C.ar    1  UNL1       -0.0537
      6 C           4.3487    0.0326    0.0703 C.ar    1  UNL1       -0.0179
      7 C           5.6184    0.7609    0.1033 C.ar    1  UNL1       -0.0177
      8 C           6.2564    1.0083    1.3008 C.ar    1  UNL1       -0.0513
      9 C           7.4614    1.6963    1.3633 C.ar    1  UNL1       -0.0259
     10 C           8.0355    2.1437    0.2007 C.ar    1  UNL1        0.1234
     11 F           9.2213    2.8165    0.3042 F       1  UNL1       -0.2055
     12 C           7.4201    1.9098   -1.0016 C.ar    1  UNL1       -0.0259
     13 C           6.2125    1.2193   -1.0539 C.ar    1  UNL1       -0.0513
     14 C           4.1085   -0.9251    1.0304 C.ar    1  UNL1       -0.0537
     15 C           2.9273   -1.6198    1.0199 C.ar    1  UNL1       -0.0562
     16 N          -0.5402   -1.5313    0.1907 N.am    1  UNL1       -0.2605
     17 C          -0.9871   -0.7166   -0.8939 C.3     1  UNL1        0.0224
     18 C          -2.5341   -0.7445   -0.8538 C.3     1  UNL1        0.0076
     19 C          -2.9720   -0.0044    0.3781 C.3     1  UNL1        0.1440
     20 C          -4.4296    0.2493    0.4916 C.3     1  UNL1        0.0199
     21 C          -5.3375   -0.9232    0.5436 C.3     1  UNL1        0.0645
     22 C          -5.3377   -1.8451   -0.6186 C.3     1  UNL1       -0.0362
     23 C          -6.7633   -0.3499    0.6767 C.3     1  UNL1       -0.0362
     24 O          -5.1285   -1.5928    1.7597 O.3     1  UNL1       -0.3890
     25 C          -2.2439    1.2894    0.4405 C.ar    1  UNL1       -0.0040
     26 C          -1.1366    1.5045    1.2558 C.ar    1  UNL1       -0.0548
     27 C          -0.4596    2.7092    1.2952 C.ar    1  UNL1       -0.0614
     28 C          -0.8914    3.7470    0.4977 C.ar    1  UNL1       -0.0617
     29 C          -1.9813    3.5745   -0.3217 C.ar    1  UNL1       -0.0614
     30 C          -2.6419    2.3471   -0.3381 C.ar    1  UNL1       -0.0548
     31 O          -2.5125   -0.8106    1.4886 O.3     1  UNL1       -0.4387
     32 C          -1.4200   -1.6497    1.3227 C.2     1  UNL1        0.4042
     33 O          -1.1940   -2.5372    2.1865 O.2     1  UNL1       -0.2262
     34 H           1.6500   -3.9206   -0.6688 H       1  UNL1        0.0251
     35 H          -0.1121   -3.9167   -0.9405 H       1  UNL1        0.0251
     36 H           1.0125   -2.8097   -1.8979 H       1  UNL1        0.0251
     37 H           0.8129   -2.8529    1.1362 H       1  UNL1        0.0549
     38 H           1.4395   -0.2703   -1.6314 H       1  UNL1        0.0621
     39 H           3.5248    0.9865   -1.6326 H       1  UNL1        0.0624
     40 H           5.8307    0.6694    2.2351 H       1  UNL1        0.0624
     41 H           7.9489    1.8816    2.3158 H       1  UNL1        0.0646
     42 H           7.9037    2.2787   -1.9019 H       1  UNL1        0.0646
     43 H           5.7722    1.0618   -2.0137 H       1  UNL1        0.0624
     44 H           4.8794   -1.0990    1.7764 H       1  UNL1        0.0624
     45 H           2.8128   -2.3587    1.8100 H       1  UNL1        0.0621
     46 H          -0.6737    0.3213   -0.8022 H       1  UNL1        0.0467
     47 H          -0.7085   -1.1355   -1.8925 H       1  UNL1        0.0467
     48 H          -2.7797   -1.8074   -0.8366 H       1  UNL1        0.0322
     49 H          -2.9282   -0.2883   -1.7877 H       1  UNL1        0.0322
     50 H          -4.7426    0.9827   -0.2855 H       1  UNL1        0.0335
     51 H          -4.5813    0.8067    1.4662 H       1  UNL1        0.0335
     52 H          -5.0121   -1.3656   -1.5525 H       1  UNL1        0.0257
     53 H          -6.4131   -2.1528   -0.8379 H       1  UNL1        0.0257
     54 H          -4.8496   -2.8287   -0.4094 H       1  UNL1        0.0257
     55 H          -6.7679    0.6038    1.2069 H       1  UNL1        0.0257
     56 H          -7.1605   -0.2731   -0.3695 H       1  UNL1        0.0257
     57 H          -7.3807   -1.1390    1.1699 H       1  UNL1        0.0257
     58 H          -4.9722   -0.9271    2.4758 H       1  UNL1        0.2101
     59 H          -0.8250    0.6721    1.8708 H       1  UNL1        0.0622
     60 H           0.4090    2.8552    1.9443 H       1  UNL1        0.0618
     61 H          -0.3408    4.6916    0.5449 H       1  UNL1        0.0618
     62 H          -2.3048    4.3974   -0.9385 H       1  UNL1        0.0618
     63 H          -3.4885    2.3183   -1.0277 H       1  UNL1        0.0622
@<TRIPOS>BOND
     1     1     2    1
     2     2     3    1
     3     3     4   ar
     4     4     5   ar
     5     5     6   ar
     6     6     7    1
     7     7     8   ar
     8     8     9   ar
     9     9    10   ar
    10    10    11    1
    11    10    12   ar
    12    12    13   ar
    13     6    14   ar
    14    14    15   ar
    15     2    16    1
    16    16    17    1
    17    17    18    1
    18    18    19    1
    19    19    20    1
    20    20    21    1
    21    21    22    1
    22    21    23    1
    23    21    24    1
    24    19    25    1
    25    25    26   ar
    26    26    27   ar
    27    27    28   ar
    28    28    29   ar
    29    29    30   ar
    30    19    31    1
    31    31    32    1
    32    32    33    2
    33    15     3   ar
    34    32    16   am
    35    13     7   ar
    36    30    25   ar
    37     1    34    1
    38     1    35    1
    39     1    36    1
    40     2    37    1
    41     4    38    1
    42     5    39    1
    43     8    40    1
    44     9    41    1
    45    12    42    1
    46    13    43    1
    47    14    44    1
    48    15    45    1
    49    17    46    1
    50    17    47    1
    51    18    48    1
    52    18    49    1
    53    20    50    1
    54    20    51    1
    55    22    52    1
    56    22    53    1
    57    22    54    1
    58    23    55    1
    59    23    56    1
    60    23    57    1
    61    24    58    1
    62    26    59    1
    63    27    60    1
    64    28    61    1
    65    29    62    1
    66    30    63    1
