@<TRIPOS>MOLECULE
*****
 62 66 0 0 0
SMALL
GASTEIGER

@<TRIPOS>ATOM
      1 C           0.8079   -2.6980   -1.5542 C.3     1  UNL1       -0.0188
      2 C          -0.0134   -1.6028   -0.9530 C.ar    1  UNL1        0.0814
      3 N          -1.3091   -1.5781   -0.6664 N.ar    1  UNL1       -0.1741
      4 N          -1.6918   -0.4284   -0.1377 N.ar    1  UNL1       -0.2634
      5 C          -3.0225   -0.0505    0.2940 C.3     1  UNL1        0.0559
      6 C          -3.7812    0.7718   -0.6944 C.3     1  UNL1       -0.0146
      7 C          -5.0466    1.2448   -0.0096 C.3     1  UNL1        0.0167
      8 N          -5.7350    0.2357    0.7237 N.am    1  UNL1       -0.2992
      9 C          -7.1450    0.2555    0.8222 C.2     1  UNL1        0.2439
     10 O          -7.7234   -0.6414    1.5113 O.2     1  UNL1       -0.2728
     11 C          -7.9541    1.2841    0.1513 C.3     1  UNL1        0.1283
     12 C          -7.9634    1.0491   -1.3537 C.3     1  UNL1       -0.0303
     13 O          -9.2711    1.1758    0.6318 O.3     1  UNL1       -0.3828
     14 C          -5.0278   -0.8585    1.4049 C.3     1  UNL1        0.0167
     15 C          -3.8737   -1.3031    0.5405 C.3     1  UNL1       -0.0146
     16 C          -0.5802    0.3347   -0.0791 C.ar    1  UNL1        0.0579
     17 C          -0.5360    1.7259    0.4543 C.3     1  UNL1       -0.0208
     18 C           0.4896   -0.3732   -0.5831 C.ar    1  UNL1        0.0774
     19 N           1.8382    0.0235   -0.7161 N.pl3   1  UNL1       -0.2807
     20 C           2.7869   -0.1831    0.3464 C.ar    1  UNL1        0.2202
     21 N           2.4271   -0.7411    1.5004 N.ar    1  UNL1       -0.2212
     22 C           3.3307   -0.9246    2.4896 C.ar    1  UNL1        0.0516
     23 C           4.6592   -0.5282    2.3096 C.ar    1  UNL1        0.0852
     24 CL          5.8589   -0.7442    3.5564 Cl      1  UNL1       -0.0797
     25 C           5.0067    0.0472    1.1056 C.ar    1  UNL1        0.0979
     26 C           6.3785    0.4681    0.8853 C.ar    1  UNL1        0.0470
     27 C           7.1356    1.3465    1.6716 C.ar    1  UNL1        0.0596
     28 N           8.3357    1.4473    1.0901 N.ar    1  UNL1       -0.1741
     29 N           8.4106    0.6979   -0.0139 N.ar    1  UNL1       -0.2392
     30 C           9.4275    0.5155   -0.8789 C.ar    1  UNL1        0.0298
     31 C           9.2616   -0.3188   -1.9526 C.ar    1  UNL1       -0.0435
     32 C           8.0316   -0.9516   -2.1069 C.ar    1  UNL1       -0.0583
     33 C           7.0108   -0.7550   -1.2195 C.ar    1  UNL1       -0.0355
     34 C           7.2177    0.0989   -0.1421 C.ar    1  UNL1        0.0760
     35 N           4.0545    0.2011    0.1602 N.ar    1  UNL1       -0.2126
     36 H           0.2534   -3.1899   -2.3712 H       1  UNL1        0.0294
     37 H           1.7879   -2.2966   -1.8770 H       1  UNL1        0.0294
     38 H           0.9436   -3.4557   -0.7525 H       1  UNL1        0.0294
     39 H          -3.0068    0.4834    1.2677 H       1  UNL1        0.0546
     40 H          -3.2497    1.6886   -1.0349 H       1  UNL1        0.0301
     41 H          -4.0314    0.2096   -1.6197 H       1  UNL1        0.0301
     42 H          -4.7904    2.0740    0.7029 H       1  UNL1        0.0465
     43 H          -5.6981    1.6857   -0.7732 H       1  UNL1        0.0465
     44 H          -7.5849    2.2948    0.3327 H       1  UNL1        0.0687
     45 H          -7.3247    0.2002   -1.6624 H       1  UNL1        0.0259
     46 H          -9.0042    0.7204   -1.6174 H       1  UNL1        0.0259
     47 H          -7.7493    1.9601   -1.9361 H       1  UNL1        0.0259
     48 H          -9.3688    0.4405    1.2947 H       1  UNL1        0.2104
     49 H          -4.5855   -0.5237    2.3690 H       1  UNL1        0.0465
     50 H          -5.7476   -1.6886    1.5479 H       1  UNL1        0.0465
     51 H          -3.3115   -2.1087    1.0129 H       1  UNL1        0.0301
     52 H          -4.2281   -1.6144   -0.4855 H       1  UNL1        0.0301
     53 H           0.5150    2.0690    0.5355 H       1  UNL1        0.0293
     54 H          -1.0522    2.4441   -0.1893 H       1  UNL1        0.0293
     55 H          -0.9328    1.7392    1.5070 H       1  UNL1        0.0293
     56 H           2.1353    0.4719   -1.6052 H       1  UNL1        0.1551
     57 H           3.0449   -1.3746    3.4245 H       1  UNL1        0.0846
     58 H           6.8066    1.8444    2.5727 H       1  UNL1        0.0855
     59 H          10.3663    1.0199   -0.7318 H       1  UNL1        0.0830
     60 H          10.0554   -0.5021   -2.6831 H       1  UNL1        0.0633
     61 H           7.9188   -1.6027   -2.9548 H       1  UNL1        0.0619
     62 H           6.0438   -1.2315   -1.3100 H       1  UNL1        0.0639
@<TRIPOS>BOND
     1     1     2    1
     2     2     3   ar
     3     3     4   ar
     4     4     5    1
     5     5     6    1
     6     6     7    1
     7     7     8    1
     8     8     9   am
     9     9    10    2
    10     9    11    1
    11    11    12    1
    12    11    13    1
    13     8    14    1
    14    14    15    1
    15     4    16   ar
    16    16    17    1
    17    16    18   ar
    18    18    19    1
    19    19    20    1
    20    20    21   ar
    21    21    22   ar
    22    22    23   ar
    23    23    24    1
    24    23    25   ar
    25    25    26    1
    26    26    27   ar
    27    27    28   ar
    28    28    29   ar
    29    29    30   ar
    30    30    31   ar
    31    31    32   ar
    32    32    33   ar
    33    33    34   ar
    34    25    35   ar
    35    18     2   ar
    36    35    20   ar
    37    15     5    1
    38    34    26   ar
    39    34    29   ar
    40     1    36    1
    41     1    37    1
    42     1    38    1
    43     5    39    1
    44     6    40    1
    45     6    41    1
    46     7    42    1
    47     7    43    1
    48    11    44    1
    49    12    45    1
    50    12    46    1
    51    12    47    1
    52    13    48    1
    53    14    49    1
    54    14    50    1
    55    15    51    1
    56    15    52    1
    57    17    53    1
    58    17    54    1
    59    17    55    1
    60    19    56    1
    61    22    57    1
    62    27    58    1
    63    30    59    1
    64    31    60    1
    65    32    61    1
    66    33    62    1
