
     RDKit          3D

 52 56  0  0  0  0  0  0  0  0999 V2000
    0.3443    1.0498    3.5353 F   0  0  0  0  0  0  0  0  0  0  0  0
    1.2750    1.5674    2.6562 C   0  0  0  0  0  0  0  0  0  0  0  0
    2.4183    1.7601    3.4735 F   0  0  0  0  0  0  0  0  0  0  0  0
    0.9491    2.7599    2.0968 F   0  0  0  0  0  0  0  0  0  0  0  0
    1.6554    0.5560    1.6499 C   0  0  0  0  0  0  0  0  0  0  0  0
    0.6973   -0.0327    0.8564 C   0  0  0  0  0  0  0  0  0  0  0  0
   -0.6890    0.2245    0.9141 N   0  0  0  0  0  0  0  0  0  0  0  0
   -1.2259    1.4813    0.5417 C   0  0  0  0  0  0  0  0  0  0  0  0
   -2.5200    1.3604   -0.2380 C   0  0  0  0  0  0  0  0  0  0  0  0
   -3.4110    0.2785    0.3189 C   0  0  0  0  0  0  0  0  0  0  0  0
   -4.6920    0.2233   -0.3755 C   0  0  0  0  0  0  0  0  0  0  0  0
   -4.8098   -0.0750   -1.7249 C   0  0  0  0  0  0  0  0  0  0  0  0
   -6.0285   -0.1176   -2.3420 C   0  0  0  0  0  0  0  0  0  0  0  0
   -7.1864    0.1365   -1.6368 C   0  0  0  0  0  0  0  0  0  0  0  0
   -7.0975    0.4362   -0.2917 C   0  0  0  0  0  0  0  0  0  0  0  0
   -5.8549    0.4744    0.3141 C   0  0  0  0  0  0  0  0  0  0  0  0
   -2.6638   -1.0328    0.3173 C   0  0  0  0  0  0  0  0  0  0  0  0
   -1.5512   -0.8796    1.3687 C   0  0  0  0  0  0  0  0  0  0  0  0
    1.1737   -0.9741   -0.0771 C   0  0  0  0  0  0  0  0  0  0  0  0
    2.5011   -1.2758   -0.1801 C   0  0  0  0  0  0  0  0  0  0  0  0
    3.4257   -0.6971    0.5973 N   0  0  0  0  0  0  0  0  0  0  0  0
    4.7564   -0.8244    0.6946 C   0  0  0  0  0  0  0  0  0  0  0  0
    5.6730   -1.6632   -0.0756 C   0  0  0  0  0  0  0  0  0  0  0  0
    6.2206   -0.9521   -1.2564 C   0  0  0  0  0  0  0  0  0  0  0  0
    5.3313   -0.4393   -2.3076 C   0  0  0  0  0  0  0  0  0  0  0  0
    6.0665    0.5149   -1.4186 C   0  0  0  0  0  0  0  0  0  0  0  0
    5.1560    0.0180    1.6766 N   0  0  0  0  0  0  0  0  0  0  0  0
    4.0980    0.6380    2.1598 N   0  0  0  0  0  0  0  0  0  0  0  0
    2.9964    0.2035    1.4951 C   0  0  0  0  0  0  0  0  0  0  0  0
   -1.4996    2.0628    1.4574 H   0  0  0  0  0  0  0  0  0  0  0  0
   -0.4990    2.0629   -0.0260 H   0  0  0  0  0  0  0  0  0  0  0  0
   -3.0836    2.3061   -0.2604 H   0  0  0  0  0  0  0  0  0  0  0  0
   -2.2623    1.0882   -1.2787 H   0  0  0  0  0  0  0  0  0  0  0  0
   -3.5835    0.5350    1.3830 H   0  0  0  0  0  0  0  0  0  0  0  0
   -3.9099   -0.2725   -2.2727 H   0  0  0  0  0  0  0  0  0  0  0  0
   -6.1397   -0.3495   -3.3974 H   0  0  0  0  0  0  0  0  0  0  0  0
   -8.1695    0.1086   -2.1062 H   0  0  0  0  0  0  0  0  0  0  0  0
   -8.0189    0.6399    0.2756 H   0  0  0  0  0  0  0  0  0  0  0  0
   -5.8546    0.7186    1.3847 H   0  0  0  0  0  0  0  0  0  0  0  0
   -2.2182   -1.2782   -0.6605 H   0  0  0  0  0  0  0  0  0  0  0  0
   -3.3132   -1.8461    0.7087 H   0  0  0  0  0  0  0  0  0  0  0  0
   -0.9998   -1.8094    1.4919 H   0  0  0  0  0  0  0  0  0  0  0  0
   -2.0655   -0.5505    2.2951 H   0  0  0  0  0  0  0  0  0  0  0  0
    0.4732   -1.4660   -0.7237 H   0  0  0  0  0  0  0  0  0  0  0  0
    2.8731   -2.0090   -0.9070 H   0  0  0  0  0  0  0  0  0  0  0  0
    5.2197   -2.6326   -0.3886 H   0  0  0  0  0  0  0  0  0  0  0  0
    6.5283   -1.9481    0.5977 H   0  0  0  0  0  0  0  0  0  0  0  0
    7.2593   -1.3164   -1.5372 H   0  0  0  0  0  0  0  0  0  0  0  0
    5.6669   -0.5429   -3.3761 H   0  0  0  0  0  0  0  0  0  0  0  0
    4.2521   -0.4371   -2.2214 H   0  0  0  0  0  0  0  0  0  0  0  0
    5.4787    1.1248   -0.7120 H   0  0  0  0  0  0  0  0  0  0  0  0
    6.8582    1.0926   -1.9324 H   0  0  0  0  0  0  0  0  0  0  0  0
  1  2  1  0
  2  3  1  0
  2  4  1  0
  2  5  1  0
  5  6  2  0
  6  7  1  0
  7  8  1  0
  8  9  1  0
  9 10  1  0
 10 11  1  0
 11 12  2  0
 12 13  1  0
 13 14  2  0
 14 15  1  0
 15 16  2  0
 10 17  1  0
 17 18  1  0
  6 19  1  0
 19 20  2  0
 20 21  1  0
 21 22  1  0
 22 23  1  0
 23 24  1  0
 24 25  1  0
 25 26  1  0
 22 27  2  0
 27 28  1  0
 28 29  2  0
 29  5  1  0
 18  7  1  0
 29 21  1  0
 16 11  1  0
 26 24  1  0
  8 30  1  0
  8 31  1  0
  9 32  1  0
  9 33  1  0
 10 34  1  0
 12 35  1  0
 13 36  1  0
 14 37  1  0
 15 38  1  0
 16 39  1  0
 17 40  1  0
 17 41  1  0
 18 42  1  0
 18 43  1  0
 19 44  1  0
 20 45  1  0
 23 46  1  0
 23 47  1  0
 24 48  1  0
 25 49  1  0
 25 50  1  0
 26 51  1  0
 26 52  1  0
M  END
$$$$
