@<TRIPOS>MOLECULE
*****
 52 56 0 0 0
SMALL
GASTEIGER

@<TRIPOS>ATOM
      1 F           0.3443    1.0498    3.5353 F       1  UNL1       -0.1657
      2 C           1.2750    1.5674    2.6562 C.3     1  UNL1        0.4226
      3 F           2.4183    1.7601    3.4735 F       1  UNL1       -0.1657
      4 F           0.9491    2.7599    2.0968 F       1  UNL1       -0.1657
      5 C           1.6554    0.5560    1.6499 C.ar    1  UNL1        0.1202
      6 C           0.6973   -0.0327    0.8564 C.ar    1  UNL1        0.0465
      7 N          -0.6890    0.2245    0.9141 N.pl3   1  UNL1       -0.3293
      8 C          -1.2259    1.4813    0.5417 C.3     1  UNL1        0.0127
      9 C          -2.5200    1.3604   -0.2380 C.3     1  UNL1       -0.0303
     10 C          -3.4110    0.2785    0.3189 C.3     1  UNL1       -0.0130
     11 C          -4.6920    0.2233   -0.3755 C.ar    1  UNL1       -0.0442
     12 C          -4.8098   -0.0750   -1.7249 C.ar    1  UNL1       -0.0583
     13 C          -6.0285   -0.1176   -2.3420 C.ar    1  UNL1       -0.0615
     14 C          -7.1864    0.1365   -1.6368 C.ar    1  UNL1       -0.0617
     15 C          -7.0975    0.4362   -0.2917 C.ar    1  UNL1       -0.0615
     16 C          -5.8549    0.4744    0.3141 C.ar    1  UNL1       -0.0583
     17 C          -2.6638   -1.0328    0.3173 C.3     1  UNL1       -0.0303
     18 C          -1.5512   -0.8796    1.3687 C.3     1  UNL1        0.0127
     19 C           1.1737   -0.9741   -0.0771 C.ar    1  UNL1       -0.0234
     20 C           2.5011   -1.2758   -0.1801 C.ar    1  UNL1        0.0147
     21 N           3.4257   -0.6971    0.5973 N.ar    1  UNL1       -0.2858
     22 C           4.7564   -0.8244    0.6946 C.ar    1  UNL1        0.1380
     23 C           5.6730   -1.6632   -0.0756 C.3     1  UNL1        0.0106
     24 C           6.2206   -0.9521   -1.2564 C.3     1  UNL1       -0.0341
     25 C           5.3313   -0.4393   -2.3076 C.3     1  UNL1       -0.0496
     26 C           6.0665    0.5149   -1.4186 C.3     1  UNL1       -0.0496
     27 N           5.1560    0.0180    1.6766 N.ar    1  UNL1       -0.1337
     28 N           4.0980    0.6380    2.1598 N.ar    1  UNL1       -0.1288
     29 C           2.9964    0.2035    1.4951 C.ar    1  UNL1        0.1746
     30 H          -1.4996    2.0628    1.4574 H       1  UNL1        0.0464
     31 H          -0.4990    2.0629   -0.0260 H       1  UNL1        0.0464
     32 H          -3.0836    2.3061   -0.2604 H       1  UNL1        0.0286
     33 H          -2.2623    1.0882   -1.2787 H       1  UNL1        0.0286
     34 H          -3.5835    0.5350    1.3830 H       1  UNL1        0.0350
     35 H          -3.9099   -0.2725   -2.2727 H       1  UNL1        0.0620
     36 H          -6.1397   -0.3495   -3.3974 H       1  UNL1        0.0618
     37 H          -8.1695    0.1086   -2.1062 H       1  UNL1        0.0618
     38 H          -8.0189    0.6399    0.2756 H       1  UNL1        0.0618
     39 H          -5.8546    0.7186    1.3847 H       1  UNL1        0.0620
     40 H          -2.2182   -1.2782   -0.6605 H       1  UNL1        0.0286
     41 H          -3.3132   -1.8461    0.7087 H       1  UNL1        0.0286
     42 H          -0.9998   -1.8094    1.4919 H       1  UNL1        0.0464
     43 H          -2.0655   -0.5505    2.2951 H       1  UNL1        0.0464
     44 H           0.4732   -1.4660   -0.7237 H       1  UNL1        0.0651
     45 H           2.8731   -2.0090   -0.9070 H       1  UNL1        0.0814
     46 H           5.2197   -2.6326   -0.3886 H       1  UNL1        0.0347
     47 H           6.5283   -1.9481    0.5977 H       1  UNL1        0.0347
     48 H           7.2593   -1.3164   -1.5372 H       1  UNL1        0.0305
     49 H           5.6669   -0.5429   -3.3761 H       1  UNL1        0.0268
     50 H           4.2521   -0.4371   -2.2214 H       1  UNL1        0.0268
     51 H           5.4787    1.1248   -0.7120 H       1  UNL1        0.0268
     52 H           6.8582    1.0926   -1.9324 H       1  UNL1        0.0268
@<TRIPOS>BOND
     1     1     2    1
     2     2     3    1
     3     2     4    1
     4     2     5    1
     5     5     6   ar
     6     6     7    1
     7     7     8    1
     8     8     9    1
     9     9    10    1
    10    10    11    1
    11    11    12   ar
    12    12    13   ar
    13    13    14   ar
    14    14    15   ar
    15    15    16   ar
    16    10    17    1
    17    17    18    1
    18     6    19   ar
    19    19    20   ar
    20    20    21   ar
    21    21    22   ar
    22    22    23    1
    23    23    24    1
    24    24    25    1
    25    25    26    1
    26    22    27   ar
    27    27    28   ar
    28    28    29   ar
    29    29     5   ar
    30    18     7    1
    31    29    21   ar
    32    16    11   ar
    33    26    24    1
    34     8    30    1
    35     8    31    1
    36     9    32    1
    37     9    33    1
    38    10    34    1
    39    12    35    1
    40    13    36    1
    41    14    37    1
    42    15    38    1
    43    16    39    1
    44    17    40    1
    45    17    41    1
    46    18    42    1
    47    18    43    1
    48    19    44    1
    49    20    45    1
    50    23    46    1
    51    23    47    1
    52    24    48    1
    53    25    49    1
    54    25    50    1
    55    26    51    1
    56    26    52    1
