
     RDKit          3D

 30 32  0  0  0  0  0  0  0  0999 V2000
    5.9506   -0.2124   -0.6192 O   0  0  0  0  0  0  0  0  0  0  0  0
    4.5825   -0.1054   -0.4960 C   0  0  0  0  0  0  0  0  0  0  0  0
    3.8000   -1.2358   -0.3952 C   0  0  0  0  0  0  0  0  0  0  0  0
    2.4351   -1.1054   -0.2728 C   0  0  0  0  0  0  0  0  0  0  0  0
    1.7624    0.0982   -0.2416 C   0  0  0  0  0  0  0  0  0  0  0  0
    2.6189    1.1907   -0.3482 C   0  0  0  0  0  0  0  0  0  0  0  0
    3.9905    1.1398   -0.4732 C   0  0  0  0  0  0  0  0  0  0  0  0
    0.3188    0.2495   -0.1126 C   0  0  0  0  0  0  0  0  0  0  0  0
   -0.4161   -0.8452   -0.0171 C   0  0  0  0  0  0  0  0  0  0  0  0
   -1.8438   -0.6834    0.1102 C   0  0  0  0  0  0  0  0  0  0  0  0
   -2.3806    0.5751    0.1276 C   0  0  0  0  0  0  0  0  0  0  0  0
   -1.5722    1.6865    0.0249 O   0  0  0  0  0  0  0  0  0  0  0  0
   -0.1901    1.6415   -0.1011 C   0  0  0  0  0  0  0  0  0  0  0  0
   -3.7217    0.8552    0.2439 C   0  0  0  0  0  0  0  0  0  0  0  0
   -4.6104   -0.2146    0.3528 C   0  0  0  0  0  0  0  0  0  0  0  0
   -5.9985   -0.0775    0.4771 O   0  0  0  0  0  0  0  0  0  0  0  0
   -4.0803   -1.5055    0.3369 C   0  0  0  0  0  0  0  0  0  0  0  0
   -2.7121   -1.7470    0.2171 C   0  0  0  0  0  0  0  0  0  0  0  0
    6.5764    0.5552   -0.5255 H   0  0  0  0  0  0  0  0  0  0  0  0
    4.2906   -2.1924   -0.4160 H   0  0  0  0  0  0  0  0  0  0  0  0
    1.9059   -2.0213   -0.2008 H   0  0  0  0  0  0  0  0  0  0  0  0
    2.1894    2.1872   -0.3341 H   0  0  0  0  0  0  0  0  0  0  0  0
    4.5737    2.0475   -0.5500 H   0  0  0  0  0  0  0  0  0  0  0  0
   -0.0787   -1.8479   -0.0227 H   0  0  0  0  0  0  0  0  0  0  0  0
    0.1858    2.2223   -0.9736 H   0  0  0  0  0  0  0  0  0  0  0  0
    0.2388    2.1576    0.8072 H   0  0  0  0  0  0  0  0  0  0  0  0
   -4.1870    1.8126    0.2624 H   0  0  0  0  0  0  0  0  0  0  0  0
   -6.5225    0.4931   -0.2050 H   0  0  0  0  0  0  0  0  0  0  0  0
   -4.7684   -2.3521    0.4217 H   0  0  0  0  0  0  0  0  0  0  0  0
   -2.3367   -2.7659    0.2084 H   0  0  0  0  0  0  0  0  0  0  0  0
  1  2  1  0
  2  3  2  0
  3  4  1  0
  4  5  2  0
  5  6  1  0
  6  7  2  0
  5  8  1  0
  8  9  2  0
  9 10  1  0
 10 11  2  0
 11 12  1  0
 12 13  1  0
 11 14  1  0
 14 15  2  0
 15 16  1  0
 15 17  1  0
 17 18  2  0
  7  2  1  0
 13  8  1  0
 18 10  1  0
  1 19  1  0
  3 20  1  0
  4 21  1  0
  6 22  1  0
  7 23  1  0
  9 24  1  0
 13 25  1  0
 13 26  1  0
 14 27  1  0
 16 28  1  0
 17 29  1  0
 18 30  1  0
M  END
$$$$
