@<TRIPOS>MOLECULE
*****
 30 32 0 0 0
SMALL
GASTEIGER

@<TRIPOS>ATOM
      1 O           5.9506   -0.2124   -0.6192 O.3     1  UNL1       -0.5068
      2 C           4.5825   -0.1054   -0.4960 C.ar    1  UNL1        0.1169
      3 C           3.8000   -1.2358   -0.3952 C.ar    1  UNL1       -0.0196
      4 C           2.4351   -1.1054   -0.2728 C.ar    1  UNL1       -0.0508
      5 C           1.7624    0.0982   -0.2416 C.ar    1  UNL1       -0.0184
      6 C           2.6189    1.1907   -0.3482 C.ar    1  UNL1       -0.0508
      7 C           3.9905    1.1398   -0.4732 C.ar    1  UNL1       -0.0196
      8 C           0.3188    0.2495   -0.1126 C.2     1  UNL1       -0.0026
      9 C          -0.4161   -0.8452   -0.0171 C.2     1  UNL1       -0.0441
     10 C          -1.8438   -0.6834    0.1102 C.ar    1  UNL1        0.0173
     11 C          -2.3806    0.5751    0.1276 C.ar    1  UNL1        0.1316
     12 O          -1.5722    1.6865    0.0249 O.3     1  UNL1       -0.4866
     13 C          -0.1901    1.6415   -0.1011 C.3     1  UNL1        0.1152
     14 C          -3.7217    0.8552    0.2439 C.ar    1  UNL1        0.0221
     15 C          -4.6104   -0.2146    0.3528 C.ar    1  UNL1        0.1204
     16 O          -5.9985   -0.0775    0.4771 O.3     1  UNL1       -0.5066
     17 C          -4.0803   -1.5055    0.3369 C.ar    1  UNL1       -0.0194
     18 C          -2.7121   -1.7470    0.2171 C.ar    1  UNL1       -0.0476
     19 H           6.5764    0.5552   -0.5255 H       1  UNL1        0.2921
     20 H           4.2906   -2.1924   -0.4160 H       1  UNL1        0.0654
     21 H           1.9059   -2.0213   -0.2008 H       1  UNL1        0.0625
     22 H           2.1894    2.1872   -0.3341 H       1  UNL1        0.0625
     23 H           4.5737    2.0475   -0.5500 H       1  UNL1        0.0654
     24 H          -0.0787   -1.8479   -0.0227 H       1  UNL1        0.0629
     25 H           0.1858    2.2223   -0.9736 H       1  UNL1        0.0748
     26 H           0.2388    2.1576    0.8072 H       1  UNL1        0.0748
     27 H          -4.1870    1.8126    0.2624 H       1  UNL1        0.0691
     28 H          -6.5225    0.4931   -0.2050 H       1  UNL1        0.2921
     29 H          -4.7684   -2.3521    0.4217 H       1  UNL1        0.0654
     30 H          -2.3367   -2.7659    0.2084 H       1  UNL1        0.0626
@<TRIPOS>BOND
     1     1     2    1
     2     2     3   ar
     3     3     4   ar
     4     4     5   ar
     5     5     6   ar
     6     6     7   ar
     7     5     8    1
     8     8     9    2
     9     9    10    1
    10    10    11   ar
    11    11    12    1
    12    12    13    1
    13    11    14   ar
    14    14    15   ar
    15    15    16    1
    16    15    17   ar
    17    17    18   ar
    18     7     2   ar
    19    13     8    1
    20    18    10   ar
    21     1    19    1
    22     3    20    1
    23     4    21    1
    24     6    22    1
    25     7    23    1
    26     9    24    1
    27    13    25    1
    28    13    26    1
    29    14    27    1
    30    16    28    1
    31    17    29    1
    32    18    30    1
