@<TRIPOS>MOLECULE
*****
 44 47 0 0 0
SMALL
GASTEIGER

@<TRIPOS>ATOM
      1 C           4.0047    4.0125    1.1214 C.3     1  UNL1       -0.0206
      2 C           4.0094    2.5329    0.9666 C.ar    1  UNL1        0.0616
      3 C           3.0590    1.6209    1.4375 C.ar    1  UNL1        0.0006
      4 C           3.4258    0.3506    1.0738 C.ar    1  UNL1        0.1196
      5 N           2.7147   -0.8342    1.3701 N.pl3   1  UNL1       -0.2829
      6 C           1.5737   -1.2576    0.6387 C.ar    1  UNL1        0.1525
      7 N           0.3108   -0.8816    0.9536 N.ar    1  UNL1       -0.1519
      8 N          -0.7437   -1.2480    0.2885 N.ar    1  UNL1       -0.2196
      9 C          -2.0993   -0.8327    0.5962 C.3     1  UNL1        0.1080
     10 C          -2.4175    0.4661   -0.0724 C.2     1  UNL1        0.1844
     11 O          -1.5811    1.0920   -0.7512 O.2     1  UNL1       -0.2901
     12 C          -3.7619    0.9869    0.1011 C.ar    1  UNL1        0.0193
     13 C          -4.0970    2.2079   -0.4353 C.ar    1  UNL1       -0.0512
     14 C          -5.3577    2.7552   -0.3174 C.ar    1  UNL1       -0.0611
     15 C          -6.3366    2.0474    0.3721 C.ar    1  UNL1       -0.0617
     16 C          -6.0386    0.8401    0.9132 C.ar    1  UNL1       -0.0611
     17 C          -4.7530    0.3023    0.7823 C.ar    1  UNL1       -0.0512
     18 C          -0.6056   -2.0566   -0.7918 C.ar    1  UNL1        0.2755
     19 O          -1.5956   -2.4510   -1.4846 O.2     1  UNL1       -0.2655
     20 C           0.6405   -2.5086   -1.2119 C.ar    1  UNL1        0.0514
     21 C           0.7632   -3.3271   -2.3055 C.ar    1  UNL1       -0.0487
     22 C           2.0087   -3.7485   -2.6821 C.ar    1  UNL1       -0.0610
     23 C           3.1166   -3.3565   -1.9751 C.ar    1  UNL1       -0.0611
     24 C           2.9636   -2.5404   -0.8896 C.ar    1  UNL1       -0.0505
     25 C           1.7245   -2.0751   -0.4512 C.ar    1  UNL1        0.0291
     26 N           4.5723    0.4718    0.3956 N.ar    1  UNL1       -0.2637
     27 N           4.9160    1.7720    0.3342 N.ar    1  UNL1       -0.1775
     28 H           4.8565    4.3796    1.7284 H       1  UNL1        0.0293
     29 H           3.0971    4.2587    1.7187 H       1  UNL1        0.0293
     30 H           3.9957    4.5194    0.1334 H       1  UNL1        0.0293
     31 H           2.1793    1.9240    2.0025 H       1  UNL1        0.0670
     32 H           2.9946   -1.4807    2.1569 H       1  UNL1        0.1550
     33 H          -2.8364   -1.5685    0.2323 H       1  UNL1        0.0593
     34 H          -2.2547   -0.7525    1.7071 H       1  UNL1        0.0593
     35 H          -3.3205    2.7554   -0.9768 H       1  UNL1        0.0625
     36 H          -5.6010    3.7053   -0.7395 H       1  UNL1        0.0618
     37 H          -7.3160    2.4961    0.4498 H       1  UNL1        0.0618
     38 H          -6.7866    0.2767    1.4528 H       1  UNL1        0.0618
     39 H          -4.4925   -0.6598    1.1980 H       1  UNL1        0.0625
     40 H          -0.0920   -3.6417   -2.8683 H       1  UNL1        0.0625
     41 H           2.0997   -4.3943   -3.5477 H       1  UNL1        0.0618
     42 H           4.0788   -3.7007   -2.2932 H       1  UNL1        0.0618
     43 H           3.8112   -2.1966   -0.2859 H       1  UNL1        0.0625
     44 H           5.1711   -0.2609   -0.0452 H       1  UNL1        0.1903
@<TRIPOS>BOND
     1     1     2    1
     2     2     3   ar
     3     3     4   ar
     4     4     5    1
     5     5     6    1
     6     6     7   ar
     7     7     8   ar
     8     8     9    1
     9     9    10    1
    10    10    11    2
    11    10    12    1
    12    12    13   ar
    13    13    14   ar
    14    14    15   ar
    15    15    16   ar
    16    16    17   ar
    17     8    18   ar
    18    18    19    2
    19    18    20   ar
    20    20    21   ar
    21    21    22   ar
    22    22    23   ar
    23    23    24   ar
    24    24    25   ar
    25     4    26   ar
    26    26    27   ar
    27    27     2   ar
    28    25     6   ar
    29    17    12   ar
    30    25    20   ar
    31     1    28    1
    32     1    29    1
    33     1    30    1
    34     3    31    1
    35     5    32    1
    36     9    33    1
    37     9    34    1
    38    13    35    1
    39    14    36    1
    40    15    37    1
    41    16    38    1
    42    17    39    1
    43    21    40    1
    44    22    41    1
    45    23    42    1
    46    24    43    1
    47    26    44    1
