
     RDKit          3D

 44 47  0  0  0  0  0  0  0  0999 V2000
    4.0047    4.0125    1.1214 C   0  0  0  0  0  0  0  0  0  0  0  0
    4.0094    2.5329    0.9666 C   0  0  0  0  0  0  0  0  0  0  0  0
    3.0590    1.6209    1.4375 C   0  0  0  0  0  0  0  0  0  0  0  0
    3.4258    0.3506    1.0738 C   0  0  0  0  0  0  0  0  0  0  0  0
    2.7147   -0.8342    1.3701 N   0  0  0  0  0  0  0  0  0  0  0  0
    1.5737   -1.2576    0.6387 C   0  0  0  0  0  0  0  0  0  0  0  0
    0.3108   -0.8816    0.9536 N   0  0  0  0  0  0  0  0  0  0  0  0
   -0.7437   -1.2480    0.2885 N   0  0  0  0  0  0  0  0  0  0  0  0
   -2.0993   -0.8327    0.5962 C   0  0  0  0  0  0  0  0  0  0  0  0
   -2.4175    0.4661   -0.0724 C   0  0  0  0  0  0  0  0  0  0  0  0
   -1.5811    1.0920   -0.7512 O   0  0  0  0  0  0  0  0  0  0  0  0
   -3.7619    0.9869    0.1011 C   0  0  0  0  0  0  0  0  0  0  0  0
   -4.0970    2.2079   -0.4353 C   0  0  0  0  0  0  0  0  0  0  0  0
   -5.3577    2.7552   -0.3174 C   0  0  0  0  0  0  0  0  0  0  0  0
   -6.3366    2.0474    0.3721 C   0  0  0  0  0  0  0  0  0  0  0  0
   -6.0386    0.8401    0.9132 C   0  0  0  0  0  0  0  0  0  0  0  0
   -4.7530    0.3023    0.7823 C   0  0  0  0  0  0  0  0  0  0  0  0
   -0.6056   -2.0566   -0.7918 C   0  0  0  0  0  0  0  0  0  0  0  0
   -1.5956   -2.4510   -1.4846 O   0  0  0  0  0  0  0  0  0  0  0  0
    0.6405   -2.5086   -1.2119 C   0  0  0  0  0  0  0  0  0  0  0  0
    0.7632   -3.3271   -2.3055 C   0  0  0  0  0  0  0  0  0  0  0  0
    2.0087   -3.7485   -2.6821 C   0  0  0  0  0  0  0  0  0  0  0  0
    3.1166   -3.3565   -1.9751 C   0  0  0  0  0  0  0  0  0  0  0  0
    2.9636   -2.5404   -0.8896 C   0  0  0  0  0  0  0  0  0  0  0  0
    1.7245   -2.0751   -0.4512 C   0  0  0  0  0  0  0  0  0  0  0  0
    4.5723    0.4718    0.3956 N   0  0  0  0  0  0  0  0  0  0  0  0
    4.9160    1.7720    0.3342 N   0  0  0  0  0  0  0  0  0  0  0  0
    4.8565    4.3796    1.7284 H   0  0  0  0  0  0  0  0  0  0  0  0
    3.0971    4.2587    1.7187 H   0  0  0  0  0  0  0  0  0  0  0  0
    3.9957    4.5194    0.1334 H   0  0  0  0  0  0  0  0  0  0  0  0
    2.1793    1.9240    2.0025 H   0  0  0  0  0  0  0  0  0  0  0  0
    2.9946   -1.4807    2.1569 H   0  0  0  0  0  0  0  0  0  0  0  0
   -2.8364   -1.5685    0.2323 H   0  0  0  0  0  0  0  0  0  0  0  0
   -2.2547   -0.7525    1.7071 H   0  0  0  0  0  0  0  0  0  0  0  0
   -3.3205    2.7554   -0.9768 H   0  0  0  0  0  0  0  0  0  0  0  0
   -5.6010    3.7053   -0.7395 H   0  0  0  0  0  0  0  0  0  0  0  0
   -7.3160    2.4961    0.4498 H   0  0  0  0  0  0  0  0  0  0  0  0
   -6.7866    0.2767    1.4528 H   0  0  0  0  0  0  0  0  0  0  0  0
   -4.4925   -0.6598    1.1980 H   0  0  0  0  0  0  0  0  0  0  0  0
   -0.0920   -3.6417   -2.8683 H   0  0  0  0  0  0  0  0  0  0  0  0
    2.0997   -4.3943   -3.5477 H   0  0  0  0  0  0  0  0  0  0  0  0
    4.0788   -3.7007   -2.2932 H   0  0  0  0  0  0  0  0  0  0  0  0
    3.8112   -2.1966   -0.2859 H   0  0  0  0  0  0  0  0  0  0  0  0
    5.1711   -0.2609   -0.0452 H   0  0  0  0  0  0  0  0  0  0  0  0
  1  2  1  0
  2  3  1  0
  3  4  2  0
  4  5  1  0
  5  6  1  0
  6  7  2  0
  7  8  1  0
  8  9  1  0
  9 10  1  0
 10 11  2  0
 10 12  1  0
 12 13  2  0
 13 14  1  0
 14 15  2  0
 15 16  1  0
 16 17  2  0
  8 18  1  0
 18 19  2  0
 18 20  1  0
 20 21  2  0
 21 22  1  0
 22 23  2  0
 23 24  1  0
 24 25  2  0
  4 26  1  0
 26 27  1  0
 27  2  2  0
 25  6  1  0
 17 12  1  0
 25 20  1  0
  1 28  1  0
  1 29  1  0
  1 30  1  0
  3 31  1  0
  5 32  1  0
  9 33  1  0
  9 34  1  0
 13 35  1  0
 14 36  1  0
 15 37  1  0
 16 38  1  0
 17 39  1  0
 21 40  1  0
 22 41  1  0
 23 42  1  0
 24 43  1  0
 26 44  1  0
M  END
$$$$
