@<TRIPOS>MOLECULE
*****
 54 59 0 0 0
SMALL
GASTEIGER

@<TRIPOS>ATOM
      1 N          -4.2710    4.1513    0.5009 N.1     1  UNL1       -0.1908
      2 C          -3.7902    2.9710    0.1277 C.1     1  UNL1        0.1010
      3 C          -3.3323    1.8066   -0.2211 C.ar    1  UNL1        0.0733
      4 C          -1.9472    1.5166   -0.2983 C.ar    1  UNL1       -0.0347
      5 C          -1.2909    0.4375   -0.6494 C.ar    1  UNL1       -0.0137
      6 C           0.1401    0.2343   -0.4641 C.ar    1  UNL1        0.0185
      7 C           1.1267    1.1537   -0.4870 C.ar    1  UNL1        0.0391
      8 N           2.3642    0.7369   -0.0501 N.ar    1  UNL1       -0.2350
      9 C           2.7446   -0.3913    0.3739 C.ar    1  UNL1        0.1632
     10 C           3.9045   -0.8566    0.9095 C.ar    1  UNL1        0.0467
     11 C           5.2064   -0.2324    0.9595 C.ar    1  UNL1       -0.0022
     12 C           5.2983    1.1043    1.4538 C.ar    1  UNL1       -0.0351
     13 C           6.5243    1.7781    1.4832 C.ar    1  UNL1        0.0288
     14 N           7.5883    1.0271    1.0192 N.ar    1  UNL1       -0.2549
     15 C           7.6011   -0.2006    0.5461 C.ar    1  UNL1        0.0715
     16 C           8.7992   -0.7931    0.1259 C.ar    1  UNL1       -0.0357
     17 C           8.6883   -2.1067   -0.3606 C.ar    1  UNL1       -0.0597
     18 C           7.4710   -2.5978   -0.3526 C.ar    1  UNL1       -0.0611
     19 C           6.2675   -2.1608    0.0157 C.ar    1  UNL1       -0.0520
     20 C           6.3630   -0.7444    0.5464 C.ar    1  UNL1        0.0082
     21 C           3.5859   -2.1286    1.2866 C.ar    1  UNL1        0.0597
     22 N           2.3566   -2.4779    1.0235 N.ar    1  UNL1       -0.1727
     23 N           1.7733   -1.3232    0.4045 N.ar    1  UNL1       -0.2206
     24 C           0.5506   -1.1426    0.0437 C.ar    1  UNL1        0.0406
     25 C          -2.0562   -0.6587   -1.0617 C.ar    1  UNL1       -0.0521
     26 C          -3.4466   -0.4964   -1.0395 C.ar    1  UNL1       -0.0388
     27 C          -4.0791    0.6609   -0.6377 C.ar    1  UNL1        0.0474
     28 N          -5.4916    0.7351   -0.4888 N.pl3   1  UNL1       -0.3265
     29 C          -6.3590    1.6748   -1.1927 C.3     1  UNL1        0.0248
     30 C          -7.6956    1.6490   -0.4251 C.3     1  UNL1        0.0117
     31 N          -8.2624    0.3098   -0.6829 N.3     1  UNL1       -0.3130
     32 C          -7.4757   -0.6711    0.0152 C.3     1  UNL1        0.0117
     33 C          -6.1344   -0.1968    0.4562 C.3     1  UNL1        0.0248
     34 H          -1.3403    2.4219   -0.0050 H       1  UNL1        0.0637
     35 H           0.9684    2.1302   -0.8252 H       1  UNL1        0.0837
     36 H           4.3979    1.6378    1.7753 H       1  UNL1        0.0639
     37 H           6.6443    2.7815    1.8299 H       1  UNL1        0.0830
     38 H           9.7270   -0.2913    0.1935 H       1  UNL1        0.0639
     39 H           9.5690   -2.6381   -0.6879 H       1  UNL1        0.0618
     40 H           7.4045   -3.6850   -0.7855 H       1  UNL1        0.0618
     41 H           5.3049   -2.5091   -0.0268 H       1  UNL1        0.0624
     42 H           4.3230   -2.8197    1.8331 H       1  UNL1        0.0855
     43 H          -0.2823   -1.7847    0.0454 H       1  UNL1        0.0837
     44 H          -1.5893   -1.5509   -1.3901 H       1  UNL1        0.0624
     45 H          -4.1172   -1.3144   -1.3327 H       1  UNL1        0.0637
     46 H          -6.0114    2.6968   -1.1972 H       1  UNL1        0.0476
     47 H          -6.5836    1.2887   -2.2246 H       1  UNL1        0.0476
     48 H          -7.4411    1.6563    0.6476 H       1  UNL1        0.0439
     49 H          -8.4149    2.3787   -0.7530 H       1  UNL1        0.0439
     50 H          -8.2583    0.1539   -1.6833 H       1  UNL1        0.1220
     51 H          -8.0342   -0.8982    1.0276 H       1  UNL1        0.0439
     52 H          -7.3720   -1.6371   -0.5091 H       1  UNL1        0.0439
     53 H          -6.1581    0.3173    1.4476 H       1  UNL1        0.0476
     54 H          -5.4580   -1.1024    0.4820 H       1  UNL1        0.0476
@<TRIPOS>BOND
     1     1     2    3
     2     2     3    1
     3     3     4   ar
     4     4     5   ar
     5     5     6    1
     6     6     7   ar
     7     7     8   ar
     8     8     9   ar
     9     9    10   ar
    10    10    11    1
    11    11    12   ar
    12    12    13   ar
    13    13    14   ar
    14    14    15   ar
    15    15    16   ar
    16    16    17   ar
    17    17    18   ar
    18    18    19   ar
    19    19    20   ar
    20    10    21   ar
    21    21    22   ar
    22    22    23   ar
    23    23    24   ar
    24     5    25   ar
    25    25    26   ar
    26    26    27   ar
    27    27    28    1
    28    28    29    1
    29    29    30    1
    30    30    31    1
    31    31    32    1
    32    32    33    1
    33    27     3   ar
    34    33    28    1
    35    24     6   ar
    36    23     9   ar
    37    20    11   ar
    38    20    15   ar
    39     4    34    1
    40     7    35    1
    41    12    36    1
    42    13    37    1
    43    16    38    1
    44    17    39    1
    45    18    40    1
    46    19    41    1
    47    21    42    1
    48    24    43    1
    49    25    44    1
    50    26    45    1
    51    29    46    1
    52    29    47    1
    53    30    48    1
    54    30    49    1
    55    31    50    1
    56    32    51    1
    57    32    52    1
    58    33    53    1
    59    33    54    1
