
     RDKit          3D

 54 59  0  0  0  0  0  0  0  0999 V2000
   -4.2710    4.1513    0.5009 N   0  0  0  0  0  0  0  0  0  0  0  0
   -3.7902    2.9710    0.1277 C   0  0  0  0  0  0  0  0  0  0  0  0
   -3.3323    1.8066   -0.2211 C   0  0  0  0  0  0  0  0  0  0  0  0
   -1.9472    1.5166   -0.2983 C   0  0  0  0  0  0  0  0  0  0  0  0
   -1.2909    0.4375   -0.6494 C   0  0  0  0  0  0  0  0  0  0  0  0
    0.1401    0.2343   -0.4641 C   0  0  0  0  0  0  0  0  0  0  0  0
    1.1267    1.1537   -0.4870 C   0  0  0  0  0  0  0  0  0  0  0  0
    2.3642    0.7369   -0.0501 N   0  0  0  0  0  0  0  0  0  0  0  0
    2.7446   -0.3913    0.3739 C   0  0  0  0  0  0  0  0  0  0  0  0
    3.9045   -0.8566    0.9095 C   0  0  0  0  0  0  0  0  0  0  0  0
    5.2064   -0.2324    0.9595 C   0  0  0  0  0  0  0  0  0  0  0  0
    5.2983    1.1043    1.4538 C   0  0  0  0  0  0  0  0  0  0  0  0
    6.5243    1.7781    1.4832 C   0  0  0  0  0  0  0  0  0  0  0  0
    7.5883    1.0271    1.0192 N   0  0  0  0  0  0  0  0  0  0  0  0
    7.6011   -0.2006    0.5461 C   0  0  0  0  0  0  0  0  0  0  0  0
    8.7992   -0.7931    0.1259 C   0  0  0  0  0  0  0  0  0  0  0  0
    8.6883   -2.1067   -0.3606 C   0  0  0  0  0  0  0  0  0  0  0  0
    7.4710   -2.5978   -0.3526 C   0  0  0  0  0  0  0  0  0  0  0  0
    6.2675   -2.1608    0.0157 C   0  0  0  0  0  0  0  0  0  0  0  0
    6.3630   -0.7444    0.5464 C   0  0  0  0  0  0  0  0  0  0  0  0
    3.5859   -2.1286    1.2866 C   0  0  0  0  0  0  0  0  0  0  0  0
    2.3566   -2.4779    1.0235 N   0  0  0  0  0  0  0  0  0  0  0  0
    1.7733   -1.3232    0.4045 N   0  0  0  0  0  0  0  0  0  0  0  0
    0.5506   -1.1426    0.0437 C   0  0  0  0  0  0  0  0  0  0  0  0
   -2.0562   -0.6587   -1.0617 C   0  0  0  0  0  0  0  0  0  0  0  0
   -3.4466   -0.4964   -1.0395 C   0  0  0  0  0  0  0  0  0  0  0  0
   -4.0791    0.6609   -0.6377 C   0  0  0  0  0  0  0  0  0  0  0  0
   -5.4916    0.7351   -0.4888 N   0  0  0  0  0  0  0  0  0  0  0  0
   -6.3590    1.6748   -1.1927 C   0  0  0  0  0  0  0  0  0  0  0  0
   -7.6956    1.6490   -0.4251 C   0  0  0  0  0  0  0  0  0  0  0  0
   -8.2624    0.3098   -0.6829 N   0  0  0  0  0  0  0  0  0  0  0  0
   -7.4757   -0.6711    0.0152 C   0  0  0  0  0  0  0  0  0  0  0  0
   -6.1344   -0.1968    0.4562 C   0  0  0  0  0  0  0  0  0  0  0  0
   -1.3403    2.4219   -0.0050 H   0  0  0  0  0  0  0  0  0  0  0  0
    0.9684    2.1302   -0.8252 H   0  0  0  0  0  0  0  0  0  0  0  0
    4.3979    1.6378    1.7753 H   0  0  0  0  0  0  0  0  0  0  0  0
    6.6443    2.7815    1.8299 H   0  0  0  0  0  0  0  0  0  0  0  0
    9.7270   -0.2913    0.1935 H   0  0  0  0  0  0  0  0  0  0  0  0
    9.5690   -2.6381   -0.6879 H   0  0  0  0  0  0  0  0  0  0  0  0
    7.4045   -3.6850   -0.7855 H   0  0  0  0  0  0  0  0  0  0  0  0
    5.3049   -2.5091   -0.0268 H   0  0  0  0  0  0  0  0  0  0  0  0
    4.3230   -2.8197    1.8331 H   0  0  0  0  0  0  0  0  0  0  0  0
   -0.2823   -1.7847    0.0454 H   0  0  0  0  0  0  0  0  0  0  0  0
   -1.5893   -1.5509   -1.3901 H   0  0  0  0  0  0  0  0  0  0  0  0
   -4.1172   -1.3144   -1.3327 H   0  0  0  0  0  0  0  0  0  0  0  0
   -6.0114    2.6968   -1.1972 H   0  0  0  0  0  0  0  0  0  0  0  0
   -6.5836    1.2887   -2.2246 H   0  0  0  0  0  0  0  0  0  0  0  0
   -7.4411    1.6563    0.6476 H   0  0  0  0  0  0  0  0  0  0  0  0
   -8.4149    2.3787   -0.7530 H   0  0  0  0  0  0  0  0  0  0  0  0
   -8.2583    0.1539   -1.6833 H   0  0  0  0  0  0  0  0  0  0  0  0
   -8.0342   -0.8982    1.0276 H   0  0  0  0  0  0  0  0  0  0  0  0
   -7.3720   -1.6371   -0.5091 H   0  0  0  0  0  0  0  0  0  0  0  0
   -6.1581    0.3173    1.4476 H   0  0  0  0  0  0  0  0  0  0  0  0
   -5.4580   -1.1024    0.4820 H   0  0  0  0  0  0  0  0  0  0  0  0
  1  2  3  0
  2  3  1  0
  3  4  2  0
  4  5  1  0
  5  6  1  0
  6  7  1  0
  7  8  2  0
  8  9  1  0
  9 10  2  0
 10 11  1  0
 11 12  2  0
 12 13  1  0
 13 14  2  0
 14 15  1  0
 15 16  2  0
 16 17  1  0
 17 18  2  0
 18 19  1  0
 19 20  2  0
 10 21  1  0
 21 22  2  0
 22 23  1  0
 23 24  1  0
  5 25  2  0
 25 26  1  0
 26 27  2  0
 27 28  1  0
 28 29  1  0
 29 30  1  0
 30 31  1  0
 31 32  1  0
 32 33  1  0
 27  3  1  0
 33 28  1  0
 24  6  2  0
 23  9  1  0
 20 11  1  0
 20 15  1  0
  4 34  1  0
  7 35  1  0
 12 36  1  0
 13 37  1  0
 16 38  1  0
 17 39  1  0
 18 40  1  0
 19 41  1  0
 21 42  1  0
 24 43  1  0
 25 44  1  0
 26 45  1  0
 29 46  1  0
 29 47  1  0
 30 48  1  0
 30 49  1  0
 31 50  1  0
 32 51  1  0
 32 52  1  0
 33 53  1  0
 33 54  1  0
M  END
$$$$
