@<TRIPOS>MOLECULE
*****
 42 45 0 0 0
SMALL
GASTEIGER

@<TRIPOS>ATOM
      1 C           4.1799   -3.2200   -0.0842 C.3     1  UNL1        0.0790
      2 O           3.4956   -2.0064   -0.0240 O.3     1  UNL1       -0.4914
      3 C           2.1223   -1.9231    0.0767 C.ar    1  UNL1        0.1618
      4 C           1.2947   -3.0410    0.1274 C.ar    1  UNL1       -0.0160
      5 C          -0.0885   -2.9136    0.2296 C.ar    1  UNL1       -0.0534
      6 C          -0.6748   -1.6565    0.2829 C.ar    1  UNL1       -0.0255
      7 C           0.1896   -0.5814    0.2278 C.ar    1  UNL1        0.0158
      8 C           1.5502   -0.6556    0.1292 C.ar    1  UNL1        0.1667
      9 O           2.1243    0.6403    0.1028 O.3     1  UNL1       -0.4836
     10 C           1.1075    1.4631    0.7519 C.3     1  UNL1        0.1161
     11 C           1.4001    2.8599    0.3100 C.3     1  UNL1        0.0151
     12 C           0.2442    3.5402   -0.3880 C.3     1  UNL1        0.0768
     13 O           0.7897    4.7040   -0.9811 O.3     1  UNL1       -0.3876
     14 C          -0.2448    2.6227   -1.4270 C.2     1  UNL1       -0.0588
     15 C          -0.4449    1.3579   -1.1391 C.2     1  UNL1       -0.0715
     16 C          -0.1698    0.8808    0.2430 C.3     1  UNL1        0.0558
     17 C          -1.3668    0.9947    1.1108 C.3     1  UNL1       -0.0235
     18 C          -2.5839    0.7045    0.2694 C.3     1  UNL1        0.0001
     19 N          -2.8819   -0.6120   -0.0439 N.3     1  UNL1       -0.3011
     20 C          -3.2556   -0.7707   -1.4264 C.3     1  UNL1       -0.0124
     21 C          -2.1523   -1.7050    0.4154 C.3     1  UNL1        0.0242
     22 H           4.1374   -3.6109   -1.1138 H       1  UNL1        0.0660
     23 H           5.2395   -3.0444    0.2216 H       1  UNL1        0.0660
     24 H           3.7123   -3.9415    0.6410 H       1  UNL1        0.0660
     25 H           1.7510   -4.0206    0.0855 H       1  UNL1        0.0655
     26 H          -0.7041   -3.7935    0.2674 H       1  UNL1        0.0622
     27 H           1.2272    1.3376    1.8464 H       1  UNL1        0.0746
     28 H           1.7021    3.4481    1.2232 H       1  UNL1        0.0329
     29 H           2.2700    2.9495   -0.3742 H       1  UNL1        0.0329
     30 H          -0.5056    3.8943    0.3200 H       1  UNL1        0.0639
     31 H           1.5809    4.4957   -1.5128 H       1  UNL1        0.2102
     32 H          -0.4438    2.9709   -2.4282 H       1  UNL1        0.0595
     33 H          -0.7990    0.6528   -1.8739 H       1  UNL1        0.0580
     34 H          -1.3124    0.3359    1.9994 H       1  UNL1        0.0290
     35 H          -1.4440    2.0315    1.4969 H       1  UNL1        0.0290
     36 H          -2.5300    1.3621   -0.6541 H       1  UNL1        0.0427
     37 H          -3.4870    1.1404    0.8031 H       1  UNL1        0.0427
     38 H          -2.4023   -1.1244   -2.0538 H       1  UNL1        0.0391
     39 H          -4.1222   -1.4665   -1.5520 H       1  UNL1        0.0391
     40 H          -3.6187    0.2168   -1.8239 H       1  UNL1        0.0391
     41 H          -2.4825   -2.6677   -0.0417 H       1  UNL1        0.0476
     42 H          -2.4037   -1.8486    1.5149 H       1  UNL1        0.0476
@<TRIPOS>BOND
     1     1     2    1
     2     2     3    1
     3     3     4   ar
     4     4     5   ar
     5     5     6   ar
     6     6     7   ar
     7     7     8   ar
     8     8     9    1
     9     9    10    1
    10    10    11    1
    11    11    12    1
    12    12    13    1
    13    12    14    1
    14    14    15    2
    15    15    16    1
    16    16    17    1
    17    17    18    1
    18    18    19    1
    19    19    20    1
    20    19    21    1
    21     8     3   ar
    22    16    10    1
    23    21     6    1
    24    16     7    1
    25     1    22    1
    26     1    23    1
    27     1    24    1
    28     4    25    1
    29     5    26    1
    30    10    27    1
    31    11    28    1
    32    11    29    1
    33    12    30    1
    34    13    31    1
    35    14    32    1
    36    15    33    1
    37    17    34    1
    38    17    35    1
    39    18    36    1
    40    18    37    1
    41    20    38    1
    42    20    39    1
    43    20    40    1
    44    21    41    1
    45    21    42    1
