
     RDKit          3D

 42 45  0  0  0  0  0  0  0  0999 V2000
    4.1799   -3.2200   -0.0842 C   0  0  0  0  0  0  0  0  0  0  0  0
    3.4956   -2.0064   -0.0240 O   0  0  0  0  0  0  0  0  0  0  0  0
    2.1223   -1.9231    0.0767 C   0  0  0  0  0  0  0  0  0  0  0  0
    1.2947   -3.0410    0.1274 C   0  0  0  0  0  0  0  0  0  0  0  0
   -0.0885   -2.9136    0.2296 C   0  0  0  0  0  0  0  0  0  0  0  0
   -0.6748   -1.6565    0.2829 C   0  0  0  0  0  0  0  0  0  0  0  0
    0.1896   -0.5814    0.2278 C   0  0  0  0  0  0  0  0  0  0  0  0
    1.5502   -0.6556    0.1292 C   0  0  0  0  0  0  0  0  0  0  0  0
    2.1243    0.6403    0.1028 O   0  0  0  0  0  0  0  0  0  0  0  0
    1.1075    1.4631    0.7519 C   0  0  1  0  0  0  0  0  0  0  0  0
    1.4001    2.8599    0.3100 C   0  0  0  0  0  0  0  0  0  0  0  0
    0.2442    3.5402   -0.3880 C   0  0  1  0  0  0  0  0  0  0  0  0
    0.7897    4.7040   -0.9811 O   0  0  0  0  0  0  0  0  0  0  0  0
   -0.2448    2.6227   -1.4270 C   0  0  0  0  0  0  0  0  0  0  0  0
   -0.4449    1.3579   -1.1391 C   0  0  0  0  0  0  0  0  0  0  0  0
   -0.1698    0.8808    0.2430 C   0  0  1  0  0  0  0  0  0  0  0  0
   -1.3668    0.9947    1.1108 C   0  0  0  0  0  0  0  0  0  0  0  0
   -2.5839    0.7045    0.2694 C   0  0  0  0  0  0  0  0  0  0  0  0
   -2.8819   -0.6120   -0.0439 N   0  0  0  0  0  0  0  0  0  0  0  0
   -3.2556   -0.7707   -1.4264 C   0  0  0  0  0  0  0  0  0  0  0  0
   -2.1523   -1.7050    0.4154 C   0  0  0  0  0  0  0  0  0  0  0  0
    4.1374   -3.6109   -1.1138 H   0  0  0  0  0  0  0  0  0  0  0  0
    5.2395   -3.0444    0.2216 H   0  0  0  0  0  0  0  0  0  0  0  0
    3.7123   -3.9415    0.6410 H   0  0  0  0  0  0  0  0  0  0  0  0
    1.7510   -4.0206    0.0855 H   0  0  0  0  0  0  0  0  0  0  0  0
   -0.7041   -3.7935    0.2674 H   0  0  0  0  0  0  0  0  0  0  0  0
    1.2272    1.3376    1.8464 H   0  0  0  0  0  0  0  0  0  0  0  0
    1.7021    3.4481    1.2232 H   0  0  0  0  0  0  0  0  0  0  0  0
    2.2700    2.9495   -0.3742 H   0  0  0  0  0  0  0  0  0  0  0  0
   -0.5056    3.8943    0.3200 H   0  0  0  0  0  0  0  0  0  0  0  0
    1.5809    4.4957   -1.5128 H   0  0  0  0  0  0  0  0  0  0  0  0
   -0.4438    2.9709   -2.4282 H   0  0  0  0  0  0  0  0  0  0  0  0
   -0.7990    0.6528   -1.8739 H   0  0  0  0  0  0  0  0  0  0  0  0
   -1.3124    0.3359    1.9994 H   0  0  0  0  0  0  0  0  0  0  0  0
   -1.4440    2.0315    1.4969 H   0  0  0  0  0  0  0  0  0  0  0  0
   -2.5300    1.3621   -0.6541 H   0  0  0  0  0  0  0  0  0  0  0  0
   -3.4870    1.1404    0.8031 H   0  0  0  0  0  0  0  0  0  0  0  0
   -2.4023   -1.1244   -2.0538 H   0  0  0  0  0  0  0  0  0  0  0  0
   -4.1222   -1.4665   -1.5520 H   0  0  0  0  0  0  0  0  0  0  0  0
   -3.6187    0.2168   -1.8239 H   0  0  0  0  0  0  0  0  0  0  0  0
   -2.4825   -2.6677   -0.0417 H   0  0  0  0  0  0  0  0  0  0  0  0
   -2.4037   -1.8486    1.5149 H   0  0  0  0  0  0  0  0  0  0  0  0
  1  2  1  0
  2  3  1  0
  3  4  2  0
  4  5  1  0
  5  6  2  0
  6  7  1  0
  7  8  2  0
  8  9  1  0
  9 10  1  0
 10 11  1  0
 11 12  1  0
 12 13  1  0
 12 14  1  0
 14 15  2  0
 15 16  1  0
 16 17  1  1
 17 18  1  0
 18 19  1  0
 19 20  1  0
 19 21  1  0
  8  3  1  0
 16 10  1  0
 21  6  1  0
 16  7  1  0
  1 22  1  0
  1 23  1  0
  1 24  1  0
  4 25  1  0
  5 26  1  0
 10 27  1  1
 11 28  1  0
 11 29  1  0
 12 30  1  1
 13 31  1  0
 14 32  1  0
 15 33  1  0
 17 34  1  0
 17 35  1  0
 18 36  1  0
 18 37  1  0
 20 38  1  0
 20 39  1  0
 20 40  1  0
 21 41  1  0
 21 42  1  0
M  END
$$$$
