@<TRIPOS>MOLECULE
*****
 48 51 0 0 0
SMALL
GASTEIGER

@<TRIPOS>ATOM
      1 C          -3.4143   -2.5493   -0.0885 C.3     1  UNL1       -0.0457
      2 C          -3.3270   -1.4922   -1.1563 C.3     1  UNL1        0.0323
      3 C          -4.7368   -0.9715   -1.3877 C.3     1  UNL1       -0.0071
      4 C          -4.9576   -0.1068   -0.2052 C.ar    1  UNL1       -0.0242
      5 C          -6.0880    0.3462    0.4408 C.ar    1  UNL1       -0.0567
      6 C          -6.0468    1.1591    1.5459 C.ar    1  UNL1       -0.0614
      7 C          -4.8008    1.5371    2.0277 C.ar    1  UNL1       -0.0600
      8 C          -3.6690    1.0849    1.3827 C.ar    1  UNL1       -0.0400
      9 C          -3.7154    0.2625    0.2649 C.ar    1  UNL1        0.0398
     10 N          -2.6993   -0.3230   -0.5586 N.am    1  UNL1       -0.2677
     11 C          -1.3828    0.1624   -0.7266 C.2     1  UNL1        0.2273
     12 O          -1.0374    1.1988   -0.1120 O.2     1  UNL1       -0.2748
     13 C          -0.4066   -0.5061   -1.5966 C.3     1  UNL1        0.0826
     14 C           0.8925    0.2089   -1.5924 C.ar    1  UNL1        0.1206
     15 N           1.8599   -0.0961   -0.7057 N.ar    1  UNL1       -0.2186
     16 C           3.0393    0.5671   -0.7170 C.ar    1  UNL1        0.1285
     17 N           4.0822    0.2842    0.1895 N.pl3   1  UNL1       -0.3106
     18 C           3.9740   -0.7509    1.2158 C.3     1  UNL1        0.0370
     19 C           5.2755   -1.5312    1.1494 C.3     1  UNL1        0.0634
     20 O           6.3751   -0.7674    1.4333 O.3     1  UNL1       -0.3767
     21 C           6.2166    0.5853    1.3095 C.3     1  UNL1        0.0634
     22 C           5.3358    1.0093    0.1571 C.3     1  UNL1        0.0370
     23 C           3.2373    1.5619   -1.6511 C.ar    1  UNL1        0.0427
     24 C           2.2546    1.8831   -2.5637 C.ar    1  UNL1        0.2533
     25 O           2.4261    2.8019   -3.4329 O.2     1  UNL1       -0.2677
     26 N           1.1110    1.1874   -2.4973 N.ar    1  UNL1       -0.3104
     27 H          -3.6091   -3.5174   -0.5982 H       1  UNL1        0.0248
     28 H          -2.4943   -2.5945    0.5356 H       1  UNL1        0.0248
     29 H          -4.2497   -2.2965    0.5974 H       1  UNL1        0.0248
     30 H          -2.8349   -1.8158   -2.0718 H       1  UNL1        0.0505
     31 H          -4.8070   -0.4121   -2.3444 H       1  UNL1        0.0332
     32 H          -5.4519   -1.8153   -1.3500 H       1  UNL1        0.0332
     33 H          -7.0801    0.0610    0.0787 H       1  UNL1        0.0621
     34 H          -6.9261    1.5234    2.0646 H       1  UNL1        0.0618
     35 H          -4.7569    2.1793    2.9003 H       1  UNL1        0.0618
     36 H          -2.6845    1.3794    1.7578 H       1  UNL1        0.0636
     37 H          -0.2699   -1.5725   -1.3635 H       1  UNL1        0.0438
     38 H          -0.8216   -0.4402   -2.6450 H       1  UNL1        0.0438
     39 H           3.1274   -1.4191    1.0686 H       1  UNL1        0.0487
     40 H           3.9729   -0.2441    2.2202 H       1  UNL1        0.0487
     41 H           5.2522   -2.4046    1.8521 H       1  UNL1        0.0575
     42 H           5.3689   -1.8883    0.0836 H       1  UNL1        0.0575
     43 H           5.8028    1.0378    2.2518 H       1  UNL1        0.0575
     44 H           7.1951    1.0958    1.1572 H       1  UNL1        0.0575
     45 H           5.0987    2.0890    0.3099 H       1  UNL1        0.0487
     46 H           5.8384    0.8057   -0.7952 H       1  UNL1        0.0487
     47 H           4.1901    2.1073   -1.6705 H       1  UNL1        0.0706
     48 H           0.3413    1.3958   -3.1665 H       1  UNL1        0.1700
@<TRIPOS>BOND
     1     1     2    1
     2     2     3    1
     3     3     4    1
     4     4     5   ar
     5     5     6   ar
     6     6     7   ar
     7     7     8   ar
     8     8     9   ar
     9     9    10    1
    10    10    11   am
    11    11    12    2
    12    11    13    1
    13    13    14    1
    14    14    15   ar
    15    15    16   ar
    16    16    17    1
    17    17    18    1
    18    18    19    1
    19    19    20    1
    20    20    21    1
    21    21    22    1
    22    16    23   ar
    23    23    24   ar
    24    24    25    2
    25    24    26   ar
    26    10     2    1
    27    26    14   ar
    28     9     4   ar
    29    22    17    1
    30     1    27    1
    31     1    28    1
    32     1    29    1
    33     2    30    1
    34     3    31    1
    35     3    32    1
    36     5    33    1
    37     6    34    1
    38     7    35    1
    39     8    36    1
    40    13    37    1
    41    13    38    1
    42    18    39    1
    43    18    40    1
    44    19    41    1
    45    19    42    1
    46    21    43    1
    47    21    44    1
    48    22    45    1
    49    22    46    1
    50    23    47    1
    51    26    48    1
