
     RDKit          3D

 48 51  0  0  0  0  0  0  0  0999 V2000
   -3.4143   -2.5493   -0.0885 C   0  0  0  0  0  0  0  0  0  0  0  0
   -3.3270   -1.4922   -1.1563 C   0  0  1  0  0  0  0  0  0  0  0  0
   -4.7368   -0.9715   -1.3877 C   0  0  0  0  0  0  0  0  0  0  0  0
   -4.9576   -0.1068   -0.2052 C   0  0  0  0  0  0  0  0  0  0  0  0
   -6.0880    0.3462    0.4408 C   0  0  0  0  0  0  0  0  0  0  0  0
   -6.0468    1.1591    1.5459 C   0  0  0  0  0  0  0  0  0  0  0  0
   -4.8008    1.5371    2.0277 C   0  0  0  0  0  0  0  0  0  0  0  0
   -3.6690    1.0849    1.3827 C   0  0  0  0  0  0  0  0  0  0  0  0
   -3.7154    0.2625    0.2649 C   0  0  0  0  0  0  0  0  0  0  0  0
   -2.6993   -0.3230   -0.5586 N   0  0  0  0  0  0  0  0  0  0  0  0
   -1.3828    0.1624   -0.7266 C   0  0  0  0  0  0  0  0  0  0  0  0
   -1.0374    1.1988   -0.1120 O   0  0  0  0  0  0  0  0  0  0  0  0
   -0.4066   -0.5061   -1.5966 C   0  0  0  0  0  0  0  0  0  0  0  0
    0.8925    0.2089   -1.5924 C   0  0  0  0  0  0  0  0  0  0  0  0
    1.8599   -0.0961   -0.7057 N   0  0  0  0  0  0  0  0  0  0  0  0
    3.0393    0.5671   -0.7170 C   0  0  0  0  0  0  0  0  0  0  0  0
    4.0822    0.2842    0.1895 N   0  0  0  0  0  0  0  0  0  0  0  0
    3.9740   -0.7509    1.2158 C   0  0  0  0  0  0  0  0  0  0  0  0
    5.2755   -1.5312    1.1494 C   0  0  0  0  0  0  0  0  0  0  0  0
    6.3751   -0.7674    1.4333 O   0  0  0  0  0  0  0  0  0  0  0  0
    6.2166    0.5853    1.3095 C   0  0  0  0  0  0  0  0  0  0  0  0
    5.3358    1.0093    0.1571 C   0  0  0  0  0  0  0  0  0  0  0  0
    3.2373    1.5619   -1.6511 C   0  0  0  0  0  0  0  0  0  0  0  0
    2.2546    1.8831   -2.5637 C   0  0  0  0  0  0  0  0  0  0  0  0
    2.4261    2.8019   -3.4329 O   0  0  0  0  0  0  0  0  0  0  0  0
    1.1110    1.1874   -2.4973 N   0  0  0  0  0  0  0  0  0  0  0  0
   -3.6091   -3.5174   -0.5982 H   0  0  0  0  0  0  0  0  0  0  0  0
   -2.4943   -2.5945    0.5356 H   0  0  0  0  0  0  0  0  0  0  0  0
   -4.2497   -2.2965    0.5974 H   0  0  0  0  0  0  0  0  0  0  0  0
   -2.8349   -1.8158   -2.0718 H   0  0  0  0  0  0  0  0  0  0  0  0
   -4.8070   -0.4121   -2.3444 H   0  0  0  0  0  0  0  0  0  0  0  0
   -5.4519   -1.8153   -1.3500 H   0  0  0  0  0  0  0  0  0  0  0  0
   -7.0801    0.0610    0.0787 H   0  0  0  0  0  0  0  0  0  0  0  0
   -6.9261    1.5234    2.0646 H   0  0  0  0  0  0  0  0  0  0  0  0
   -4.7569    2.1793    2.9003 H   0  0  0  0  0  0  0  0  0  0  0  0
   -2.6845    1.3794    1.7578 H   0  0  0  0  0  0  0  0  0  0  0  0
   -0.2699   -1.5725   -1.3635 H   0  0  0  0  0  0  0  0  0  0  0  0
   -0.8216   -0.4402   -2.6450 H   0  0  0  0  0  0  0  0  0  0  0  0
    3.1274   -1.4191    1.0686 H   0  0  0  0  0  0  0  0  0  0  0  0
    3.9729   -0.2441    2.2202 H   0  0  0  0  0  0  0  0  0  0  0  0
    5.2522   -2.4046    1.8521 H   0  0  0  0  0  0  0  0  0  0  0  0
    5.3689   -1.8883    0.0836 H   0  0  0  0  0  0  0  0  0  0  0  0
    5.8028    1.0378    2.2518 H   0  0  0  0  0  0  0  0  0  0  0  0
    7.1951    1.0958    1.1572 H   0  0  0  0  0  0  0  0  0  0  0  0
    5.0987    2.0890    0.3099 H   0  0  0  0  0  0  0  0  0  0  0  0
    5.8384    0.8057   -0.7952 H   0  0  0  0  0  0  0  0  0  0  0  0
    4.1901    2.1073   -1.6705 H   0  0  0  0  0  0  0  0  0  0  0  0
    0.3413    1.3958   -3.1665 H   0  0  0  0  0  0  0  0  0  0  0  0
  1  2  1  0
  2  3  1  0
  3  4  1  0
  4  5  2  0
  5  6  1  0
  6  7  2  0
  7  8  1  0
  8  9  2  0
  9 10  1  0
 10 11  1  0
 11 12  2  0
 11 13  1  0
 13 14  1  0
 14 15  2  0
 15 16  1  0
 16 17  1  0
 17 18  1  0
 18 19  1  0
 19 20  1  0
 20 21  1  0
 21 22  1  0
 16 23  2  0
 23 24  1  0
 24 25  2  0
 24 26  1  0
 10  2  1  0
 26 14  1  0
  9  4  1  0
 22 17  1  0
  1 27  1  0
  1 28  1  0
  1 29  1  0
  2 30  1  6
  3 31  1  0
  3 32  1  0
  5 33  1  0
  6 34  1  0
  7 35  1  0
  8 36  1  0
 13 37  1  0
 13 38  1  0
 18 39  1  0
 18 40  1  0
 19 41  1  0
 19 42  1  0
 21 43  1  0
 21 44  1  0
 22 45  1  0
 22 46  1  0
 23 47  1  0
 26 48  1  0
M  END
$$$$
