@<TRIPOS>MOLECULE
*****
 61 63 0 0 0
SMALL
GASTEIGER

@<TRIPOS>ATOM
      1 C           5.6859    2.2293    2.3738 C.3     1  UNL1       -0.0638
      2 C           5.1084    0.9517    1.7258 C.3     1  UNL1       -0.0350
      3 C           5.2365    1.1849    0.2468 C.3     1  UNL1        0.0817
      4 S           4.7047   -0.1148   -0.7904 S.O2    1  UNL1        0.0318
      5 O           5.5693   -1.3577   -0.5460 O.2     1  UNL1       -0.1580
      6 O           5.0524    0.2637   -2.2356 O.2     1  UNL1       -0.1580
      7 N           3.0878   -0.5811   -0.6789 N.3     1  UNL1       -0.1811
      8 C           2.6613   -1.0861    0.5717 C.3     1  UNL1        0.0211
      9 C           1.5787   -0.2615    1.2189 C.3     1  UNL1       -0.0231
     10 C           0.2857   -0.3349    0.3439 C.3     1  UNL1        0.0650
     11 C          -0.4901    0.8670    0.8333 C.3     1  UNL1        0.0259
     12 N          -1.7508    1.0915    0.2007 N.am    1  UNL1       -0.3103
     13 C          -2.5706    2.2044    0.6015 C.2     1  UNL1        0.2456
     14 O          -2.1550    2.9554    1.5027 O.2     1  UNL1       -0.2702
     15 C          -3.8587    2.4716   -0.0132 C.ar    1  UNL1        0.0578
     16 C          -4.9763    2.4532    0.7763 C.ar    1  UNL1       -0.0115
     17 C          -6.2165    2.7008    0.2379 C.ar    1  UNL1        0.1424
     18 F          -7.3407    2.6864    1.0105 F       1  UNL1       -0.2039
     19 C          -6.3763    2.9754   -1.1123 C.ar    1  UNL1        0.0775
     20 CL         -7.9629    3.2878   -1.7773 Cl      1  UNL1       -0.0805
     21 C          -5.2262    2.9860   -1.8813 C.ar    1  UNL1       -0.0215
     22 C          -3.9712    2.7404   -1.3624 C.ar    1  UNL1        0.0546
     23 CL         -2.5553    2.7694   -2.3940 Cl      1  UNL1       -0.0827
     24 C          -0.4527   -1.5564    0.6967 C.2     1  UNL1        0.2235
     25 O          -0.1766   -1.9972    1.8850 O.2     1  UNL1       -0.2749
     26 N          -1.3722   -2.3023   -0.0138 N.am    1  UNL1       -0.2966
     27 C          -1.8652   -2.1312   -1.3584 C.3     1  UNL1        0.0382
     28 C          -1.6575   -3.4581   -2.0655 C.3     1  UNL1        0.0635
     29 O          -0.9008   -4.3471   -1.3026 O.3     1  UNL1       -0.3767
     30 C          -1.5636   -4.6837   -0.1160 C.3     1  UNL1        0.0635
     31 C          -1.9909   -3.4765    0.6578 C.3     1  UNL1        0.0382
     32 C           0.7551   -0.2225   -1.0541 C.3     1  UNL1       -0.0231
     33 C           2.1545    0.3904   -1.1844 C.3     1  UNL1        0.0211
     34 H           5.2610    3.0703    1.7655 H       1  UNL1        0.0230
     35 H           6.7790    2.2644    2.2647 H       1  UNL1        0.0230
     36 H           5.3321    2.3522    3.3962 H       1  UNL1        0.0230
     37 H           5.6803    0.0596    1.9905 H       1  UNL1        0.0279
     38 H           4.0523    0.9268    2.0874 H       1  UNL1        0.0279
     39 H           6.3404    1.3302    0.0313 H       1  UNL1        0.0515
     40 H           4.7271    2.1527   -0.0209 H       1  UNL1        0.0515
     41 H           3.5089   -1.1656    1.2675 H       1  UNL1        0.0444
     42 H           2.2925   -2.1402    0.4245 H       1  UNL1        0.0444
     43 H           1.8768    0.7984    1.1651 H       1  UNL1        0.0289
     44 H           1.4072   -0.6267    2.2231 H       1  UNL1        0.0289
     45 H           0.1002    1.8078    0.7165 H       1  UNL1        0.0472
     46 H          -0.7150    0.6903    1.9258 H       1  UNL1        0.0472
     47 H          -2.1543    0.5123   -0.5573 H       1  UNL1        0.1490
     48 H          -4.8633    2.2370    1.8471 H       1  UNL1        0.0655
     49 H          -5.3682    3.2032   -2.9403 H       1  UNL1        0.0648
     50 H          -2.9866   -2.0144   -1.2897 H       1  UNL1        0.0487
     51 H          -1.4888   -1.2866   -1.9146 H       1  UNL1        0.0487
     52 H          -1.0298   -3.2266   -2.9670 H       1  UNL1        0.0575
     53 H          -2.5927   -3.8996   -2.4473 H       1  UNL1        0.0575
     54 H          -2.4362   -5.3136   -0.4355 H       1  UNL1        0.0575
     55 H          -0.8901   -5.2939    0.4890 H       1  UNL1        0.0575
     56 H          -3.0808   -3.3361    0.5155 H       1  UNL1        0.0487
     57 H          -1.7052   -3.5096    1.7222 H       1  UNL1        0.0487
     58 H           0.8458   -1.1983   -1.5820 H       1  UNL1        0.0289
     59 H           0.0977    0.4531   -1.6310 H       1  UNL1        0.0289
     60 H           2.2285    1.3865   -0.7509 H       1  UNL1        0.0444
     61 H           2.3313    0.4682   -2.2923 H       1  UNL1        0.0444
@<TRIPOS>BOND
     1     1     2    1
     2     2     3    1
     3     3     4    1
     4     4     5    2
     5     4     6    2
     6     4     7    1
     7     7     8    1
     8     8     9    1
     9     9    10    1
    10    10    11    1
    11    11    12    1
    12    12    13   am
    13    13    14    2
    14    13    15    1
    15    15    16   ar
    16    16    17   ar
    17    17    18    1
    18    17    19   ar
    19    19    20    1
    20    19    21   ar
    21    21    22   ar
    22    22    23    1
    23    10    24    1
    24    24    25    2
    25    24    26   am
    26    26    27    1
    27    27    28    1
    28    28    29    1
    29    29    30    1
    30    30    31    1
    31    10    32    1
    32    32    33    1
    33    33     7    1
    34    22    15   ar
    35    31    26    1
    36     1    34    1
    37     1    35    1
    38     1    36    1
    39     2    37    1
    40     2    38    1
    41     3    39    1
    42     3    40    1
    43     8    41    1
    44     8    42    1
    45     9    43    1
    46     9    44    1
    47    11    45    1
    48    11    46    1
    49    12    47    1
    50    16    48    1
    51    21    49    1
    52    27    50    1
    53    27    51    1
    54    28    52    1
    55    28    53    1
    56    30    54    1
    57    30    55    1
    58    31    56    1
    59    31    57    1
    60    32    58    1
    61    32    59    1
    62    33    60    1
    63    33    61    1
