
     RDKit          3D

 37 40  0  0  0  0  0  0  0  0999 V2000
    4.8438   -2.4363    0.4003 C   0  0  0  0  0  0  0  0  0  0  0  0
    3.7079   -1.6431   -0.1367 C   0  0  0  0  0  0  0  0  0  0  0  0
    3.1405   -1.6122   -1.3569 N   0  0  0  0  0  0  0  0  0  0  0  0
    2.1761   -0.7482   -1.3363 O   0  0  0  0  0  0  0  0  0  0  0  0
    2.0424   -0.1748   -0.1636 C   0  0  0  0  0  0  0  0  0  0  0  0
    3.0172   -0.7280    0.6399 C   0  0  0  0  0  0  0  0  0  0  0  0
    0.9569    0.7987   -0.1481 C   0  0  0  0  0  0  0  0  0  0  0  0
   -0.3927    0.5221   -0.2208 C   0  0  0  0  0  0  0  0  0  0  0  0
   -0.8606   -0.8521   -0.3086 C   0  0  0  0  0  0  0  0  0  0  0  0
   -0.7906   -1.8416   -1.2770 C   0  0  0  0  0  0  0  0  0  0  0  0
   -1.3232   -3.0824   -1.0836 C   0  0  0  0  0  0  0  0  0  0  0  0
   -1.9669   -3.4003    0.1167 C   0  0  0  0  0  0  0  0  0  0  0  0
   -2.0553   -2.4304    1.1062 C   0  0  0  0  0  0  0  0  0  0  0  0
   -1.5060   -1.1718    0.8901 C   0  0  0  0  0  0  0  0  0  0  0  0
   -1.2538    1.6100   -0.2081 C   0  0  0  0  0  0  0  0  0  0  0  0
   -0.8564    2.9308   -0.1290 C   0  0  0  0  0  0  0  0  0  0  0  0
    0.4650    3.1445   -0.0597 N   0  0  0  0  0  0  0  0  0  0  0  0
    1.3572    2.1373   -0.0670 C   0  0  0  0  0  0  0  0  0  0  0  0
    2.5643    2.4945    0.0052 O   0  0  0  0  0  0  0  0  0  0  0  0
   -1.7404    3.9819   -0.1199 C   0  0  0  0  0  0  0  0  0  0  0  0
   -3.1111    3.7370   -0.1917 C   0  0  0  0  0  0  0  0  0  0  0  0
   -3.5367    2.4226   -0.2706 C   0  0  0  0  0  0  0  0  0  0  0  0
   -5.2802    2.1269   -0.3564 Cl  0  0  0  0  0  0  0  0  0  0  0  0
   -2.6334    1.3764   -0.2787 C   0  0  0  0  0  0  0  0  0  0  0  0
    4.6211   -2.9673    1.3307 H   0  0  0  0  0  0  0  0  0  0  0  0
    5.7468   -1.8113    0.5495 H   0  0  0  0  0  0  0  0  0  0  0  0
    5.1313   -3.1773   -0.3764 H   0  0  0  0  0  0  0  0  0  0  0  0
    3.0583   -0.3690    1.6549 H   0  0  0  0  0  0  0  0  0  0  0  0
   -0.2850   -1.4764   -2.1437 H   0  0  0  0  0  0  0  0  0  0  0  0
   -1.2022   -3.7621   -1.9106 H   0  0  0  0  0  0  0  0  0  0  0  0
   -2.3624   -4.4048    0.2000 H   0  0  0  0  0  0  0  0  0  0  0  0
   -2.5732   -2.7622    2.0042 H   0  0  0  0  0  0  0  0  0  0  0  0
   -1.6809   -0.5625    1.7804 H   0  0  0  0  0  0  0  0  0  0  0  0
    0.7656    4.1542    0.0019 H   0  0  0  0  0  0  0  0  0  0  0  0
   -1.3723    5.0035   -0.0565 H   0  0  0  0  0  0  0  0  0  0  0  0
   -3.7656    4.5958   -0.1799 H   0  0  0  0  0  0  0  0  0  0  0  0
   -3.0454    0.3778   -0.3405 H   0  0  0  0  0  0  0  0  0  0  0  0
  1  2  1  0
  2  3  2  0
  3  4  1  0
  4  5  1  0
  5  6  2  0
  5  7  1  0
  7  8  2  0
  8  9  1  0
  9 10  2  0
 10 11  1  0
 11 12  2  0
 12 13  1  0
 13 14  2  0
  8 15  1  0
 15 16  2  0
 16 17  1  0
 17 18  1  0
 18 19  2  0
 16 20  1  0
 20 21  2  0
 21 22  1  0
 22 23  1  0
 22 24  2  0
  6  2  1  0
 18  7  1  0
 14  9  1  0
 24 15  1  0
  1 25  1  0
  1 26  1  0
  1 27  1  0
  6 28  1  0
 10 29  1  0
 11 30  1  0
 12 31  1  0
 13 32  1  0
 14 33  1  0
 17 34  1  0
 20 35  1  0
 21 36  1  0
 24 37  1  0
M  END
$$$$
