@<TRIPOS>MOLECULE
*****
 37 40 0 0 0
SMALL
GASTEIGER

@<TRIPOS>ATOM
      1 C           4.8438   -2.4363    0.4003 C.3     1  UNL1       -0.0191
      2 C           3.7079   -1.6431   -0.1367 C.ar    1  UNL1        0.0812
      3 N           3.1405   -1.6122   -1.3569 N.ar    1  UNL1       -0.0829
      4 O           2.1761   -0.7482   -1.3363 O.2     1  UNL1       -0.3542
      5 C           2.0424   -0.1748   -0.1636 C.ar    1  UNL1        0.1733
      6 C           3.0172   -0.7280    0.6399 C.ar    1  UNL1        0.0082
      7 C           0.9569    0.7987   -0.1481 C.ar    1  UNL1        0.0924
      8 C          -0.3927    0.5221   -0.2208 C.ar    1  UNL1        0.0072
      9 C          -0.8606   -0.8521   -0.3086 C.ar    1  UNL1       -0.0164
     10 C          -0.7906   -1.8416   -1.2770 C.ar    1  UNL1       -0.0540
     11 C          -1.3232   -3.0824   -1.0836 C.ar    1  UNL1       -0.0612
     12 C          -1.9669   -3.4003    0.1167 C.ar    1  UNL1       -0.0617
     13 C          -2.0553   -2.4304    1.1062 C.ar    1  UNL1       -0.0612
     14 C          -1.5060   -1.1718    0.8901 C.ar    1  UNL1       -0.0540
     15 C          -1.2538    1.6100   -0.2081 C.ar    1  UNL1        0.0083
     16 C          -0.8564    2.9308   -0.1290 C.ar    1  UNL1        0.0499
     17 N           0.4650    3.1445   -0.0597 N.ar    1  UNL1       -0.3215
     18 C           1.3572    2.1373   -0.0670 C.ar    1  UNL1        0.2606
     19 O           2.5643    2.4945    0.0052 O.2     1  UNL1       -0.2671
     20 C          -1.7404    3.9819   -0.1199 C.ar    1  UNL1       -0.0363
     21 C          -3.1111    3.7370   -0.1917 C.ar    1  UNL1       -0.0414
     22 C          -3.5367    2.4226   -0.2706 C.ar    1  UNL1        0.0417
     23 CL         -5.2802    2.1269   -0.3564 Cl      1  UNL1       -0.0835
     24 C          -2.6334    1.3764   -0.2787 C.ar    1  UNL1       -0.0337
     25 H           4.6211   -2.9673    1.3307 H       1  UNL1        0.0294
     26 H           5.7468   -1.8113    0.5495 H       1  UNL1        0.0294
     27 H           5.1313   -3.1773   -0.3764 H       1  UNL1        0.0294
     28 H           3.0583   -0.3690    1.6549 H       1  UNL1        0.0674
     29 H          -0.2850   -1.4764   -2.1437 H       1  UNL1        0.0624
     30 H          -1.2022   -3.7621   -1.9106 H       1  UNL1        0.0618
     31 H          -2.3624   -4.4048    0.2000 H       1  UNL1        0.0618
     32 H          -2.5732   -2.7622    2.0042 H       1  UNL1        0.0618
     33 H          -1.6809   -0.5625    1.7804 H       1  UNL1        0.0624
     34 H           0.7656    4.1542    0.0019 H       1  UNL1        0.1689
     35 H          -1.3723    5.0035   -0.0565 H       1  UNL1        0.0639
     36 H          -3.7656    4.5958   -0.1799 H       1  UNL1        0.0633
     37 H          -3.0454    0.3778   -0.3405 H       1  UNL1        0.0639
@<TRIPOS>BOND
     1     1     2    1
     2     2     3   ar
     3     3     4   ar
     4     4     5   ar
     5     5     6   ar
     6     5     7    1
     7     7     8   ar
     8     8     9    1
     9     9    10   ar
    10    10    11   ar
    11    11    12   ar
    12    12    13   ar
    13    13    14   ar
    14     8    15   ar
    15    15    16   ar
    16    16    17   ar
    17    17    18   ar
    18    18    19    2
    19    16    20   ar
    20    20    21   ar
    21    21    22   ar
    22    22    23    1
    23    22    24   ar
    24     6     2   ar
    25    18     7   ar
    26    14     9   ar
    27    24    15   ar
    28     1    25    1
    29     1    26    1
    30     1    27    1
    31     6    28    1
    32    10    29    1
    33    11    30    1
    34    12    31    1
    35    13    32    1
    36    14    33    1
    37    17    34    1
    38    20    35    1
    39    21    36    1
    40    24    37    1
