@<TRIPOS>MOLECULE
*****
 29 30 0 0 0
SMALL
GASTEIGER

@<TRIPOS>ATOM
      1 O           6.1770    0.2747   -0.0238 O.3     1  UNL1       -0.5068
      2 C           4.7869    0.1145    0.0013 C.ar    1  UNL1        0.1169
      3 C           3.9326    1.1165   -0.4101 C.ar    1  UNL1       -0.0196
      4 C           2.5402    0.9613   -0.3871 C.ar    1  UNL1       -0.0511
      5 C           1.9821   -0.1968    0.0472 C.ar    1  UNL1       -0.0248
      6 C           0.5383   -0.4261    0.0976 C.2     1  UNL1       -0.0540
      7 C          -0.3596    0.4387   -0.2617 C.2     1  UNL1       -0.0538
      8 C          -1.8010    0.2093   -0.2112 C.ar    1  UNL1       -0.0181
      9 C          -2.3715   -0.9616    0.2276 C.ar    1  UNL1       -0.0128
     10 C          -3.7418   -1.1859    0.2780 C.ar    1  UNL1        0.1209
     11 O          -4.2925   -2.3751    0.7245 O.3     1  UNL1       -0.5066
     12 C          -4.5759   -0.1774   -0.1353 C.ar    1  UNL1        0.0213
     13 C          -4.0577    1.0275   -0.5888 C.ar    1  UNL1        0.1209
     14 O          -4.9497    2.0041   -0.9912 O.3     1  UNL1       -0.5066
     15 C          -2.6973    1.1982   -0.6186 C.ar    1  UNL1       -0.0128
     16 C           2.8447   -1.1947    0.4572 C.ar    1  UNL1       -0.0511
     17 C           4.2174   -1.0617    0.4422 C.ar    1  UNL1       -0.0196
     18 H           6.6229    0.7719    0.7391 H       1  UNL1        0.2921
     19 H           4.3508    2.0475   -0.7600 H       1  UNL1        0.0654
     20 H           1.9365    1.7910   -0.7249 H       1  UNL1        0.0625
     21 H           0.1897   -1.3924    0.4631 H       1  UNL1        0.0624
     22 H          -0.0390    1.4034   -0.6273 H       1  UNL1        0.0624
     23 H          -1.7628   -1.7785    0.5607 H       1  UNL1        0.0660
     24 H          -3.7134   -3.1852    0.9386 H       1  UNL1        0.2921
     25 H          -5.6521   -0.3046   -0.1147 H       1  UNL1        0.0691
     26 H          -5.1599    2.7385   -0.3342 H       1  UNL1        0.2921
     27 H          -2.2861    2.1438   -0.9744 H       1  UNL1        0.0660
     28 H           2.4476   -2.1490    0.8167 H       1  UNL1        0.0625
     29 H           4.8938   -1.8521    0.7668 H       1  UNL1        0.0654
@<TRIPOS>BOND
     1     1     2    1
     2     2     3   ar
     3     3     4   ar
     4     4     5   ar
     5     5     6    1
     6     6     7    2
     7     7     8    1
     8     8     9   ar
     9     9    10   ar
    10    10    11    1
    11    10    12   ar
    12    12    13   ar
    13    13    14    1
    14    13    15   ar
    15     5    16   ar
    16    16    17   ar
    17    17     2   ar
    18    15     8   ar
    19     1    18    1
    20     3    19    1
    21     4    20    1
    22     6    21    1
    23     7    22    1
    24     9    23    1
    25    11    24    1
    26    12    25    1
    27    14    26    1
    28    15    27    1
    29    16    28    1
    30    17    29    1
