@<TRIPOS>MOLECULE
*****
 77 82 0 0 0
SMALL
GASTEIGER

@<TRIPOS>ATOM
      1 C         -10.0317    0.9364    1.1698 C.3     1  UNL1        0.0032
      2 N          -8.6211    1.0778    0.8726 N.am    1  UNL1       -0.3024
      3 C          -8.2219    2.2168    0.0577 C.3     1  UNL1        0.0032
      4 C          -7.6786    0.1359    1.3603 C.2     1  UNL1        0.2627
      5 O          -8.0801   -0.8171    2.0500 O.2     1  UNL1       -0.2684
      6 C          -6.2508    0.2472    1.0791 C.ar    1  UNL1        0.1070
      7 C          -5.4838    1.2830    1.6266 C.ar    1  UNL1       -0.0209
      8 C          -4.2038    1.1053    1.1604 C.ar    1  UNL1        0.0378
      9 C          -2.9769    1.7499    1.2934 C.ar    1  UNL1        0.0419
     10 N          -1.8846    1.2882    0.6614 N.ar    1  UNL1       -0.2219
     11 C          -1.8844    0.2111   -0.1188 C.ar    1  UNL1        0.2224
     12 N          -0.7683   -0.2873   -0.8187 N.pl3   1  UNL1       -0.2685
     13 C           0.5017    0.2945   -0.8898 C.ar    1  UNL1        0.1250
     14 C           0.8364    1.4592   -0.2478 C.ar    1  UNL1       -0.0208
     15 C           2.1243    1.9942   -0.3935 C.ar    1  UNL1       -0.0449
     16 C           3.0304    1.3362   -1.1819 C.ar    1  UNL1        0.0551
     17 C           4.3509    1.8800   -1.3656 C.2     1  UNL1        0.2481
     18 O           4.5256    2.9516   -2.0370 O.2     1  UNL1       -0.2699
     19 N           5.5117    1.2599   -0.8137 N.am    1  UNL1       -0.2969
     20 C           6.8006    1.8919   -1.0439 C.3     1  UNL1        0.0192
     21 C           7.9667    1.1676   -0.4811 C.3     1  UNL1       -0.0093
     22 C           8.0803    1.3461    1.0141 C.3     1  UNL1       -0.0470
     23 C           7.1058    0.3669    1.5706 C.3     1  UNL1       -0.0470
     24 C           6.6504   -0.5128    0.4249 C.3     1  UNL1       -0.0093
     25 C           5.3340    0.0429   -0.0629 C.3     1  UNL1        0.0192
     26 C           7.7593   -0.3448   -0.5894 C.3     1  UNL1        0.0183
     27 N           8.9321   -1.0126   -0.0875 N.3     1  UNL1       -0.3048
     28 C           8.7565   -2.4446   -0.1810 C.3     1  UNL1       -0.0128
     29 C          10.1200   -0.6782   -0.8529 C.3     1  UNL1       -0.0128
     30 C           2.6614    0.1745   -1.8072 C.ar    1  UNL1        0.0418
     31 N           1.4357   -0.3488   -1.6774 N.ar    1  UNL1       -0.2394
     32 N          -3.0988   -0.4111   -0.2380 N.ar    1  UNL1       -0.1962
     33 C          -4.2200    0.0003    0.3653 C.ar    1  UNL1        0.1466
     34 N          -5.4825   -0.5246    0.3187 N.ar    1  UNL1       -0.3180
     35 C          -5.8727   -1.6892   -0.4223 C.3     1  UNL1        0.0366
     36 C          -6.1811   -2.8694    0.4666 C.3     1  UNL1       -0.0320
     37 C          -7.5423   -3.3737    0.0924 C.3     1  UNL1       -0.0511
     38 C          -8.1603   -2.3702   -0.8386 C.3     1  UNL1       -0.0511
     39 C          -7.0573   -1.4653   -1.3092 C.3     1  UNL1       -0.0320
     40 H         -10.2006    0.5729    2.2045 H       1  UNL1        0.0428
     41 H         -10.4610    0.2272    0.4255 H       1  UNL1        0.0428
     42 H         -10.5483    1.9001    0.9976 H       1  UNL1        0.0428
     43 H          -7.1680    2.0126   -0.2672 H       1  UNL1        0.0428
     44 H          -8.2171    3.1359    0.6893 H       1  UNL1        0.0428
     45 H          -8.8413    2.2928   -0.8470 H       1  UNL1        0.0428
     46 H          -5.7949    2.0792    2.2859 H       1  UNL1        0.0647
     47 H          -2.9747    2.6292    1.9314 H       1  UNL1        0.0838
     48 H          -0.9151   -1.2074   -1.3452 H       1  UNL1        0.1564
     49 H           0.1522    2.0098    0.3817 H       1  UNL1        0.0652
     50 H           2.3439    2.9122    0.1252 H       1  UNL1        0.0627
     51 H           6.9284    2.0259   -2.1382 H       1  UNL1        0.0468
     52 H           6.8168    2.9417   -0.6341 H       1  UNL1        0.0468
     53 H           8.8977    1.4721   -1.0071 H       1  UNL1        0.0331
     54 H           9.1371    1.0826    1.2902 H       1  UNL1        0.0269
     55 H           7.8478    2.3982    1.2869 H       1  UNL1        0.0269
     56 H           7.6246   -0.2779    2.3353 H       1  UNL1        0.0269
     57 H           6.2751    0.9144    2.0555 H       1  UNL1        0.0269
     58 H           6.5342   -1.5681    0.7401 H       1  UNL1        0.0331
     59 H           4.6760    0.2581    0.8283 H       1  UNL1        0.0468
     60 H           4.8799   -0.7870   -0.6726 H       1  UNL1        0.0468
     61 H           7.4790   -0.6457   -1.6061 H       1  UNL1        0.0469
     62 H           8.0084   -2.6861   -0.9794 H       1  UNL1        0.0391
     63 H           9.7031   -2.9350   -0.5192 H       1  UNL1        0.0391
     64 H           8.4149   -2.9074    0.7575 H       1  UNL1        0.0391
     65 H          10.7649   -1.5629   -0.9981 H       1  UNL1        0.0391
     66 H           9.8630   -0.2676   -1.8539 H       1  UNL1        0.0391
     67 H          10.6361    0.1410   -0.3135 H       1  UNL1        0.0391
     68 H           3.3764   -0.3590   -2.4488 H       1  UNL1        0.0838
     69 H          -5.0232   -2.0151   -1.0934 H       1  UNL1        0.0528
     70 H          -6.0590   -2.6003    1.5191 H       1  UNL1        0.0285
     71 H          -5.4634   -3.7260    0.2954 H       1  UNL1        0.0285
     72 H          -8.1493   -3.4220    1.0283 H       1  UNL1        0.0266
     73 H          -7.5039   -4.3861   -0.3855 H       1  UNL1        0.0266
     74 H          -8.9913   -1.8364   -0.3400 H       1  UNL1        0.0266
     75 H          -8.6365   -2.9359   -1.6869 H       1  UNL1        0.0266
     76 H          -6.8477   -1.7339   -2.3819 H       1  UNL1        0.0285
     77 H          -7.3465   -0.4137   -1.3124 H       1  UNL1        0.0285
@<TRIPOS>BOND
     1     1     2    1
     2     2     3    1
     3     2     4   am
     4     4     5    2
     5     4     6    1
     6     6     7   ar
     7     7     8   ar
     8     8     9   ar
     9     9    10   ar
    10    10    11   ar
    11    11    12    1
    12    12    13    1
    13    13    14   ar
    14    14    15   ar
    15    15    16   ar
    16    16    17    1
    17    17    18    2
    18    17    19   am
    19    19    20    1
    20    20    21    1
    21    21    22    1
    22    22    23    1
    23    23    24    1
    24    24    25    1
    25    24    26    1
    26    26    27    1
    27    27    28    1
    28    27    29    1
    29    16    30   ar
    30    30    31   ar
    31    11    32   ar
    32    32    33   ar
    33    33    34   ar
    34    34    35    1
    35    35    36    1
    36    36    37    1
    37    37    38    1
    38    38    39    1
    39    34     6   ar
    40    39    35    1
    41    33     8   ar
    42    31    13   ar
    43    25    19    1
    44    26    21    1
    45     1    40    1
    46     1    41    1
    47     1    42    1
    48     3    43    1
    49     3    44    1
    50     3    45    1
    51     7    46    1
    52     9    47    1
    53    12    48    1
    54    14    49    1
    55    15    50    1
    56    20    51    1
    57    20    52    1
    58    21    53    1
    59    22    54    1
    60    22    55    1
    61    23    56    1
    62    23    57    1
    63    24    58    1
    64    25    59    1
    65    25    60    1
    66    26    61    1
    67    28    62    1
    68    28    63    1
    69    28    64    1
    70    29    65    1
    71    29    66    1
    72    29    67    1
    73    30    68    1
    74    35    69    1
    75    36    70    1
    76    36    71    1
    77    37    72    1
    78    37    73    1
    79    38    74    1
    80    38    75    1
    81    39    76    1
    82    39    77    1
