
     RDKit          3D

 71 77  0  0  0  0  0  0  0  0999 V2000
    5.5188   -3.9378    0.4626 C   0  0  0  0  0  0  0  0  0  0  0  0
    5.1375   -2.7165   -0.1421 O   0  0  0  0  0  0  0  0  0  0  0  0
    5.9451   -1.5852   -0.0026 C   0  0  0  0  0  0  0  0  0  0  0  0
    7.1201   -1.6258    0.7186 C   0  0  0  0  0  0  0  0  0  0  0  0
    7.9176   -0.5058    0.8548 C   0  0  0  0  0  0  0  0  0  0  0  0
    7.5650    0.7096    0.2678 C   0  0  0  0  0  0  0  0  0  0  0  0
    6.3947    0.7494   -0.4493 C   0  0  0  0  0  0  0  0  0  0  0  0
    5.6098   -0.3777   -0.5761 C   0  0  0  0  0  0  0  0  0  0  0  0
    6.2214    2.1096   -0.9631 C   0  0  1  0  0  0  0  0  0  0  0  0
    5.5769    2.3488   -2.2755 C   0  0  0  0  0  0  0  0  0  0  0  0
    4.9676    2.8510   -1.0097 C   0  0  1  0  0  0  0  0  0  0  0  0
    3.6703    2.3081   -0.5429 C   0  0  0  0  0  0  0  0  0  0  0  0
    2.5142    2.5149   -1.2961 C   0  0  0  0  0  0  0  0  0  0  0  0
    1.2789    2.0422   -0.8950 C   0  0  0  0  0  0  0  0  0  0  0  0
    1.1555    1.3390    0.2858 C   0  0  0  0  0  0  0  0  0  0  0  0
    0.0556    0.7722    0.8985 C   0  0  0  0  0  0  0  0  0  0  0  0
   -1.3318    0.7606    0.4462 C   0  0  0  0  0  0  0  0  0  0  0  0
   -2.2511    0.1745    1.1612 C   0  0  0  0  0  0  0  0  0  0  0  0
   -3.6574    0.0890    0.8320 C   0  0  0  0  0  0  0  0  0  0  0  0
   -4.1247    0.6582   -0.3280 C   0  0  0  0  0  0  0  0  0  0  0  0
   -5.4872    0.5715   -0.6415 C   0  0  0  0  0  0  0  0  0  0  0  0
   -6.3774   -0.0779    0.1954 C   0  0  0  0  0  0  0  0  0  0  0  0
   -7.8157   -0.1511   -0.1671 C   0  0  0  0  0  0  0  0  0  0  0  0
   -8.1511   -1.2971   -0.9547 N   0  0  0  0  0  0  0  0  0  0  0  0
   -7.8735   -2.5520   -0.3289 C   0  0  0  0  0  0  0  0  0  0  0  0
   -8.8815   -2.9830    0.6928 C   0  0  0  0  0  0  0  0  0  0  0  0
  -10.1367   -3.0068    0.0853 O   0  0  0  0  0  0  0  0  0  0  0  0
  -10.4780   -1.7504   -0.3589 C   0  0  0  0  0  0  0  0  0  0  0  0
   -9.5180   -1.2087   -1.3754 C   0  0  0  0  0  0  0  0  0  0  0  0
   -5.9156   -0.6591    1.3746 C   0  0  0  0  0  0  0  0  0  0  0  0
   -4.5727   -0.5519    1.6452 C   0  0  0  0  0  0  0  0  0  0  0  0
    0.5410    0.2117    2.0396 N   0  0  0  0  0  0  0  0  0  0  0  0
    1.8408    0.4211    2.1173 N   0  0  0  0  0  0  0  0  0  0  0  0
    2.2807    1.1170    1.0554 C   0  0  0  0  0  0  0  0  0  0  0  0
    3.5157    1.6035    0.6304 C   0  0  0  0  0  0  0  0  0  0  0  0
    7.4057    2.8510   -0.5268 C   0  0  0  0  0  0  0  0  0  0  0  0
    7.6676    4.0503   -0.7866 O   0  0  0  0  0  0  0  0  0  0  0  0
    8.2069    1.9786    0.2413 N   0  0  0  0  0  0  0  0  0  0  0  0
    9.4752    2.2644    0.9137 C   0  0  0  0  0  0  0  0  0  0  0  0
    4.9169   -4.7853    0.1219 H   0  0  0  0  0  0  0  0  0  0  0  0
    6.5819   -4.1923    0.2962 H   0  0  0  0  0  0  0  0  0  0  0  0
    5.3430   -3.8507    1.5736 H   0  0  0  0  0  0  0  0  0  0  0  0
    7.4121   -2.5578    1.1819 H   0  0  0  0  0  0  0  0  0  0  0  0
    8.8429   -0.5385    1.4228 H   0  0  0  0  0  0  0  0  0  0  0  0
    4.6694   -0.3768   -1.1441 H   0  0  0  0  0  0  0  0  0  0  0  0
    5.9832    3.0374   -3.0133 H   0  0  0  0  0  0  0  0  0  0  0  0
    5.0851    1.4446   -2.7211 H   0  0  0  0  0  0  0  0  0  0  0  0
    5.0149    3.9848   -0.9599 H   0  0  0  0  0  0  0  0  0  0  0  0
    2.6047    3.0579   -2.2094 H   0  0  0  0  0  0  0  0  0  0  0  0
    0.3768    2.1968   -1.4708 H   0  0  0  0  0  0  0  0  0  0  0  0
   -1.5901    1.2344   -0.4734 H   0  0  0  0  0  0  0  0  0  0  0  0
   -1.9213   -0.2984    2.1025 H   0  0  0  0  0  0  0  0  0  0  0  0
   -3.5125    1.1830   -1.0406 H   0  0  0  0  0  0  0  0  0  0  0  0
   -5.8754    1.0142   -1.5519 H   0  0  0  0  0  0  0  0  0  0  0  0
   -8.1332    0.7663   -0.6874 H   0  0  0  0  0  0  0  0  0  0  0  0
   -8.3722   -0.1944    0.8111 H   0  0  0  0  0  0  0  0  0  0  0  0
   -6.8484   -2.5303    0.0719 H   0  0  0  0  0  0  0  0  0  0  0  0
   -7.8629   -3.3412   -1.1222 H   0  0  0  0  0  0  0  0  0  0  0  0
   -8.6293   -4.0390    0.9679 H   0  0  0  0  0  0  0  0  0  0  0  0
   -8.8648   -2.3974    1.6240 H   0  0  0  0  0  0  0  0  0  0  0  0
  -10.6019   -1.0630    0.5050 H   0  0  0  0  0  0  0  0  0  0  0  0
  -11.4808   -1.8166   -0.8347 H   0  0  0  0  0  0  0  0  0  0  0  0
   -9.7414   -0.1383   -1.5626 H   0  0  0  0  0  0  0  0  0  0  0  0
   -9.7137   -1.7334   -2.3338 H   0  0  0  0  0  0  0  0  0  0  0  0
   -6.6140   -1.1665    2.0285 H   0  0  0  0  0  0  0  0  0  0  0  0
   -4.2035   -0.9977    2.5544 H   0  0  0  0  0  0  0  0  0  0  0  0
    2.4615    0.0993    2.8888 H   0  0  0  0  0  0  0  0  0  0  0  0
    4.3695    1.4168    1.2644 H   0  0  0  0  0  0  0  0  0  0  0  0
    9.2693    2.2355    2.0040 H   0  0  0  0  0  0  0  0  0  0  0  0
    9.7669    3.3086    0.6715 H   0  0  0  0  0  0  0  0  0  0  0  0
   10.2569    1.5285    0.6094 H   0  0  0  0  0  0  0  0  0  0  0  0
  1  2  1  0
  2  3  1  0
  3  4  2  0
  4  5  1  0
  5  6  2  0
  6  7  1  0
  7  8  2  0
  7  9  1  0
  9 10  1  6
 10 11  1  0
 11 12  1  0
 12 13  2  0
 13 14  1  0
 14 15  2  0
 15 16  1  0
 16 17  1  0
 17 18  2  0
 18 19  1  0
 19 20  2  0
 20 21  1  0
 21 22  2  0
 22 23  1  0
 23 24  1  0
 24 25  1  0
 25 26  1  0
 26 27  1  0
 27 28  1  0
 28 29  1  0
 22 30  1  0
 30 31  2  0
 16 32  2  0
 32 33  1  0
 33 34  1  0
 34 35  2  0
  9 36  1  0
 36 37  2  0
 36 38  1  0
 38 39  1  0
  8  3  1  0
 11  9  1  0
 35 12  1  0
 38  6  1  0
 34 15  1  0
 31 19  1  0
 29 24  1  0
  1 40  1  0
  1 41  1  0
  1 42  1  0
  4 43  1  0
  5 44  1  0
  8 45  1  0
 10 46  1  0
 10 47  1  0
 11 48  1  6
 13 49  1  0
 14 50  1  0
 17 51  1  0
 18 52  1  0
 20 53  1  0
 21 54  1  0
 23 55  1  0
 23 56  1  0
 25 57  1  0
 25 58  1  0
 26 59  1  0
 26 60  1  0
 28 61  1  0
 28 62  1  0
 29 63  1  0
 29 64  1  0
 30 65  1  0
 31 66  1  0
 33 67  1  0
 35 68  1  0
 39 69  1  0
 39 70  1  0
 39 71  1  0
M  END
$$$$
