@<TRIPOS>MOLECULE
*****
 71 77 0 0 0
SMALL
GASTEIGER

@<TRIPOS>ATOM
      1 C           5.5188   -3.9378    0.4626 C.3     1  UNL1        0.0788
      2 O           5.1375   -2.7165   -0.1421 O.3     1  UNL1       -0.4951
      3 C           5.9451   -1.5852   -0.0026 C.ar    1  UNL1        0.1205
      4 C           7.1201   -1.6258    0.7186 C.ar    1  UNL1       -0.0182
      5 C           7.9176   -0.5058    0.8548 C.ar    1  UNL1       -0.0365
      6 C           7.5650    0.7096    0.2678 C.ar    1  UNL1        0.0404
      7 C           6.3947    0.7494   -0.4493 C.ar    1  UNL1       -0.0070
      8 C           5.6098   -0.3777   -0.5761 C.ar    1  UNL1       -0.0140
      9 C           6.2214    2.1096   -0.9631 C.3     1  UNL1        0.0815
     10 C           5.5769    2.3488   -2.2755 C.3     1  UNL1       -0.0262
     11 C           4.9676    2.8510   -1.0097 C.3     1  UNL1        0.0035
     12 C           3.6703    2.3081   -0.5429 C.ar    1  UNL1       -0.0409
     13 C           2.5142    2.5149   -1.2961 C.ar    1  UNL1       -0.0575
     14 C           1.2789    2.0422   -0.8950 C.ar    1  UNL1       -0.0502
     15 C           1.1555    1.3390    0.2858 C.ar    1  UNL1        0.0268
     16 C           0.0556    0.7722    0.8985 C.ar    1  UNL1        0.0931
     17 C          -1.3318    0.7606    0.4462 C.2     1  UNL1       -0.0334
     18 C          -2.2511    0.1745    1.1612 C.2     1  UNL1       -0.0525
     19 C          -3.6574    0.0890    0.8320 C.ar    1  UNL1       -0.0249
     20 C          -4.1247    0.6582   -0.3280 C.ar    1  UNL1       -0.0543
     21 C          -5.4872    0.5715   -0.6415 C.ar    1  UNL1       -0.0568
     22 C          -6.3774   -0.0779    0.1954 C.ar    1  UNL1       -0.0333
     23 C          -7.8157   -0.1511   -0.1671 C.3     1  UNL1        0.0242
     24 N          -8.1511   -1.2971   -0.9547 N.3     1  UNL1       -0.2938
     25 C          -7.8735   -2.5520   -0.3289 C.3     1  UNL1        0.0228
     26 C          -8.8815   -2.9830    0.6928 C.3     1  UNL1        0.0604
     27 O         -10.1367   -3.0068    0.0853 O.3     1  UNL1       -0.3772
     28 C         -10.4780   -1.7504   -0.3589 C.3     1  UNL1        0.0604
     29 C          -9.5180   -1.2087   -1.3754 C.3     1  UNL1        0.0228
     30 C          -5.9156   -0.6591    1.3746 C.ar    1  UNL1       -0.0568
     31 C          -4.5727   -0.5519    1.6452 C.ar    1  UNL1       -0.0543
     32 N           0.5410    0.2117    2.0396 N.ar    1  UNL1       -0.1733
     33 N           1.8408    0.4211    2.1173 N.ar    1  UNL1       -0.2764
     34 C           2.2807    1.1170    1.0554 C.ar    1  UNL1        0.0666
     35 C           3.5157    1.6035    0.6304 C.ar    1  UNL1       -0.0328
     36 C           7.4057    2.8510   -0.5268 C.2     1  UNL1        0.2307
     37 O           7.6676    4.0503   -0.7866 O.2     1  UNL1       -0.2743
     38 N           8.2069    1.9786    0.2413 N.am    1  UNL1       -0.2734
     39 C           9.4752    2.2644    0.9137 C.3     1  UNL1        0.0083
     40 H           4.9169   -4.7853    0.1219 H       1  UNL1        0.0660
     41 H           6.5819   -4.1923    0.2962 H       1  UNL1        0.0660
     42 H           5.3430   -3.8507    1.5736 H       1  UNL1        0.0660
     43 H           7.4121   -2.5578    1.1819 H       1  UNL1        0.0655
     44 H           8.8429   -0.5385    1.4228 H       1  UNL1        0.0637
     45 H           4.6694   -0.3768   -1.1441 H       1  UNL1        0.0658
     46 H           5.9832    3.0374   -3.0133 H       1  UNL1        0.0285
     47 H           5.0851    1.4446   -2.7211 H       1  UNL1        0.0285
     48 H           5.0149    3.9848   -0.9599 H       1  UNL1        0.0362
     49 H           2.6047    3.0579   -2.2094 H       1  UNL1        0.0621
     50 H           0.3768    2.1968   -1.4708 H       1  UNL1        0.0625
     51 H          -1.5901    1.2344   -0.4734 H       1  UNL1        0.0640
     52 H          -1.9213   -0.2984    2.1025 H       1  UNL1        0.0624
     53 H          -3.5125    1.1830   -1.0406 H       1  UNL1        0.0624
     54 H          -5.8754    1.0142   -1.5519 H       1  UNL1        0.0621
     55 H          -8.1332    0.7663   -0.6874 H       1  UNL1        0.0476
     56 H          -8.3722   -0.1944    0.8111 H       1  UNL1        0.0476
     57 H          -6.8484   -2.5303    0.0719 H       1  UNL1        0.0449
     58 H          -7.8629   -3.3412   -1.1222 H       1  UNL1        0.0449
     59 H          -8.6293   -4.0390    0.9679 H       1  UNL1        0.0572
     60 H          -8.8648   -2.3974    1.6240 H       1  UNL1        0.0572
     61 H         -10.6019   -1.0630    0.5050 H       1  UNL1        0.0572
     62 H         -11.4808   -1.8166   -0.8347 H       1  UNL1        0.0572
     63 H          -9.7414   -0.1383   -1.5626 H       1  UNL1        0.0449
     64 H          -9.7137   -1.7334   -2.3338 H       1  UNL1        0.0449
     65 H          -6.6140   -1.1665    2.0285 H       1  UNL1        0.0621
     66 H          -4.2035   -0.9977    2.5544 H       1  UNL1        0.0624
     67 H           2.4615    0.0993    2.8888 H       1  UNL1        0.1889
     68 H           4.3695    1.4168    1.2644 H       1  UNL1        0.0642
     69 H           9.2693    2.2355    2.0040 H       1  UNL1        0.0433
     70 H           9.7669    3.3086    0.6715 H       1  UNL1        0.0433
     71 H          10.2569    1.5285    0.6094 H       1  UNL1        0.0433
@<TRIPOS>BOND
     1     1     2    1
     2     2     3    1
     3     3     4   ar
     4     4     5   ar
     5     5     6   ar
     6     6     7   ar
     7     7     8   ar
     8     7     9    1
     9     9    10    1
    10    10    11    1
    11    11    12    1
    12    12    13   ar
    13    13    14   ar
    14    14    15   ar
    15    15    16   ar
    16    16    17    1
    17    17    18    2
    18    18    19    1
    19    19    20   ar
    20    20    21   ar
    21    21    22   ar
    22    22    23    1
    23    23    24    1
    24    24    25    1
    25    25    26    1
    26    26    27    1
    27    27    28    1
    28    28    29    1
    29    22    30   ar
    30    30    31   ar
    31    16    32   ar
    32    32    33   ar
    33    33    34   ar
    34    34    35   ar
    35     9    36    1
    36    36    37    2
    37    36    38   am
    38    38    39    1
    39     8     3   ar
    40    11     9    1
    41    35    12   ar
    42    38     6    1
    43    34    15   ar
    44    31    19   ar
    45    29    24    1
    46     1    40    1
    47     1    41    1
    48     1    42    1
    49     4    43    1
    50     5    44    1
    51     8    45    1
    52    10    46    1
    53    10    47    1
    54    11    48    1
    55    13    49    1
    56    14    50    1
    57    17    51    1
    58    18    52    1
    59    20    53    1
    60    21    54    1
    61    23    55    1
    62    23    56    1
    63    25    57    1
    64    25    58    1
    65    26    59    1
    66    26    60    1
    67    28    61    1
    68    28    62    1
    69    29    63    1
    70    29    64    1
    71    30    65    1
    72    31    66    1
    73    33    67    1
    74    35    68    1
    75    39    69    1
    76    39    70    1
    77    39    71    1
