
     RDKit          3D

 63 66  0  0  0  0  0  0  0  0999 V2000
    7.7409    2.6504   -0.3654 N   0  0  0  0  0  0  0  0  0  0  0  0
    7.0817    2.3104   -1.4184 C   0  0  0  0  0  0  0  0  0  0  0  0
    7.3953    2.8708   -2.6835 N   0  0  0  0  0  0  0  0  0  0  0  0
    5.9929    1.3425   -1.3511 C   0  0  0  0  0  0  0  0  0  0  0  0
    5.7622    0.5500   -2.4677 C   0  0  0  0  0  0  0  0  0  0  0  0
    4.7327   -0.3648   -2.4033 C   0  0  0  0  0  0  0  0  0  0  0  0
    3.9403   -0.4994   -1.2572 C   0  0  0  0  0  0  0  0  0  0  0  0
    4.1690    0.2831   -0.1565 C   0  0  0  0  0  0  0  0  0  0  0  0
    3.3619    0.1611    1.0398 C   0  0  0  0  0  0  0  0  0  0  0  0
    3.5992    0.9010    2.0425 O   0  0  0  0  0  0  0  0  0  0  0  0
    2.2985   -0.7488    1.1746 N   0  0  0  0  0  0  0  0  0  0  0  0
    1.5092   -0.8305    2.4168 C   0  0  1  0  0  0  0  0  0  0  0  0
    0.1005   -0.4007    2.1404 C   0  0  0  0  0  0  0  0  0  0  0  0
   -0.7462   -0.3270    3.0490 O   0  0  0  0  0  0  0  0  0  0  0  0
   -0.2889   -0.0661    0.8093 N   0  0  0  0  0  0  0  0  0  0  0  0
   -1.5674    0.3544    0.3795 C   0  0  0  0  0  0  0  0  0  0  0  0
   -1.6990    0.6255   -0.9888 C   0  0  0  0  0  0  0  0  0  0  0  0
   -2.9123    1.0349   -1.4599 C   0  0  0  0  0  0  0  0  0  0  0  0
   -4.0456    1.2052   -0.6673 C   0  0  0  0  0  0  0  0  0  0  0  0
   -5.2534    1.6789   -1.3052 C   0  0  0  0  0  0  0  0  0  0  0  0
   -5.3173    2.9720   -1.8486 C   0  0  0  0  0  0  0  0  0  0  0  0
   -6.4633    3.4534   -2.4396 C   0  0  0  0  0  0  0  0  0  0  0  0
   -7.5923    2.6697   -2.5146 C   0  0  0  0  0  0  0  0  0  0  0  0
   -7.5432    1.4044   -1.9881 C   0  0  0  0  0  0  0  0  0  0  0  0
   -6.3731    0.9049   -1.3820 C   0  0  0  0  0  0  0  0  0  0  0  0
   -6.3897   -0.7189   -0.7669 S   0  0  0  0  0  6  0  0  0  0  0  0
   -5.1485   -1.6895   -1.4775 N   0  0  0  0  0  0  0  0  0  0  0  0
   -7.7041   -1.3752   -1.2296 O   0  0  0  0  0  0  0  0  0  0  0  0
   -6.4322   -0.8210    0.7200 O   0  0  0  0  0  0  0  0  0  0  0  0
   -3.8865    0.9343    0.6638 C   0  0  0  0  0  0  0  0  0  0  0  0
   -2.6725    0.5139    1.1947 C   0  0  0  0  0  0  0  0  0  0  0  0
    1.6360   -2.2057    2.9037 C   0  0  0  0  0  0  0  0  0  0  0  0
    0.5716   -2.9429    3.3034 C   0  0  0  0  0  0  0  0  0  0  0  0
    0.7563   -4.2417    3.7590 C   0  0  0  0  0  0  0  0  0  0  0  0
    2.0082   -4.8150    3.8187 C   0  0  0  0  0  0  0  0  0  0  0  0
    3.0902   -4.0757    3.4159 C   0  0  0  0  0  0  0  0  0  0  0  0
    2.8883   -2.7897    2.9672 C   0  0  0  0  0  0  0  0  0  0  0  0
    5.2098    1.2107   -0.2165 C   0  0  0  0  0  0  0  0  0  0  0  0
    8.5050    3.3395   -0.4522 H   0  0  0  0  0  0  0  0  0  0  0  0
    6.9611    3.7790   -2.9467 H   0  0  0  0  0  0  0  0  0  0  0  0
    8.0395    2.4201   -3.3662 H   0  0  0  0  0  0  0  0  0  0  0  0
    6.3816    0.6630   -3.3485 H   0  0  0  0  0  0  0  0  0  0  0  0
    4.5527   -0.9825   -3.2731 H   0  0  0  0  0  0  0  0  0  0  0  0
    3.1566   -1.2374   -1.2886 H   0  0  0  0  0  0  0  0  0  0  0  0
    2.0626   -1.3799    0.3851 H   0  0  0  0  0  0  0  0  0  0  0  0
    1.9167   -0.1122    3.1407 H   0  0  0  0  0  0  0  0  0  0  0  0
    0.4856   -0.1469    0.0645 H   0  0  0  0  0  0  0  0  0  0  0  0
   -0.8546    0.5070   -1.6288 H   0  0  0  0  0  0  0  0  0  0  0  0
   -2.9860    1.2415   -2.5449 H   0  0  0  0  0  0  0  0  0  0  0  0
   -4.4015    3.5555   -1.7667 H   0  0  0  0  0  0  0  0  0  0  0  0
   -6.4717    4.4628   -2.8494 H   0  0  0  0  0  0  0  0  0  0  0  0
   -8.5173    3.0425   -2.9849 H   0  0  0  0  0  0  0  0  0  0  0  0
   -8.4361    0.7814   -2.0461 H   0  0  0  0  0  0  0  0  0  0  0  0
   -4.3242   -1.6420   -0.8356 H   0  0  0  0  0  0  0  0  0  0  0  0
   -5.4196   -2.6994   -1.5263 H   0  0  0  0  0  0  0  0  0  0  0  0
   -4.7187    1.0680    1.3431 H   0  0  0  0  0  0  0  0  0  0  0  0
   -2.5940    0.3128    2.2400 H   0  0  0  0  0  0  0  0  0  0  0  0
   -0.4225   -2.5483    3.2743 H   0  0  0  0  0  0  0  0  0  0  0  0
   -0.0854   -4.8132    4.0710 H   0  0  0  0  0  0  0  0  0  0  0  0
    2.1137   -5.8466    4.1856 H   0  0  0  0  0  0  0  0  0  0  0  0
    4.0803   -4.5213    3.4602 H   0  0  0  0  0  0  0  0  0  0  0  0
    3.7395   -2.2134    2.6523 H   0  0  0  0  0  0  0  0  0  0  0  0
    5.4274    1.8513    0.6309 H   0  0  0  0  0  0  0  0  0  0  0  0
  1  2  2  3
  2  3  1  0
  2  4  1  0
  4  5  2  0
  5  6  1  0
  6  7  2  0
  7  8  1  0
  8  9  1  0
  9 10  2  0
  9 11  1  0
 11 12  1  0
 12 13  1  0
 13 14  2  0
 13 15  1  0
 15 16  1  0
 16 17  2  0
 17 18  1  0
 18 19  2  0
 19 20  1  0
 20 21  2  0
 21 22  1  0
 22 23  2  0
 23 24  1  0
 24 25  2  0
 25 26  1  0
 26 27  1  0
 26 28  2  0
 26 29  2  0
 19 30  1  0
 30 31  2  0
 12 32  1  0
 32 33  2  0
 33 34  1  0
 34 35  2  0
 35 36  1  0
 36 37  2  0
  8 38  2  0
 38  4  1  0
 31 16  1  0
 37 32  1  0
 25 20  1  0
  1 39  1  0
  3 40  1  0
  3 41  1  0
  5 42  1  0
  6 43  1  0
  7 44  1  0
 11 45  1  0
 12 46  1  1
 15 47  1  0
 17 48  1  0
 18 49  1  0
 21 50  1  0
 22 51  1  0
 23 52  1  0
 24 53  1  0
 27 54  1  0
 27 55  1  0
 30 56  1  0
 31 57  1  0
 33 58  1  0
 34 59  1  0
 35 60  1  0
 36 61  1  0
 37 62  1  0
 38 63  1  0
M  END
$$$$
