@<TRIPOS>MOLECULE
*****
 63 66 0 0 0
SMALL
GASTEIGER

@<TRIPOS>ATOM
      1 N           7.7409    2.6504   -0.3654 N.2     1  UNL1       -0.0994
      2 C           7.0817    2.3104   -1.4184 C.2     1  UNL1        0.3081
      3 N           7.3953    2.8708   -2.6835 N.pl3   1  UNL1       -0.2466
      4 C           5.9929    1.3425   -1.3511 C.ar    1  UNL1        0.0654
      5 C           5.7622    0.5500   -2.4677 C.ar    1  UNL1       -0.0469
      6 C           4.7327   -0.3648   -2.4033 C.ar    1  UNL1       -0.0602
      7 C           3.9403   -0.4994   -1.2572 C.ar    1  UNL1       -0.0496
      8 C           4.1690    0.2831   -0.1565 C.ar    1  UNL1        0.0375
      9 C           3.3619    0.1611    1.0398 C.2     1  UNL1        0.2449
     10 O           3.5992    0.9010    2.0425 O.2     1  UNL1       -0.2702
     11 N           2.2985   -0.7488    1.1746 N.am    1  UNL1       -0.2963
     12 C           1.5092   -0.8305    2.4168 C.3     1  UNL1        0.1255
     13 C           0.1005   -0.4007    2.1404 C.2     1  UNL1        0.2421
     14 O          -0.7462   -0.3270    3.0490 O.2     1  UNL1       -0.2731
     15 N          -0.2889   -0.0661    0.8093 N.am    1  UNL1       -0.2837
     16 C          -1.5674    0.3544    0.3795 C.ar    1  UNL1        0.0335
     17 C          -1.6990    0.6255   -0.9888 C.ar    1  UNL1       -0.0399
     18 C          -2.9123    1.0349   -1.4599 C.ar    1  UNL1       -0.0522
     19 C          -4.0456    1.2052   -0.6673 C.ar    1  UNL1       -0.0159
     20 C          -5.2534    1.6789   -1.3052 C.ar    1  UNL1        0.0084
     21 C          -5.3173    2.9720   -1.8486 C.ar    1  UNL1       -0.0522
     22 C          -6.4633    3.4534   -2.4396 C.ar    1  UNL1       -0.0611
     23 C          -7.5923    2.6697   -2.5146 C.ar    1  UNL1       -0.0599
     24 C          -7.5432    1.4044   -1.9881 C.ar    1  UNL1       -0.0348
     25 C          -6.3731    0.9049   -1.3820 C.ar    1  UNL1        0.1127
     26 S          -6.3897   -0.7189   -0.7669 S.O2    1  UNL1        0.0565
     27 N          -5.1485   -1.6895   -1.4775 N.3     1  UNL1       -0.2035
     28 O          -7.7041   -1.3752   -1.2296 O.2     1  UNL1       -0.1532
     29 O          -6.4322   -0.8210    0.7200 O.2     1  UNL1       -0.1532
     30 C          -3.8865    0.9343    0.6638 C.ar    1  UNL1       -0.0522
     31 C          -2.6725    0.5139    1.1947 C.ar    1  UNL1       -0.0399
     32 C           1.6360   -2.2057    2.9037 C.ar    1  UNL1       -0.0184
     33 C           0.5716   -2.9429    3.3034 C.ar    1  UNL1       -0.0563
     34 C           0.7563   -4.2417    3.7590 C.ar    1  UNL1       -0.0614
     35 C           2.0082   -4.8150    3.8187 C.ar    1  UNL1       -0.0617
     36 C           3.0902   -4.0757    3.4159 C.ar    1  UNL1       -0.0614
     37 C           2.8883   -2.7897    2.9672 C.ar    1  UNL1       -0.0563
     38 C           5.2098    1.2107   -0.2165 C.ar    1  UNL1       -0.0348
     39 H           8.5050    3.3395   -0.4522 H       1  UNL1        0.3633
     40 H           6.9611    3.7790   -2.9467 H       1  UNL1        0.2884
     41 H           8.0395    2.4201   -3.3662 H       1  UNL1        0.2884
     42 H           6.3816    0.6630   -3.3485 H       1  UNL1        0.0626
     43 H           4.5527   -0.9825   -3.2731 H       1  UNL1        0.0618
     44 H           3.1566   -1.2374   -1.2886 H       1  UNL1        0.0625
     45 H           2.0626   -1.3799    0.3851 H       1  UNL1        0.1501
     46 H           1.9167   -0.1122    3.1407 H       1  UNL1        0.0646
     47 H           0.4856   -0.1469    0.0645 H       1  UNL1        0.1549
     48 H          -0.8546    0.5070   -1.6288 H       1  UNL1        0.0636
     49 H          -2.9860    1.2415   -2.5449 H       1  UNL1        0.0624
     50 H          -4.4015    3.5555   -1.7667 H       1  UNL1        0.0624
     51 H          -6.4717    4.4628   -2.8494 H       1  UNL1        0.0618
     52 H          -8.5173    3.0425   -2.9849 H       1  UNL1        0.0618
     53 H          -8.4361    0.7814   -2.0461 H       1  UNL1        0.0637
     54 H          -4.3242   -1.6420   -0.8356 H       1  UNL1        0.1442
     55 H          -5.4196   -2.6994   -1.5263 H       1  UNL1        0.1442
     56 H          -4.7187    1.0680    1.3431 H       1  UNL1        0.0624
     57 H          -2.5940    0.3128    2.2400 H       1  UNL1        0.0636
     58 H          -0.4225   -2.5483    3.2743 H       1  UNL1        0.0621
     59 H          -0.0854   -4.8132    4.0710 H       1  UNL1        0.0618
     60 H           2.1137   -5.8466    4.1856 H       1  UNL1        0.0618
     61 H           4.0803   -4.5213    3.4602 H       1  UNL1        0.0618
     62 H           3.7395   -2.2134    2.6523 H       1  UNL1        0.0621
     63 H           5.4274    1.8513    0.6309 H       1  UNL1        0.0633
@<TRIPOS>BOND
     1     1     2    2
     2     2     3    1
     3     2     4    1
     4     4     5   ar
     5     5     6   ar
     6     6     7   ar
     7     7     8   ar
     8     8     9    1
     9     9    10    2
    10     9    11   am
    11    11    12    1
    12    12    13    1
    13    13    14    2
    14    13    15   am
    15    15    16    1
    16    16    17   ar
    17    17    18   ar
    18    18    19   ar
    19    19    20    1
    20    20    21   ar
    21    21    22   ar
    22    22    23   ar
    23    23    24   ar
    24    24    25   ar
    25    25    26    1
    26    26    27    1
    27    26    28    2
    28    26    29    2
    29    19    30   ar
    30    30    31   ar
    31    12    32    1
    32    32    33   ar
    33    33    34   ar
    34    34    35   ar
    35    35    36   ar
    36    36    37   ar
    37     8    38   ar
    38    38     4   ar
    39    31    16   ar
    40    37    32   ar
    41    25    20   ar
    42     1    39    1
    43     3    40    1
    44     3    41    1
    45     5    42    1
    46     6    43    1
    47     7    44    1
    48    11    45    1
    49    12    46    1
    50    15    47    1
    51    17    48    1
    52    18    49    1
    53    21    50    1
    54    22    51    1
    55    23    52    1
    56    24    53    1
    57    27    54    1
    58    27    55    1
    59    30    56    1
    60    31    57    1
    61    33    58    1
    62    34    59    1
    63    35    60    1
    64    36    61    1
    65    37    62    1
    66    38    63    1
