
     RDKit          3D

 56 58  0  0  0  0  0  0  0  0999 V2000
    3.1164   -1.6095    2.3147 N   0  0  0  0  0  0  0  0  0  0  0  0
    2.1708   -1.0188    1.4461 C   0  0  0  0  0  0  0  0  0  0  0  0
    0.9925   -0.9195    1.8186 O   0  0  0  0  0  0  0  0  0  0  0  0
    2.5457   -0.5148    0.1027 C   0  0  0  0  0  0  0  0  0  0  0  0
    3.8113   -0.5962   -0.3447 C   0  0  0  0  0  0  0  0  0  0  0  0
    4.8843   -1.1306    0.3482 O   0  0  0  0  0  0  0  0  0  0  0  0
    6.1911   -1.3239    0.1556 C   0  0  0  0  0  0  0  0  0  0  0  0
    7.0683   -0.1556   -0.0845 C   0  0  0  0  0  0  0  0  0  0  0  0
    7.3392    0.4359   -1.2816 C   0  0  0  0  0  0  0  0  0  0  0  0
    6.8604   -0.1347   -2.4162 F   0  0  0  0  0  0  0  0  0  0  0  0
    8.1382    1.5848   -1.3680 C   0  0  0  0  0  0  0  0  0  0  0  0
    8.6890    2.1701   -0.2503 C   0  0  0  0  0  0  0  0  0  0  0  0
    9.7718    3.7394   -0.3789 Br  0  0  0  0  0  0  0  0  0  0  0  0
    8.4239    1.5796    0.9648 C   0  0  0  0  0  0  0  0  0  0  0  0
    7.6392    0.4542    1.0419 C   0  0  0  0  0  0  0  0  0  0  0  0
    7.3848   -0.1216    2.2596 F   0  0  0  0  0  0  0  0  0  0  0  0
    4.0659   -0.0958   -1.6275 N   0  0  0  0  0  0  0  0  0  0  0  0
    2.4493    0.4919   -2.1723 S   0  0  0  0  0  0  0  0  0  0  0  0
    1.6045    0.0446   -0.7152 C   0  0  0  0  0  0  0  0  0  0  0  0
    0.2098    0.2362   -0.4507 N   0  0  0  0  0  0  0  0  0  0  0  0
   -0.7276   -0.7554   -0.7472 C   0  0  0  0  0  0  0  0  0  0  0  0
   -0.3456   -1.8376   -1.2516 O   0  0  0  0  0  0  0  0  0  0  0  0
   -2.1554   -0.5418   -0.4724 N   0  0  0  0  0  0  0  0  0  0  0  0
   -2.9849   -1.6229   -0.8099 C   0  0  0  0  0  0  0  0  0  0  0  0
   -4.4401   -1.6018   -0.6185 C   0  0  0  0  0  0  0  0  0  0  0  0
   -4.9974   -1.3963    0.7418 C   0  0  0  0  0  0  0  0  0  0  0  0
   -4.8297   -0.1039    1.3976 C   0  0  0  0  0  0  0  0  0  0  0  0
   -5.4269    1.0559    0.9291 N   0  0  0  0  0  0  0  0  0  0  0  0
   -6.8530    1.1606    1.0629 C   0  0  0  0  0  0  0  0  0  0  0  0
   -7.3675    0.9301   -0.3404 C   0  0  0  0  0  0  0  0  0  0  0  0
   -6.3136    1.6754   -1.1319 C   0  0  0  0  0  0  0  0  0  0  0  0
   -5.0783    1.7359   -0.2267 C   0  0  0  0  0  0  0  0  0  0  0  0
    3.3224   -1.1614    3.2450 H   0  0  0  0  0  0  0  0  0  0  0  0
    3.6508   -2.4810    2.1151 H   0  0  0  0  0  0  0  0  0  0  0  0
    6.6993   -1.8913    0.9937 H   0  0  0  0  0  0  0  0  0  0  0  0
    6.3149   -1.9628   -0.7943 H   0  0  0  0  0  0  0  0  0  0  0  0
    8.3214    2.0112   -2.3262 H   0  0  0  0  0  0  0  0  0  0  0  0
    8.8487    2.0278    1.8440 H   0  0  0  0  0  0  0  0  0  0  0  0
   -0.0803    1.1428   -0.0293 H   0  0  0  0  0  0  0  0  0  0  0  0
   -2.3301    0.3758   -0.0705 H   0  0  0  0  0  0  0  0  0  0  0  0
   -2.8282   -1.7877   -1.9386 H   0  0  0  0  0  0  0  0  0  0  0  0
   -2.5299   -2.6118   -0.4203 H   0  0  0  0  0  0  0  0  0  0  0  0
   -4.8200   -2.6025   -1.0511 H   0  0  0  0  0  0  0  0  0  0  0  0
   -4.9115   -0.8444   -1.2956 H   0  0  0  0  0  0  0  0  0  0  0  0
   -6.0494   -1.7821    0.7207 H   0  0  0  0  0  0  0  0  0  0  0  0
   -4.4842   -2.1898    1.3909 H   0  0  0  0  0  0  0  0  0  0  0  0
   -5.2607   -0.2398    2.4788 H   0  0  0  0  0  0  0  0  0  0  0  0
   -3.7624    0.0722    1.6429 H   0  0  0  0  0  0  0  0  0  0  0  0
   -7.0796    2.2211    1.3084 H   0  0  0  0  0  0  0  0  0  0  0  0
   -7.3019    0.5466    1.8345 H   0  0  0  0  0  0  0  0  0  0  0  0
   -7.4779   -0.1154   -0.6101 H   0  0  0  0  0  0  0  0  0  0  0  0
   -8.3369    1.4428   -0.5058 H   0  0  0  0  0  0  0  0  0  0  0  0
   -6.0275    1.1327   -2.0448 H   0  0  0  0  0  0  0  0  0  0  0  0
   -6.6094    2.7171   -1.3387 H   0  0  0  0  0  0  0  0  0  0  0  0
   -4.2047    1.3304   -0.7483 H   0  0  0  0  0  0  0  0  0  0  0  0
   -4.8995    2.8355    0.0264 H   0  0  0  0  0  0  0  0  0  0  0  0
  1  2  1  0
  2  3  2  0
  2  4  1  0
  4  5  1  0
  5  6  1  0
  6  7  1  0
  7  8  1  0
  8  9  2  0
  9 10  1  0
  9 11  1  0
 11 12  2  0
 12 13  1  0
 12 14  1  0
 14 15  2  0
 15 16  1  0
  5 17  2  0
 17 18  1  0
 18 19  1  0
 19 20  1  0
 20 21  1  0
 21 22  2  0
 21 23  1  0
 23 24  1  0
 24 25  1  0
 25 26  1  0
 26 27  1  0
 27 28  1  0
 28 29  1  0
 29 30  1  0
 30 31  1  0
 31 32  1  0
 19  4  2  0
 32 28  1  0
 15  8  1  0
  1 33  1  0
  1 34  1  0
  7 35  1  0
  7 36  1  0
 11 37  1  0
 14 38  1  0
 20 39  1  0
 23 40  1  0
 24 41  1  0
 24 42  1  0
 25 43  1  0
 25 44  1  0
 26 45  1  0
 26 46  1  0
 27 47  1  0
 27 48  1  0
 29 49  1  0
 29 50  1  0
 30 51  1  0
 30 52  1  0
 31 53  1  0
 31 54  1  0
 32 55  1  0
 32 56  1  0
M  END
$$$$
