@<TRIPOS>MOLECULE
*****
 56 58 0 0 0
SMALL
GASTEIGER

@<TRIPOS>ATOM
      1 N           3.1164   -1.6095    2.3147 N.am    1  UNL1       -0.3251
      2 C           2.1708   -1.0188    1.4461 C.2     1  UNL1        0.2491
      3 O           0.9925   -0.9195    1.8186 O.2     1  UNL1       -0.2701
      4 C           2.5457   -0.5148    0.1027 C.ar    1  UNL1        0.1277
      5 C           3.8113   -0.5962   -0.3447 C.ar    1  UNL1        0.2370
      6 O           4.8843   -1.1306    0.3482 O.3     1  UNL1       -0.4705
      7 C           6.1911   -1.3239    0.1556 C.3     1  UNL1        0.1216
      8 C           7.0683   -0.1556   -0.0845 C.ar    1  UNL1        0.0600
      9 C           7.3392    0.4359   -1.2816 C.ar    1  UNL1        0.1336
     10 F           6.8604   -0.1347   -2.4162 F       1  UNL1       -0.2050
     11 C           8.1382    1.5848   -1.3680 C.ar    1  UNL1       -0.0119
     12 C           8.6890    2.1701   -0.2503 C.ar    1  UNL1        0.0233
     13 BR          9.7718    3.7394   -0.3789 Br      1  UNL1       -0.0501
     14 C           8.4239    1.5796    0.9648 C.ar    1  UNL1       -0.0119
     15 C           7.6392    0.4542    1.0419 C.ar    1  UNL1        0.1336
     16 F           7.3848   -0.1216    2.2596 F       1  UNL1       -0.2050
     17 N           4.0659   -0.0958   -1.6275 N.ar    1  UNL1       -0.1724
     18 S           2.4493    0.4919   -2.1723 S.2     1  UNL1        0.0315
     19 C           1.6045    0.0446   -0.7152 C.ar    1  UNL1        0.1089
     20 N           0.2098    0.2362   -0.4507 N.am    1  UNL1       -0.2619
     21 C          -0.7276   -0.7554   -0.7472 C.2     1  UNL1        0.3043
     22 O          -0.3456   -1.8376   -1.2516 O.2     1  UNL1       -0.2525
     23 N          -2.1554   -0.5418   -0.4724 N.am    1  UNL1       -0.2991
     24 C          -2.9849   -1.6229   -0.8099 C.3     1  UNL1        0.0131
     25 C          -4.4401   -1.6018   -0.6185 C.3     1  UNL1       -0.0362
     26 C          -4.9974   -1.3963    0.7418 C.3     1  UNL1       -0.0388
     27 C          -4.8297   -0.1039    1.3976 C.3     1  UNL1       -0.0011
     28 N          -5.4269    1.0559    0.9291 N.3     1  UNL1       -0.3023
     29 C          -6.8530    1.1606    1.0629 C.3     1  UNL1       -0.0011
     30 C          -7.3675    0.9301   -0.3404 C.3     1  UNL1       -0.0390
     31 C          -6.3136    1.6754   -1.1319 C.3     1  UNL1       -0.0390
     32 C          -5.0783    1.7359   -0.2267 C.3     1  UNL1       -0.0011
     33 H           3.3224   -1.1614    3.2450 H       1  UNL1        0.1453
     34 H           3.6508   -2.4810    2.1151 H       1  UNL1        0.1453
     35 H           6.6993   -1.8913    0.9937 H       1  UNL1        0.0750
     36 H           6.3149   -1.9628   -0.7943 H       1  UNL1        0.0750
     37 H           8.3214    2.0112   -2.3262 H       1  UNL1        0.0657
     38 H           8.8487    2.0278    1.8440 H       1  UNL1        0.0657
     39 H          -0.0803    1.1428   -0.0293 H       1  UNL1        0.1569
     40 H          -2.3301    0.3758   -0.0705 H       1  UNL1        0.1502
     41 H          -2.8282   -1.7877   -1.9386 H       1  UNL1        0.0462
     42 H          -2.5299   -2.6118   -0.4203 H       1  UNL1        0.0462
     43 H          -4.8200   -2.6025   -1.0511 H       1  UNL1        0.0281
     44 H          -4.9115   -0.8444   -1.2956 H       1  UNL1        0.0281
     45 H          -6.0494   -1.7821    0.7207 H       1  UNL1        0.0278
     46 H          -4.4842   -2.1898    1.3909 H       1  UNL1        0.0278
     47 H          -5.2607   -0.2398    2.4788 H       1  UNL1        0.0426
     48 H          -3.7624    0.0722    1.6429 H       1  UNL1        0.0426
     49 H          -7.0796    2.2211    1.3084 H       1  UNL1        0.0426
     50 H          -7.3019    0.5466    1.8345 H       1  UNL1        0.0426
     51 H          -7.4779   -0.1154   -0.6101 H       1  UNL1        0.0278
     52 H          -8.3369    1.4428   -0.5058 H       1  UNL1        0.0278
     53 H          -6.0275    1.1327   -2.0448 H       1  UNL1        0.0278
     54 H          -6.6094    2.7171   -1.3387 H       1  UNL1        0.0278
     55 H          -4.2047    1.3304   -0.7483 H       1  UNL1        0.0426
     56 H          -4.8995    2.8355    0.0264 H       1  UNL1        0.0426
@<TRIPOS>BOND
     1     1     2   am
     2     2     3    2
     3     2     4    1
     4     4     5   ar
     5     5     6    1
     6     6     7    1
     7     7     8    1
     8     8     9   ar
     9     9    10    1
    10     9    11   ar
    11    11    12   ar
    12    12    13    1
    13    12    14   ar
    14    14    15   ar
    15    15    16    1
    16     5    17   ar
    17    17    18   ar
    18    18    19   ar
    19    19    20    1
    20    20    21   am
    21    21    22    2
    22    21    23   am
    23    23    24    1
    24    24    25    1
    25    25    26    1
    26    26    27    1
    27    27    28    1
    28    28    29    1
    29    29    30    1
    30    30    31    1
    31    31    32    1
    32    19     4   ar
    33    32    28    1
    34    15     8   ar
    35     1    33    1
    36     1    34    1
    37     7    35    1
    38     7    36    1
    39    11    37    1
    40    14    38    1
    41    20    39    1
    42    23    40    1
    43    24    41    1
    44    24    42    1
    45    25    43    1
    46    25    44    1
    47    26    45    1
    48    26    46    1
    49    27    47    1
    50    27    48    1
    51    29    49    1
    52    29    50    1
    53    30    51    1
    54    30    52    1
    55    31    53    1
    56    31    54    1
    57    32    55    1
    58    32    56    1
