@<TRIPOS>MOLECULE
*****
 39 39 0 0 0
SMALL
GASTEIGER

@<TRIPOS>ATOM
      1 O           5.1760   -2.8182    0.9722 O.3     1  UNL1       -0.5013
      2 C           4.3580   -1.7169    0.8824 C.ar    1  UNL1        0.1947
      3 C           4.3653   -0.8357   -0.1920 C.ar    1  UNL1        0.3143
      4 C           3.4993    0.2358   -0.1729 C.ar    1  UNL1        0.0230
      5 C           2.6330    0.4658    0.8618 C.ar    1  UNL1       -0.0320
      6 C           1.6711    1.5880    0.9675 C.3     1  UNL1        0.0493
      7 C           0.3517    1.2624    0.3834 C.2     1  UNL1        0.2174
      8 O           0.1809    0.1271   -0.1208 O.2     1  UNL1       -0.2755
      9 N          -0.6636    2.2539    0.4210 N.am    1  UNL1       -0.3150
     10 C          -1.9960    2.0409   -0.1224 C.3     1  UNL1        0.0116
     11 C          -2.6119    0.8842    0.6109 C.3     1  UNL1       -0.0374
     12 C          -4.0054    0.5919    0.1090 C.3     1  UNL1       -0.0513
     13 C          -4.0592    0.2441   -1.3406 C.3     1  UNL1       -0.0479
     14 C          -3.2604   -0.9694   -1.7321 C.3     1  UNL1       -0.0132
     15 C          -3.7254   -2.1845   -1.0155 C.2     1  UNL1        0.0417
     16 O          -4.7385   -2.3410   -0.0888 O.co2   1  UNL1       -0.5498
     17 O          -4.5624   -2.6269   -0.1699 O.co2   1  UNL1       -0.5498
     18 C           2.6088   -0.4082    1.9532 C.ar    1  UNL1       -0.0542
     19 C           3.4793   -1.4911    1.9410 C.ar    1  UNL1       -0.0131
     20 N           5.2592   -1.0664   -1.2663 N.pl3   1  UNL1        0.0834
     21 O           5.0869   -0.7681   -2.5956 O.co2   1  UNL1       -0.5759
     22 O           6.3798   -1.5933   -1.1740 O.2     1  UNL1        0.0416
     23 H           5.4327   -3.3033    0.1205 H       1  UNL1        0.2924
     24 H           3.4812    0.9310   -0.9846 H       1  UNL1        0.0689
     25 H           2.1209    2.4352    0.3903 H       1  UNL1        0.0407
     26 H           1.5964    1.9344    2.0340 H       1  UNL1        0.0407
     27 H          -0.4332    3.1912    0.8677 H       1  UNL1        0.1487
     28 H          -1.9449    1.7765   -1.2031 H       1  UNL1        0.0462
     29 H          -2.6123    2.9212    0.0647 H       1  UNL1        0.0462
     30 H          -1.9899   -0.0014    0.7149 H       1  UNL1        0.0280
     31 H          -2.7668    1.2542    1.6677 H       1  UNL1        0.0280
     32 H          -4.5970    1.5246    0.2371 H       1  UNL1        0.0266
     33 H          -4.5048   -0.1628    0.7210 H       1  UNL1        0.0266
     34 H          -5.1327   -0.0287   -1.5477 H       1  UNL1        0.0269
     35 H          -3.8680    1.1105   -2.0033 H       1  UNL1        0.0269
     36 H          -3.4436   -1.1280   -2.8180 H       1  UNL1        0.0325
     37 H          -2.1867   -0.8751   -1.5809 H       1  UNL1        0.0325
     38 H           1.9532   -0.2823    2.7951 H       1  UNL1        0.0622
     39 H           3.4689   -2.1718    2.7776 H       1  UNL1        0.0656
@<TRIPOS>UNITY_ATOM_ATTR
16 1
charge -1
20 1
charge 1
21 1
charge -1
@<TRIPOS>BOND
     1     1     2    1
     2     2     3   ar
     3     3     4   ar
     4     4     5   ar
     5     5     6    1
     6     6     7    1
     7     7     8    2
     8     7     9   am
     9     9    10    1
    10    10    11    1
    11    11    12    1
    12    12    13    1
    13    13    14    1
    14    14    15    1
    15    15    16   ar
    16    15    17   ar
    17     5    18   ar
    18    18    19   ar
    19     3    20    1
    20    20    21    1
    21    20    22    2
    22    19     2   ar
    23     1    23    1
    24     4    24    1
    25     6    25    1
    26     6    26    1
    27     9    27    1
    28    10    28    1
    29    10    29    1
    30    11    30    1
    31    11    31    1
    32    12    32    1
    33    12    33    1
    34    13    34    1
    35    13    35    1
    36    14    36    1
    37    14    37    1
    38    18    38    1
    39    19    39    1
