
     RDKit          3D

 43 46  0  0  0  0  0  0  0  0999 V2000
    7.3942    0.5420    1.3888 C   0  0  0  0  0  0  0  0  0  0  0  0
    6.7325   -0.2858   -0.0808 S   0  0  0  0  0  4  0  0  0  0  0  0
    7.2426    0.4684   -1.2964 O   0  0  0  0  0  0  0  0  0  0  0  0
    4.9657   -0.2921   -0.0723 C   0  0  0  0  0  0  0  0  0  0  0  0
    4.2580   -1.3397    0.5064 C   0  0  0  0  0  0  0  0  0  0  0  0
    2.8636   -1.3307    0.5066 C   0  0  0  0  0  0  0  0  0  0  0  0
    2.1940   -0.2713   -0.0735 C   0  0  0  0  0  0  0  0  0  0  0  0
    0.7152   -0.2622   -0.0725 C   0  0  0  0  0  0  0  0  0  0  0  0
   -0.1065   -1.1848    0.4383 N   0  0  0  0  0  0  0  0  0  0  0  0
   -1.3866   -0.8172    0.2424 C   0  0  0  0  0  0  0  0  0  0  0  0
   -2.5507   -1.5695    0.6611 C   0  0  0  0  0  0  0  0  0  0  0  0
   -3.4354   -1.0311    1.5876 C   0  0  0  0  0  0  0  0  0  0  0  0
   -4.5579   -1.7050    2.0193 C   0  0  0  0  0  0  0  0  0  0  0  0
   -4.8065   -2.9261    1.5275 N   0  0  0  0  0  0  0  0  0  0  0  0
   -3.9789   -3.4906    0.6276 C   0  0  0  0  0  0  0  0  0  0  0  0
   -2.8381   -2.8334    0.1736 C   0  0  0  0  0  0  0  0  0  0  0  0
   -1.3047    0.3887   -0.4206 C   0  0  0  0  0  0  0  0  0  0  0  0
   -2.4561    1.1624   -0.8391 C   0  0  0  0  0  0  0  0  0  0  0  0
   -3.3284    0.6242   -1.7480 C   0  0  0  0  0  0  0  0  0  0  0  0
   -4.4148    1.3715   -2.1343 C   0  0  0  0  0  0  0  0  0  0  0  0
   -4.6159    2.6169   -1.6234 C   0  0  0  0  0  0  0  0  0  0  0  0
   -5.6945    3.3484   -2.0123 F   0  0  0  0  0  0  0  0  0  0  0  0
   -3.7469    3.1714   -0.7083 C   0  0  0  0  0  0  0  0  0  0  0  0
   -2.6551    2.4197   -0.3206 C   0  0  0  0  0  0  0  0  0  0  0  0
   -0.0271    0.7205   -0.6089 N   0  0  0  0  0  0  0  0  0  0  0  0
    2.9223    0.7491   -0.6373 C   0  0  0  0  0  0  0  0  0  0  0  0
    4.3027    0.7634   -0.6503 C   0  0  0  0  0  0  0  0  0  0  0  0
    6.7057    0.3331    2.2272 H   0  0  0  0  0  0  0  0  0  0  0  0
    7.5213    1.6323    1.2026 H   0  0  0  0  0  0  0  0  0  0  0  0
    8.3988    0.1139    1.5649 H   0  0  0  0  0  0  0  0  0  0  0  0
    4.8119   -2.1511    0.9503 H   0  0  0  0  0  0  0  0  0  0  0  0
    2.3248   -2.1512    0.9597 H   0  0  0  0  0  0  0  0  0  0  0  0
   -3.2033   -0.0578    1.9553 H   0  0  0  0  0  0  0  0  0  0  0  0
   -5.2436   -1.2674    2.7485 H   0  0  0  0  0  0  0  0  0  0  0  0
   -4.2495   -4.4777    0.2799 H   0  0  0  0  0  0  0  0  0  0  0  0
   -2.1863   -3.2936   -0.5437 H   0  0  0  0  0  0  0  0  0  0  0  0
   -3.1962   -0.3585   -2.1699 H   0  0  0  0  0  0  0  0  0  0  0  0
   -5.1025    0.9513   -2.8486 H   0  0  0  0  0  0  0  0  0  0  0  0
   -3.9180    4.1664   -0.3078 H   0  0  0  0  0  0  0  0  0  0  0  0
   -1.9550    2.8394    0.4025 H   0  0  0  0  0  0  0  0  0  0  0  0
    0.3471    1.5885   -1.0877 H   0  0  0  0  0  0  0  0  0  0  0  0
    2.3763    1.5689   -1.0860 H   0  0  0  0  0  0  0  0  0  0  0  0
    4.8820    1.5567   -1.0889 H   0  0  0  0  0  0  0  0  0  0  0  0
  1  2  1  0
  2  3  2  0
  2  4  1  0
  4  5  2  0
  5  6  1  0
  6  7  2  0
  7  8  1  0
  8  9  2  0
  9 10  1  0
 10 11  1  0
 11 12  2  0
 12 13  1  0
 13 14  2  0
 14 15  1  0
 15 16  2  0
 10 17  2  0
 17 18  1  0
 18 19  2  0
 19 20  1  0
 20 21  2  0
 21 22  1  0
 21 23  1  0
 23 24  2  0
 17 25  1  0
  7 26  1  0
 26 27  2  0
 27  4  1  0
 25  8  1  0
 16 11  1  0
 24 18  1  0
  1 28  1  0
  1 29  1  0
  1 30  1  0
  5 31  1  0
  6 32  1  0
 12 33  1  0
 13 34  1  0
 15 35  1  0
 16 36  1  0
 19 37  1  0
 20 38  1  0
 23 39  1  0
 24 40  1  0
 25 41  1  0
 26 42  1  0
 27 43  1  0
M  END
$$$$
