@<TRIPOS>MOLECULE
*****
 55 59 0 0 0
SMALL
GASTEIGER

@<TRIPOS>ATOM
      1 C           8.9010    0.3896    0.3310 C.3     1  UNL1        0.0788
      2 O           7.9343    0.5606   -0.6892 O.3     1  UNL1       -0.4950
      3 C           6.5894    0.3299   -0.3510 C.ar    1  UNL1        0.1237
      4 C           5.5893    0.4761   -1.2913 C.ar    1  UNL1       -0.0190
      5 C           4.2646    0.2477   -0.9540 C.ar    1  UNL1       -0.0439
      6 C           3.9296   -0.1288    0.3262 C.ar    1  UNL1        0.0662
      7 C           2.7150   -0.4125    0.9138 C.ar    1  UNL1        0.1922
      8 N           1.4468   -0.3734    0.2705 N.ar    1  UNL1       -0.2413
      9 C           0.7960    0.7446   -0.1280 C.ar    1  UNL1        0.3362
     10 O           1.2673    1.8982    0.0382 O.2     1  UNL1       -0.2459
     11 N          -0.3785    0.3953   -0.6996 N.ar    1  UNL1       -0.2874
     12 C          -1.3505    1.2813   -1.2484 C.3     1  UNL1        0.0533
     13 C          -2.3716    1.7505   -0.2779 C.ar    1  UNL1       -0.0241
     14 C          -2.1688    2.8875    0.4846 C.ar    1  UNL1       -0.0553
     15 C          -3.0979    3.3436    1.3884 C.ar    1  UNL1       -0.0395
     16 C          -4.2791    2.6584    1.5557 C.ar    1  UNL1        0.0826
     17 CL         -5.5113    3.1795    2.6894 Cl      1  UNL1       -0.0798
     18 C          -4.5277    1.5179    0.8177 C.ar    1  UNL1        0.1402
     19 O          -5.7175    0.8293    0.9879 O.3     1  UNL1       -0.4765
     20 C          -6.0670   -0.3452    0.2941 C.3     1  UNL1        0.1931
     21 C          -5.0984   -1.4583    0.5167 C.3     1  UNL1       -0.0172
     22 C          -6.2392   -0.1112   -1.1551 C.2     1  UNL1        0.3456
     23 O          -6.5414   -1.0597   -1.9157 O.2     1  UNL1       -0.2468
     24 O          -6.0738    1.1453   -1.7026 O.3     1  UNL1       -0.4781
     25 C          -3.5735    1.0820   -0.0855 C.ar    1  UNL1       -0.0136
     26 C          -0.4655   -0.9445   -0.6602 C.ar    1  UNL1        0.0706
     27 C          -1.4089   -1.8653   -1.0809 C.ar    1  UNL1       -0.0360
     28 C          -1.2268   -3.2204   -0.9055 C.ar    1  UNL1       -0.0597
     29 C          -0.0746   -3.6611   -0.2956 C.ar    1  UNL1       -0.0597
     30 C           0.9026   -2.7917    0.1452 C.ar    1  UNL1       -0.0356
     31 C           0.6905   -1.4401   -0.0452 C.ar    1  UNL1        0.0765
     32 N           3.0004   -0.7231    2.1904 N.ar    1  UNL1       -0.0587
     33 O           4.2944   -0.6429    2.3965 O.2     1  UNL1       -0.3525
     34 C           4.9056   -0.2835    1.2888 C.ar    1  UNL1        0.1728
     35 C           6.2102   -0.0489    0.9203 C.ar    1  UNL1        0.0257
     36 H           9.9234    0.4623   -0.1024 H       1  UNL1        0.0660
     37 H           8.7962    1.1299    1.1481 H       1  UNL1        0.0660
     38 H           8.7745   -0.6650    0.6951 H       1  UNL1        0.0660
     39 H           5.8874    0.7735   -2.2896 H       1  UNL1        0.0654
     40 H           3.4798    0.3619   -1.6898 H       1  UNL1        0.0627
     41 H          -1.8442    0.8622   -2.1732 H       1  UNL1        0.0543
     42 H          -0.8254    2.2083   -1.6239 H       1  UNL1        0.0543
     43 H          -1.2314    3.4237    0.3460 H       1  UNL1        0.0621
     44 H          -2.9545    4.2304    1.9918 H       1  UNL1        0.0633
     45 H          -7.0741   -0.6822    0.6910 H       1  UNL1        0.0849
     46 H          -4.2323   -1.1839    1.1766 H       1  UNL1        0.0271
     47 H          -5.6216   -2.3131    1.0387 H       1  UNL1        0.0271
     48 H          -4.7656   -1.9192   -0.4485 H       1  UNL1        0.0271
     49 H          -6.4734    1.4216   -2.6078 H       1  UNL1        0.2952
     50 H          -3.7096    0.2059   -0.6888 H       1  UNL1        0.0658
     51 H          -2.3137   -1.5236   -1.5614 H       1  UNL1        0.0639
     52 H          -1.9541   -3.9529   -1.2284 H       1  UNL1        0.0618
     53 H           0.1030   -4.7103   -0.1412 H       1  UNL1        0.0618
     54 H           1.7904   -3.1671    0.6173 H       1  UNL1        0.0639
     55 H           6.9801   -0.1690    1.6724 H       1  UNL1        0.0692
@<TRIPOS>BOND
     1     1     2    1
     2     2     3    1
     3     3     4   ar
     4     4     5   ar
     5     5     6   ar
     6     6     7   ar
     7     7     8    1
     8     8     9   ar
     9     9    10    2
    10     9    11   ar
    11    11    12    1
    12    12    13    1
    13    13    14   ar
    14    14    15   ar
    15    15    16   ar
    16    16    17    1
    17    16    18   ar
    18    18    19    1
    19    19    20    1
    20    20    21    1
    21    20    22    1
    22    22    23    2
    23    22    24    1
    24    18    25   ar
    25    11    26   ar
    26    26    27   ar
    27    27    28   ar
    28    28    29   ar
    29    29    30   ar
    30    30    31   ar
    31     7    32   ar
    32    32    33   ar
    33    33    34   ar
    34    34    35   ar
    35    35     3   ar
    36    34     6   ar
    37    31     8   ar
    38    25    13   ar
    39    31    26   ar
    40     1    36    1
    41     1    37    1
    42     1    38    1
    43     4    39    1
    44     5    40    1
    45    12    41    1
    46    12    42    1
    47    14    43    1
    48    15    44    1
    49    20    45    1
    50    21    46    1
    51    21    47    1
    52    21    48    1
    53    24    49    1
    54    25    50    1
    55    27    51    1
    56    28    52    1
    57    29    53    1
    58    30    54    1
    59    35    55    1
