
     RDKit          3D

 55 59  0  0  0  0  0  0  0  0999 V2000
    8.9010    0.3896    0.3310 C   0  0  0  0  0  0  0  0  0  0  0  0
    7.9343    0.5606   -0.6892 O   0  0  0  0  0  0  0  0  0  0  0  0
    6.5894    0.3299   -0.3510 C   0  0  0  0  0  0  0  0  0  0  0  0
    5.5893    0.4761   -1.2913 C   0  0  0  0  0  0  0  0  0  0  0  0
    4.2646    0.2477   -0.9540 C   0  0  0  0  0  0  0  0  0  0  0  0
    3.9296   -0.1288    0.3262 C   0  0  0  0  0  0  0  0  0  0  0  0
    2.7150   -0.4125    0.9138 C   0  0  0  0  0  0  0  0  0  0  0  0
    1.4468   -0.3734    0.2705 N   0  0  0  0  0  0  0  0  0  0  0  0
    0.7960    0.7446   -0.1280 C   0  0  0  0  0  0  0  0  0  0  0  0
    1.2673    1.8982    0.0382 O   0  0  0  0  0  0  0  0  0  0  0  0
   -0.3785    0.3953   -0.6996 N   0  0  0  0  0  0  0  0  0  0  0  0
   -1.3505    1.2813   -1.2484 C   0  0  0  0  0  0  0  0  0  0  0  0
   -2.3716    1.7505   -0.2779 C   0  0  0  0  0  0  0  0  0  0  0  0
   -2.1688    2.8875    0.4846 C   0  0  0  0  0  0  0  0  0  0  0  0
   -3.0979    3.3436    1.3884 C   0  0  0  0  0  0  0  0  0  0  0  0
   -4.2791    2.6584    1.5557 C   0  0  0  0  0  0  0  0  0  0  0  0
   -5.5113    3.1795    2.6894 Cl  0  0  0  0  0  0  0  0  0  0  0  0
   -4.5277    1.5179    0.8177 C   0  0  0  0  0  0  0  0  0  0  0  0
   -5.7175    0.8293    0.9879 O   0  0  0  0  0  0  0  0  0  0  0  0
   -6.0670   -0.3452    0.2941 C   0  0  2  0  0  0  0  0  0  0  0  0
   -5.0984   -1.4583    0.5167 C   0  0  0  0  0  0  0  0  0  0  0  0
   -6.2392   -0.1112   -1.1551 C   0  0  0  0  0  0  0  0  0  0  0  0
   -6.5414   -1.0597   -1.9157 O   0  0  0  0  0  0  0  0  0  0  0  0
   -6.0738    1.1453   -1.7026 O   0  0  0  0  0  0  0  0  0  0  0  0
   -3.5735    1.0820   -0.0855 C   0  0  0  0  0  0  0  0  0  0  0  0
   -0.4655   -0.9445   -0.6602 C   0  0  0  0  0  0  0  0  0  0  0  0
   -1.4089   -1.8653   -1.0809 C   0  0  0  0  0  0  0  0  0  0  0  0
   -1.2268   -3.2204   -0.9055 C   0  0  0  0  0  0  0  0  0  0  0  0
   -0.0746   -3.6611   -0.2956 C   0  0  0  0  0  0  0  0  0  0  0  0
    0.9026   -2.7917    0.1452 C   0  0  0  0  0  0  0  0  0  0  0  0
    0.6905   -1.4401   -0.0452 C   0  0  0  0  0  0  0  0  0  0  0  0
    3.0004   -0.7231    2.1904 N   0  0  0  0  0  0  0  0  0  0  0  0
    4.2944   -0.6429    2.3965 O   0  0  0  0  0  0  0  0  0  0  0  0
    4.9056   -0.2835    1.2888 C   0  0  0  0  0  0  0  0  0  0  0  0
    6.2102   -0.0489    0.9203 C   0  0  0  0  0  0  0  0  0  0  0  0
    9.9234    0.4623   -0.1024 H   0  0  0  0  0  0  0  0  0  0  0  0
    8.7962    1.1299    1.1481 H   0  0  0  0  0  0  0  0  0  0  0  0
    8.7745   -0.6650    0.6951 H   0  0  0  0  0  0  0  0  0  0  0  0
    5.8874    0.7735   -2.2896 H   0  0  0  0  0  0  0  0  0  0  0  0
    3.4798    0.3619   -1.6898 H   0  0  0  0  0  0  0  0  0  0  0  0
   -1.8442    0.8622   -2.1732 H   0  0  0  0  0  0  0  0  0  0  0  0
   -0.8254    2.2083   -1.6239 H   0  0  0  0  0  0  0  0  0  0  0  0
   -1.2314    3.4237    0.3460 H   0  0  0  0  0  0  0  0  0  0  0  0
   -2.9545    4.2304    1.9918 H   0  0  0  0  0  0  0  0  0  0  0  0
   -7.0741   -0.6822    0.6910 H   0  0  0  0  0  0  0  0  0  0  0  0
   -4.2323   -1.1839    1.1766 H   0  0  0  0  0  0  0  0  0  0  0  0
   -5.6216   -2.3131    1.0387 H   0  0  0  0  0  0  0  0  0  0  0  0
   -4.7656   -1.9192   -0.4485 H   0  0  0  0  0  0  0  0  0  0  0  0
   -6.4734    1.4216   -2.6078 H   0  0  0  0  0  0  0  0  0  0  0  0
   -3.7096    0.2059   -0.6888 H   0  0  0  0  0  0  0  0  0  0  0  0
   -2.3137   -1.5236   -1.5614 H   0  0  0  0  0  0  0  0  0  0  0  0
   -1.9541   -3.9529   -1.2284 H   0  0  0  0  0  0  0  0  0  0  0  0
    0.1030   -4.7103   -0.1412 H   0  0  0  0  0  0  0  0  0  0  0  0
    1.7904   -3.1671    0.6173 H   0  0  0  0  0  0  0  0  0  0  0  0
    6.9801   -0.1690    1.6724 H   0  0  0  0  0  0  0  0  0  0  0  0
  1  2  1  0
  2  3  1  0
  3  4  2  0
  4  5  1  0
  5  6  2  0
  6  7  1  0
  7  8  1  0
  8  9  1  0
  9 10  2  0
  9 11  1  0
 11 12  1  0
 12 13  1  0
 13 14  2  0
 14 15  1  0
 15 16  2  0
 16 17  1  0
 16 18  1  0
 18 19  1  0
 19 20  1  0
 20 21  1  0
 20 22  1  0
 22 23  2  0
 22 24  1  0
 18 25  2  0
 11 26  1  0
 26 27  2  0
 27 28  1  0
 28 29  2  0
 29 30  1  0
 30 31  2  0
  7 32  2  0
 32 33  1  0
 33 34  1  0
 34 35  2  0
 35  3  1  0
 34  6  1  0
 31  8  1  0
 25 13  1  0
 31 26  1  0
  1 36  1  0
  1 37  1  0
  1 38  1  0
  4 39  1  0
  5 40  1  0
 12 41  1  0
 12 42  1  0
 14 43  1  0
 15 44  1  0
 20 45  1  1
 21 46  1  0
 21 47  1  0
 21 48  1  0
 24 49  1  0
 25 50  1  0
 27 51  1  0
 28 52  1  0
 29 53  1  0
 30 54  1  0
 35 55  1  0
M  END
$$$$
