@<TRIPOS>MOLECULE
*****
 30 32 0 0 0
SMALL
GASTEIGER

@<TRIPOS>ATOM
      1 O          -4.5368    1.4540    1.0325 O.2     1  UNL1       -0.2971
      2 C          -3.8179    0.5756    0.6314 C.2     1  UNL1        0.1379
      3 C          -3.6735    0.3428   -0.8167 C.3     1  UNL1        0.0101
      4 C          -2.4903   -0.5147   -1.1429 C.3     1  UNL1       -0.0207
      5 C          -1.3683   -0.3229   -0.1884 C.ar    1  UNL1       -0.0428
      6 C          -0.0517   -0.2659   -0.6598 C.ar    1  UNL1       -0.0505
      7 C           1.0017   -0.0887    0.2172 C.ar    1  UNL1       -0.0162
      8 C           2.3762   -0.0323   -0.3004 C.ar    1  UNL1        0.0002
      9 C           3.3601    0.7204    0.3084 C.ar    1  UNL1       -0.0512
     10 C           4.6304    0.7279   -0.2313 C.ar    1  UNL1       -0.0430
     11 C           4.9665    0.0114   -1.3618 C.ar    1  UNL1        0.0276
     12 N           3.9878   -0.7135   -1.9344 N.ar    1  UNL1       -0.2627
     13 C           2.7396   -0.7422   -1.4336 C.ar    1  UNL1        0.0352
     14 C           0.7115    0.0290    1.5628 C.ar    1  UNL1       -0.0537
     15 C          -0.5944   -0.0269    2.0368 C.ar    1  UNL1       -0.0573
     16 C          -1.6402   -0.2035    1.1585 C.ar    1  UNL1       -0.0371
     17 C          -3.0763   -0.2743    1.5811 C.3     1  UNL1        0.0313
     18 H          -3.5908    1.3230   -1.3682 H       1  UNL1        0.0345
     19 H          -4.6327   -0.0912   -1.1801 H       1  UNL1        0.0345
     20 H          -2.1227   -0.3006   -2.1880 H       1  UNL1        0.0317
     21 H          -2.8324   -1.5872   -1.1095 H       1  UNL1        0.0317
     22 H           0.1477   -0.3598   -1.7070 H       1  UNL1        0.0626
     23 H           3.1231    1.2995    1.2072 H       1  UNL1        0.0625
     24 H           5.3991    1.3249    0.2560 H       1  UNL1        0.0633
     25 H           5.9791    0.0335   -1.7695 H       1  UNL1        0.0829
     26 H           1.9493   -1.3344   -1.9054 H       1  UNL1        0.0836
     27 H           1.5463    0.1687    2.2496 H       1  UNL1        0.0624
     28 H          -0.8133    0.0659    3.0904 H       1  UNL1        0.0621
     29 H          -3.2178    0.0967    2.6162 H       1  UNL1        0.0390
     30 H          -3.4593   -1.3153    1.5725 H       1  UNL1        0.0390
@<TRIPOS>BOND
     1     1     2    2
     2     2     3    1
     3     3     4    1
     4     4     5    1
     5     5     6   ar
     6     6     7   ar
     7     7     8    1
     8     8     9   ar
     9     9    10   ar
    10    10    11   ar
    11    11    12   ar
    12    12    13   ar
    13     7    14   ar
    14    14    15   ar
    15    15    16   ar
    16    16    17    1
    17    17     2    1
    18    16     5   ar
    19    13     8   ar
    20     3    18    1
    21     3    19    1
    22     4    20    1
    23     4    21    1
    24     6    22    1
    25     9    23    1
    26    10    24    1
    27    11    25    1
    28    13    26    1
    29    14    27    1
    30    15    28    1
    31    17    29    1
    32    17    30    1
