
     RDKit          3D

 30 32  0  0  0  0  0  0  0  0999 V2000
   -4.5368    1.4540    1.0325 O   0  0  0  0  0  0  0  0  0  0  0  0
   -3.8179    0.5756    0.6314 C   0  0  0  0  0  0  0  0  0  0  0  0
   -3.6735    0.3428   -0.8167 C   0  0  0  0  0  0  0  0  0  0  0  0
   -2.4903   -0.5147   -1.1429 C   0  0  0  0  0  0  0  0  0  0  0  0
   -1.3683   -0.3229   -0.1884 C   0  0  0  0  0  0  0  0  0  0  0  0
   -0.0517   -0.2659   -0.6598 C   0  0  0  0  0  0  0  0  0  0  0  0
    1.0017   -0.0887    0.2172 C   0  0  0  0  0  0  0  0  0  0  0  0
    2.3762   -0.0323   -0.3004 C   0  0  0  0  0  0  0  0  0  0  0  0
    3.3601    0.7204    0.3084 C   0  0  0  0  0  0  0  0  0  0  0  0
    4.6304    0.7279   -0.2313 C   0  0  0  0  0  0  0  0  0  0  0  0
    4.9665    0.0114   -1.3618 C   0  0  0  0  0  0  0  0  0  0  0  0
    3.9878   -0.7135   -1.9344 N   0  0  0  0  0  0  0  0  0  0  0  0
    2.7396   -0.7422   -1.4336 C   0  0  0  0  0  0  0  0  0  0  0  0
    0.7115    0.0290    1.5628 C   0  0  0  0  0  0  0  0  0  0  0  0
   -0.5944   -0.0269    2.0368 C   0  0  0  0  0  0  0  0  0  0  0  0
   -1.6402   -0.2035    1.1585 C   0  0  0  0  0  0  0  0  0  0  0  0
   -3.0763   -0.2743    1.5811 C   0  0  0  0  0  0  0  0  0  0  0  0
   -3.5908    1.3230   -1.3682 H   0  0  0  0  0  0  0  0  0  0  0  0
   -4.6327   -0.0912   -1.1801 H   0  0  0  0  0  0  0  0  0  0  0  0
   -2.1227   -0.3006   -2.1880 H   0  0  0  0  0  0  0  0  0  0  0  0
   -2.8324   -1.5872   -1.1095 H   0  0  0  0  0  0  0  0  0  0  0  0
    0.1477   -0.3598   -1.7070 H   0  0  0  0  0  0  0  0  0  0  0  0
    3.1231    1.2995    1.2072 H   0  0  0  0  0  0  0  0  0  0  0  0
    5.3991    1.3249    0.2560 H   0  0  0  0  0  0  0  0  0  0  0  0
    5.9791    0.0335   -1.7695 H   0  0  0  0  0  0  0  0  0  0  0  0
    1.9493   -1.3344   -1.9054 H   0  0  0  0  0  0  0  0  0  0  0  0
    1.5463    0.1687    2.2496 H   0  0  0  0  0  0  0  0  0  0  0  0
   -0.8133    0.0659    3.0904 H   0  0  0  0  0  0  0  0  0  0  0  0
   -3.2178    0.0967    2.6162 H   0  0  0  0  0  0  0  0  0  0  0  0
   -3.4593   -1.3153    1.5725 H   0  0  0  0  0  0  0  0  0  0  0  0
  1  2  2  0
  2  3  1  0
  3  4  1  0
  4  5  1  0
  5  6  2  0
  6  7  1  0
  7  8  1  0
  8  9  2  0
  9 10  1  0
 10 11  2  0
 11 12  1  0
 12 13  2  0
  7 14  2  0
 14 15  1  0
 15 16  2  0
 16 17  1  0
 17  2  1  0
 16  5  1  0
 13  8  1  0
  3 18  1  0
  3 19  1  0
  4 20  1  0
  4 21  1  0
  6 22  1  0
  9 23  1  0
 10 24  1  0
 11 25  1  0
 13 26  1  0
 14 27  1  0
 15 28  1  0
 17 29  1  0
 17 30  1  0
M  END
$$$$
