@<TRIPOS>MOLECULE
*****
 114 116 0 0 0
SMALL
GASTEIGER

@<TRIPOS>ATOM
      1 C           8.2951    0.5189   -1.3729 C.3     1  UNL1       -0.0650
      2 C           7.3286   -0.1874   -0.4171 C.3     1  UNL1       -0.0512
      3 C           5.9361    0.2854   -0.6798 C.3     1  UNL1       -0.0171
      4 C           5.7531    1.7479   -0.4759 C.3     1  UNL1       -0.0603
      5 C           4.8634   -0.5668   -0.0102 C.3     1  UNL1        0.1019
      6 N           3.6071    0.0357   -0.3565 N.am    1  UNL1       -0.3037
      7 C           2.8251   -0.3956   -1.4899 C.2     1  UNL1        0.2161
      8 O           3.2519   -1.3196   -2.2114 O.2     1  UNL1       -0.2757
      9 C           1.5611    0.3173   -1.7009 C.3     1  UNL1        0.0517
     10 C           1.1015    0.1152   -3.1829 C.3     1  UNL1        0.0817
     11 O           2.2026    0.6790   -3.8794 O.3     1  UNL1       -0.3895
     12 C          -0.0541    1.0135   -3.4426 C.3     1  UNL1        0.0498
     13 C          -0.2632    1.5118   -4.8168 C.3     1  UNL1       -0.0292
     14 C          -0.5093    0.5596   -5.9205 C.3     1  UNL1       -0.0393
     15 C          -0.7256    1.4621   -7.1772 C.3     1  UNL1       -0.0502
     16 C          -1.4734    0.6017   -8.1602 C.3     1  UNL1       -0.0528
     17 C          -0.9851   -0.8372   -8.1059 C.3     1  UNL1       -0.0530
     18 C           0.4453   -0.9143   -7.6785 C.3     1  UNL1       -0.0528
     19 C           0.6748   -0.2900   -6.3110 C.3     1  UNL1       -0.0502
     20 N          -1.2914    0.5165   -2.8511 N.am    1  UNL1       -0.3087
     21 C          -1.7898    0.9475   -1.6023 C.2     1  UNL1        0.2305
     22 O          -1.1484    1.7890   -0.9425 O.2     1  UNL1       -0.2741
     23 C          -3.0751    0.3383   -1.1744 C.3     1  UNL1        0.0882
     24 N          -3.5525    0.7151    0.1015 N.am    1  UNL1       -0.3052
     25 C          -3.8117    2.0540    0.5372 C.2     1  UNL1        0.2342
     26 O          -3.5850    2.9957   -0.2638 O.2     1  UNL1       -0.2738
     27 C          -4.3352    2.2292    1.9171 C.3     1  UNL1        0.1064
     28 C          -5.4584    3.1995    2.0292 C.3     1  UNL1       -0.0005
     29 C          -6.6644    2.8867    1.2472 C.ar    1  UNL1       -0.0451
     30 C          -6.8039    3.3898   -0.0388 C.ar    1  UNL1       -0.0585
     31 C          -7.9195    3.1296   -0.8084 C.ar    1  UNL1       -0.0615
     32 C          -8.9485    2.3555   -0.3324 C.ar    1  UNL1       -0.0617
     33 C          -8.8297    1.8411    0.9542 C.ar    1  UNL1       -0.0615
     34 C          -7.7015    2.1102    1.7193 C.ar    1  UNL1       -0.0585
     35 N          -4.6216    0.9457    2.5026 N.am    1  UNL1       -0.2695
     36 C          -3.8889    0.3813    3.5822 C.2     1  UNL1        0.4014
     37 O          -2.9254    0.9746    4.1147 O.2     1  UNL1       -0.2264
     38 O          -4.2278   -0.8792    4.0885 O.3     1  UNL1       -0.4447
     39 C          -3.5524   -1.4853    5.1375 C.3     1  UNL1        0.1068
     40 C          -3.5616   -0.7394    6.4376 C.3     1  UNL1       -0.0253
     41 C          -2.0892   -1.7966    4.8050 C.3     1  UNL1       -0.0253
     42 C          -4.2785   -2.8229    5.3858 C.3     1  UNL1       -0.0253
     43 C           5.0110   -0.6353    1.4512 C.2     1  UNL1        0.2339
     44 O           6.0909   -1.1077    1.9734 O.2     1  UNL1       -0.2738
     45 N           4.0483   -0.2186    2.4069 N.am    1  UNL1       -0.3095
     46 C           4.2566   -0.3062    3.8404 C.3     1  UNL1        0.0416
     47 C           4.4761   -1.6844    4.3093 C.ar    1  UNL1        0.0272
     48 C           5.6924   -2.1819    4.6724 C.ar    1  UNL1        0.0375
     49 N           5.7994   -3.4553    5.0839 N.ar    1  UNL1       -0.2401
     50 C           4.7445   -4.3032    5.1639 C.ar    1  UNL1        0.1280
     51 C           4.9375   -5.7108    5.6190 C.3     1  UNL1       -0.0046
     52 N           3.5536   -3.8008    4.8048 N.ar    1  UNL1       -0.2177
     53 C           3.3799   -2.5464    4.3875 C.ar    1  UNL1        0.1243
     54 N           2.1143   -2.0206    4.0119 N.pl3   1  UNL1       -0.3428
     55 H           8.1552    0.1261   -2.3852 H       1  UNL1        0.0230
     56 H           9.3404    0.3330   -1.0083 H       1  UNL1        0.0230
     57 H           8.1375    1.6125   -1.3807 H       1  UNL1        0.0230
     58 H           7.4169   -1.2650   -0.6121 H       1  UNL1        0.0266
     59 H           7.6849    0.0014    0.6246 H       1  UNL1        0.0266
     60 H           5.7670    0.0913   -1.7907 H       1  UNL1        0.0321
     61 H           6.6771    2.2216   -0.0677 H       1  UNL1        0.0233
     62 H           5.4778    2.2639   -1.4045 H       1  UNL1        0.0233
     63 H           4.9589    2.0154    0.2607 H       1  UNL1        0.0233
     64 H           4.9426   -1.5711   -0.5088 H       1  UNL1        0.0597
     65 H           3.2633    0.8314    0.2467 H       1  UNL1        0.1495
     66 H           1.6318    1.4063   -1.5793 H       1  UNL1        0.0384
     67 H           0.7972   -0.0701   -1.0264 H       1  UNL1        0.0384
     68 H           0.9617   -0.9339   -3.2953 H       1  UNL1        0.0616
     69 H           2.2712    1.6205   -3.5159 H       1  UNL1        0.2099
     70 H           0.2094    1.9623   -2.8234 H       1  UNL1        0.0524
     71 H           0.5896    2.1773   -5.1634 H       1  UNL1        0.0287
     72 H          -1.1298    2.2551   -4.8180 H       1  UNL1        0.0287
     73 H          -1.4440   -0.0214   -5.8374 H       1  UNL1        0.0301
     74 H           0.2610    1.7332   -7.5559 H       1  UNL1        0.0268
     75 H          -1.3362    2.3214   -6.8395 H       1  UNL1        0.0268
     76 H          -1.3413    1.0066   -9.1813 H       1  UNL1        0.0265
     77 H          -2.5421    0.5960   -7.8821 H       1  UNL1        0.0265
     78 H          -1.0221   -1.2503   -9.1537 H       1  UNL1        0.0265
     79 H          -1.6626   -1.4665   -7.4960 H       1  UNL1        0.0265
     80 H           1.0658   -0.4030   -8.4703 H       1  UNL1        0.0265
     81 H           0.7562   -1.9853   -7.7011 H       1  UNL1        0.0265
     82 H           1.5256    0.4302   -6.4692 H       1  UNL1        0.0268
     83 H           0.9754   -1.0406   -5.5888 H       1  UNL1        0.0268
     84 H          -1.8111   -0.2102   -3.4374 H       1  UNL1        0.1491
     85 H          -2.9220   -0.7679   -1.2172 H       1  UNL1        0.0558
     86 H          -3.8710    0.5963   -1.9180 H       1  UNL1        0.0558
     87 H          -3.7359   -0.0730    0.8024 H       1  UNL1        0.1492
     88 H          -3.4726    2.6886    2.4938 H       1  UNL1        0.0599
     89 H          -5.7046    3.3323    3.1276 H       1  UNL1        0.0336
     90 H          -5.0329    4.2073    1.7360 H       1  UNL1        0.0336
     91 H          -6.0580    4.0155   -0.5040 H       1  UNL1        0.0620
     92 H          -8.0149    3.5301   -1.8096 H       1  UNL1        0.0618
     93 H          -9.8524    2.1253   -0.9121 H       1  UNL1        0.0618
     94 H          -9.6348    1.2422    1.3186 H       1  UNL1        0.0618
     95 H          -7.6493    1.6879    2.7118 H       1  UNL1        0.0620
     96 H          -5.4233    0.3609    2.1272 H       1  UNL1        0.1528
     97 H          -4.4125   -0.0208    6.4754 H       1  UNL1        0.0268
     98 H          -3.7623   -1.4468    7.2871 H       1  UNL1        0.0268
     99 H          -2.6199   -0.2313    6.6800 H       1  UNL1        0.0268
    100 H          -1.7234   -2.5280    5.5211 H       1  UNL1        0.0268
    101 H          -2.0317   -2.1256    3.7429 H       1  UNL1        0.0268
    102 H          -1.5388   -0.8348    4.9340 H       1  UNL1        0.0268
    103 H          -4.1010   -3.5516    4.5961 H       1  UNL1        0.0268
    104 H          -5.3848   -2.6146    5.3699 H       1  UNL1        0.0268
    105 H          -4.0376   -3.2321    6.3656 H       1  UNL1        0.0268
    106 H           3.1437    0.1657    2.0858 H       1  UNL1        0.1491
    107 H           3.4183    0.1506    4.3972 H       1  UNL1        0.0513
    108 H           5.1543    0.3347    4.0986 H       1  UNL1        0.0513
    109 H           6.5840   -1.5353    4.6273 H       1  UNL1        0.0834
    110 H           5.2605   -6.2730    4.7149 H       1  UNL1        0.0308
    111 H           5.7220   -5.7288    6.3814 H       1  UNL1        0.0308
    112 H           3.9428   -6.0827    5.9736 H       1  UNL1        0.0308
    113 H           1.8164   -1.1193    4.4230 H       1  UNL1        0.1437
    114 H           1.4853   -2.5022    3.3495 H       1  UNL1        0.1437
@<TRIPOS>BOND
     1     1     2    1
     2     2     3    1
     3     3     4    1
     4     3     5    1
     5     5     6    1
     6     6     7   am
     7     7     8    2
     8     7     9    1
     9     9    10    1
    10    10    11    1
    11    10    12    1
    12    12    13    1
    13    13    14    1
    14    14    15    1
    15    15    16    1
    16    16    17    1
    17    17    18    1
    18    18    19    1
    19    12    20    1
    20    20    21   am
    21    21    22    2
    22    21    23    1
    23    23    24    1
    24    24    25   am
    25    25    26    2
    26    25    27    1
    27    27    28    1
    28    28    29    1
    29    29    30   ar
    30    30    31   ar
    31    31    32   ar
    32    32    33   ar
    33    33    34   ar
    34    27    35    1
    35    35    36   am
    36    36    37    2
    37    36    38    1
    38    38    39    1
    39    39    40    1
    40    39    41    1
    41    39    42    1
    42     5    43    1
    43    43    44    2
    44    43    45   am
    45    45    46    1
    46    46    47    1
    47    47    48   ar
    48    48    49   ar
    49    49    50   ar
    50    50    51    1
    51    50    52   ar
    52    52    53   ar
    53    53    54    1
    54    19    14    1
    55    34    29   ar
    56    53    47   ar
    57     1    55    1
    58     1    56    1
    59     1    57    1
    60     2    58    1
    61     2    59    1
    62     3    60    1
    63     4    61    1
    64     4    62    1
    65     4    63    1
    66     5    64    1
    67     6    65    1
    68     9    66    1
    69     9    67    1
    70    10    68    1
    71    11    69    1
    72    12    70    1
    73    13    71    1
    74    13    72    1
    75    14    73    1
    76    15    74    1
    77    15    75    1
    78    16    76    1
    79    16    77    1
    80    17    78    1
    81    17    79    1
    82    18    80    1
    83    18    81    1
    84    19    82    1
    85    19    83    1
    86    20    84    1
    87    23    85    1
    88    23    86    1
    89    24    87    1
    90    27    88    1
    91    28    89    1
    92    28    90    1
    93    30    91    1
    94    31    92    1
    95    32    93    1
    96    33    94    1
    97    34    95    1
    98    35    96    1
    99    40    97    1
   100    40    98    1
   101    40    99    1
   102    41   100    1
   103    41   101    1
   104    41   102    1
   105    42   103    1
   106    42   104    1
   107    42   105    1
   108    45   106    1
   109    46   107    1
   110    46   108    1
   111    48   109    1
   112    51   110    1
   113    51   111    1
   114    51   112    1
   115    54   113    1
   116    54   114    1
