
     RDKit          3D

114116  0  0  0  0  0  0  0  0999 V2000
    8.2951    0.5189   -1.3729 C   0  0  0  0  0  0  0  0  0  0  0  0
    7.3286   -0.1874   -0.4171 C   0  0  0  0  0  0  0  0  0  0  0  0
    5.9361    0.2854   -0.6798 C   0  0  2  0  0  0  0  0  0  0  0  0
    5.7531    1.7479   -0.4759 C   0  0  0  0  0  0  0  0  0  0  0  0
    4.8634   -0.5668   -0.0102 C   0  0  2  0  0  0  0  0  0  0  0  0
    3.6071    0.0357   -0.3565 N   0  0  0  0  0  0  0  0  0  0  0  0
    2.8251   -0.3956   -1.4899 C   0  0  0  0  0  0  0  0  0  0  0  0
    3.2519   -1.3196   -2.2114 O   0  0  0  0  0  0  0  0  0  0  0  0
    1.5611    0.3173   -1.7009 C   0  0  0  0  0  0  0  0  0  0  0  0
    1.1015    0.1152   -3.1829 C   0  0  2  0  0  0  0  0  0  0  0  0
    2.2026    0.6790   -3.8794 O   0  0  0  0  0  0  0  0  0  0  0  0
   -0.0541    1.0135   -3.4426 C   0  0  1  0  0  0  0  0  0  0  0  0
   -0.2632    1.5118   -4.8168 C   0  0  0  0  0  0  0  0  0  0  0  0
   -0.5093    0.5596   -5.9205 C   0  0  0  0  0  0  0  0  0  0  0  0
   -0.7256    1.4621   -7.1772 C   0  0  0  0  0  0  0  0  0  0  0  0
   -1.4734    0.6017   -8.1602 C   0  0  0  0  0  0  0  0  0  0  0  0
   -0.9851   -0.8372   -8.1059 C   0  0  0  0  0  0  0  0  0  0  0  0
    0.4453   -0.9143   -7.6785 C   0  0  0  0  0  0  0  0  0  0  0  0
    0.6748   -0.2900   -6.3110 C   0  0  0  0  0  0  0  0  0  0  0  0
   -1.2914    0.5165   -2.8511 N   0  0  0  0  0  0  0  0  0  0  0  0
   -1.7898    0.9475   -1.6023 C   0  0  0  0  0  0  0  0  0  0  0  0
   -1.1484    1.7890   -0.9425 O   0  0  0  0  0  0  0  0  0  0  0  0
   -3.0751    0.3383   -1.1744 C   0  0  0  0  0  0  0  0  0  0  0  0
   -3.5525    0.7151    0.1015 N   0  0  0  0  0  0  0  0  0  0  0  0
   -3.8117    2.0540    0.5372 C   0  0  0  0  0  0  0  0  0  0  0  0
   -3.5850    2.9957   -0.2638 O   0  0  0  0  0  0  0  0  0  0  0  0
   -4.3352    2.2292    1.9171 C   0  0  1  0  0  0  0  0  0  0  0  0
   -5.4584    3.1995    2.0292 C   0  0  0  0  0  0  0  0  0  0  0  0
   -6.6644    2.8867    1.2472 C   0  0  0  0  0  0  0  0  0  0  0  0
   -6.8039    3.3898   -0.0388 C   0  0  0  0  0  0  0  0  0  0  0  0
   -7.9195    3.1296   -0.8084 C   0  0  0  0  0  0  0  0  0  0  0  0
   -8.9485    2.3555   -0.3324 C   0  0  0  0  0  0  0  0  0  0  0  0
   -8.8297    1.8411    0.9542 C   0  0  0  0  0  0  0  0  0  0  0  0
   -7.7015    2.1102    1.7193 C   0  0  0  0  0  0  0  0  0  0  0  0
   -4.6216    0.9457    2.5026 N   0  0  0  0  0  0  0  0  0  0  0  0
   -3.8889    0.3813    3.5822 C   0  0  0  0  0  0  0  0  0  0  0  0
   -2.9254    0.9746    4.1147 O   0  0  0  0  0  0  0  0  0  0  0  0
   -4.2278   -0.8792    4.0885 O   0  0  0  0  0  0  0  0  0  0  0  0
   -3.5524   -1.4853    5.1375 C   0  0  0  0  0  0  0  0  0  0  0  0
   -3.5616   -0.7394    6.4376 C   0  0  0  0  0  0  0  0  0  0  0  0
   -2.0892   -1.7966    4.8050 C   0  0  0  0  0  0  0  0  0  0  0  0
   -4.2785   -2.8229    5.3858 C   0  0  0  0  0  0  0  0  0  0  0  0
    5.0110   -0.6353    1.4512 C   0  0  0  0  0  0  0  0  0  0  0  0
    6.0909   -1.1077    1.9734 O   0  0  0  0  0  0  0  0  0  0  0  0
    4.0483   -0.2186    2.4069 N   0  0  0  0  0  0  0  0  0  0  0  0
    4.2566   -0.3062    3.8404 C   0  0  0  0  0  0  0  0  0  0  0  0
    4.4761   -1.6844    4.3093 C   0  0  0  0  0  0  0  0  0  0  0  0
    5.6924   -2.1819    4.6724 C   0  0  0  0  0  0  0  0  0  0  0  0
    5.7994   -3.4553    5.0839 N   0  0  0  0  0  0  0  0  0  0  0  0
    4.7445   -4.3032    5.1639 C   0  0  0  0  0  0  0  0  0  0  0  0
    4.9375   -5.7108    5.6190 C   0  0  0  0  0  0  0  0  0  0  0  0
    3.5536   -3.8008    4.8048 N   0  0  0  0  0  0  0  0  0  0  0  0
    3.3799   -2.5464    4.3875 C   0  0  0  0  0  0  0  0  0  0  0  0
    2.1143   -2.0206    4.0119 N   0  0  0  0  0  0  0  0  0  0  0  0
    8.1552    0.1261   -2.3852 H   0  0  0  0  0  0  0  0  0  0  0  0
    9.3404    0.3330   -1.0083 H   0  0  0  0  0  0  0  0  0  0  0  0
    8.1375    1.6125   -1.3807 H   0  0  0  0  0  0  0  0  0  0  0  0
    7.4169   -1.2650   -0.6121 H   0  0  0  0  0  0  0  0  0  0  0  0
    7.6849    0.0014    0.6246 H   0  0  0  0  0  0  0  0  0  0  0  0
    5.7670    0.0913   -1.7907 H   0  0  0  0  0  0  0  0  0  0  0  0
    6.6771    2.2216   -0.0677 H   0  0  0  0  0  0  0  0  0  0  0  0
    5.4778    2.2639   -1.4045 H   0  0  0  0  0  0  0  0  0  0  0  0
    4.9589    2.0154    0.2607 H   0  0  0  0  0  0  0  0  0  0  0  0
    4.9426   -1.5711   -0.5088 H   0  0  0  0  0  0  0  0  0  0  0  0
    3.2633    0.8314    0.2467 H   0  0  0  0  0  0  0  0  0  0  0  0
    1.6318    1.4063   -1.5793 H   0  0  0  0  0  0  0  0  0  0  0  0
    0.7972   -0.0701   -1.0264 H   0  0  0  0  0  0  0  0  0  0  0  0
    0.9617   -0.9339   -3.2953 H   0  0  0  0  0  0  0  0  0  0  0  0
    2.2712    1.6205   -3.5159 H   0  0  0  0  0  0  0  0  0  0  0  0
    0.2094    1.9623   -2.8234 H   0  0  0  0  0  0  0  0  0  0  0  0
    0.5896    2.1773   -5.1634 H   0  0  0  0  0  0  0  0  0  0  0  0
   -1.1298    2.2551   -4.8180 H   0  0  0  0  0  0  0  0  0  0  0  0
   -1.4440   -0.0214   -5.8374 H   0  0  0  0  0  0  0  0  0  0  0  0
    0.2610    1.7332   -7.5559 H   0  0  0  0  0  0  0  0  0  0  0  0
   -1.3362    2.3214   -6.8395 H   0  0  0  0  0  0  0  0  0  0  0  0
   -1.3413    1.0066   -9.1813 H   0  0  0  0  0  0  0  0  0  0  0  0
   -2.5421    0.5960   -7.8821 H   0  0  0  0  0  0  0  0  0  0  0  0
   -1.0221   -1.2503   -9.1537 H   0  0  0  0  0  0  0  0  0  0  0  0
   -1.6626   -1.4665   -7.4960 H   0  0  0  0  0  0  0  0  0  0  0  0
    1.0658   -0.4030   -8.4703 H   0  0  0  0  0  0  0  0  0  0  0  0
    0.7562   -1.9853   -7.7011 H   0  0  0  0  0  0  0  0  0  0  0  0
    1.5256    0.4302   -6.4692 H   0  0  0  0  0  0  0  0  0  0  0  0
    0.9754   -1.0406   -5.5888 H   0  0  0  0  0  0  0  0  0  0  0  0
   -1.8111   -0.2102   -3.4374 H   0  0  0  0  0  0  0  0  0  0  0  0
   -2.9220   -0.7679   -1.2172 H   0  0  0  0  0  0  0  0  0  0  0  0
   -3.8710    0.5963   -1.9180 H   0  0  0  0  0  0  0  0  0  0  0  0
   -3.7359   -0.0730    0.8024 H   0  0  0  0  0  0  0  0  0  0  0  0
   -3.4726    2.6886    2.4938 H   0  0  0  0  0  0  0  0  0  0  0  0
   -5.7046    3.3323    3.1276 H   0  0  0  0  0  0  0  0  0  0  0  0
   -5.0329    4.2073    1.7360 H   0  0  0  0  0  0  0  0  0  0  0  0
   -6.0580    4.0155   -0.5040 H   0  0  0  0  0  0  0  0  0  0  0  0
   -8.0149    3.5301   -1.8096 H   0  0  0  0  0  0  0  0  0  0  0  0
   -9.8524    2.1253   -0.9121 H   0  0  0  0  0  0  0  0  0  0  0  0
   -9.6348    1.2422    1.3186 H   0  0  0  0  0  0  0  0  0  0  0  0
   -7.6493    1.6879    2.7118 H   0  0  0  0  0  0  0  0  0  0  0  0
   -5.4233    0.3609    2.1272 H   0  0  0  0  0  0  0  0  0  0  0  0
   -4.4125   -0.0208    6.4754 H   0  0  0  0  0  0  0  0  0  0  0  0
   -3.7623   -1.4468    7.2871 H   0  0  0  0  0  0  0  0  0  0  0  0
   -2.6199   -0.2313    6.6800 H   0  0  0  0  0  0  0  0  0  0  0  0
   -1.7234   -2.5280    5.5211 H   0  0  0  0  0  0  0  0  0  0  0  0
   -2.0317   -2.1256    3.7429 H   0  0  0  0  0  0  0  0  0  0  0  0
   -1.5388   -0.8348    4.9340 H   0  0  0  0  0  0  0  0  0  0  0  0
   -4.1010   -3.5516    4.5961 H   0  0  0  0  0  0  0  0  0  0  0  0
   -5.3848   -2.6146    5.3699 H   0  0  0  0  0  0  0  0  0  0  0  0
   -4.0376   -3.2321    6.3656 H   0  0  0  0  0  0  0  0  0  0  0  0
    3.1437    0.1657    2.0858 H   0  0  0  0  0  0  0  0  0  0  0  0
    3.4183    0.1506    4.3972 H   0  0  0  0  0  0  0  0  0  0  0  0
    5.1543    0.3347    4.0986 H   0  0  0  0  0  0  0  0  0  0  0  0
    6.5840   -1.5353    4.6273 H   0  0  0  0  0  0  0  0  0  0  0  0
    5.2605   -6.2730    4.7149 H   0  0  0  0  0  0  0  0  0  0  0  0
    5.7220   -5.7288    6.3814 H   0  0  0  0  0  0  0  0  0  0  0  0
    3.9428   -6.0827    5.9736 H   0  0  0  0  0  0  0  0  0  0  0  0
    1.8164   -1.1193    4.4230 H   0  0  0  0  0  0  0  0  0  0  0  0
    1.4853   -2.5022    3.3495 H   0  0  0  0  0  0  0  0  0  0  0  0
  1  2  1  0
  2  3  1  0
  3  4  1  0
  3  5  1  0
  5  6  1  0
  6  7  1  0
  7  8  2  0
  7  9  1  0
  9 10  1  0
 10 11  1  0
 10 12  1  0
 12 13  1  0
 13 14  1  0
 14 15  1  0
 15 16  1  0
 16 17  1  0
 17 18  1  0
 18 19  1  0
 12 20  1  0
 20 21  1  0
 21 22  2  0
 21 23  1  0
 23 24  1  0
 24 25  1  0
 25 26  2  0
 25 27  1  0
 27 28  1  0
 28 29  1  0
 29 30  2  0
 30 31  1  0
 31 32  2  0
 32 33  1  0
 33 34  2  0
 27 35  1  0
 35 36  1  0
 36 37  2  0
 36 38  1  0
 38 39  1  0
 39 40  1  0
 39 41  1  0
 39 42  1  0
  5 43  1  0
 43 44  2  0
 43 45  1  0
 45 46  1  0
 46 47  1  0
 47 48  2  0
 48 49  1  0
 49 50  2  0
 50 51  1  0
 50 52  1  0
 52 53  2  0
 53 54  1  0
 19 14  1  0
 34 29  1  0
 53 47  1  0
  1 55  1  0
  1 56  1  0
  1 57  1  0
  2 58  1  0
  2 59  1  0
  3 60  1  6
  4 61  1  0
  4 62  1  0
  4 63  1  0
  5 64  1  6
  6 65  1  0
  9 66  1  0
  9 67  1  0
 10 68  1  6
 11 69  1  0
 12 70  1  1
 13 71  1  0
 13 72  1  0
 14 73  1  0
 15 74  1  0
 15 75  1  0
 16 76  1  0
 16 77  1  0
 17 78  1  0
 17 79  1  0
 18 80  1  0
 18 81  1  0
 19 82  1  0
 19 83  1  0
 20 84  1  0
 23 85  1  0
 23 86  1  0
 24 87  1  0
 27 88  1  1
 28 89  1  0
 28 90  1  0
 30 91  1  0
 31 92  1  0
 32 93  1  0
 33 94  1  0
 34 95  1  0
 35 96  1  0
 40 97  1  0
 40 98  1  0
 40 99  1  0
 41100  1  0
 41101  1  0
 41102  1  0
 42103  1  0
 42104  1  0
 42105  1  0
 45106  1  0
 46107  1  0
 46108  1  0
 48109  1  0
 51110  1  0
 51111  1  0
 51112  1  0
 54113  1  0
 54114  1  0
M  END
$$$$
