
     RDKit          3D

 49 49  0  0  0  0  0  0  0  0999 V2000
    4.3974   -1.0939    0.4754 C   0  0  1  0  0  0  0  0  0  0  0  0
    5.0717   -1.9322   -0.4835 N   0  0  0  0  0  0  0  0  0  0  0  0
    4.8180    0.3631    0.3517 C   0  0  1  0  0  0  0  0  0  0  0  0
    4.4943    0.8364   -0.9186 O   0  0  0  0  0  0  0  0  0  0  0  0
    3.9000    1.0833    1.3361 C   0  0  1  0  0  0  0  0  0  0  0  0
    4.3842    2.4651    1.6477 C   0  0  0  0  0  0  0  0  0  0  0  0
    4.5327    3.2518    0.5052 O   0  0  0  0  0  0  0  0  0  0  0  0
    2.6599    1.0948    0.7001 O   0  0  0  0  0  0  0  0  0  0  0  0
    2.0595   -0.1287    0.6602 C   0  0  1  0  0  0  0  0  0  0  0  0
    1.0926   -0.0791   -0.3698 O   0  0  0  0  0  0  0  0  0  0  0  0
   -0.1937   -0.1838    0.0900 C   0  0  0  0  0  0  0  0  0  0  0  0
   -1.1019   -0.1139   -1.1277 C   0  0  0  0  0  0  0  0  0  0  0  0
   -2.5794   -0.2264   -0.6780 C   0  0  0  0  0  0  0  0  0  0  0  0
   -3.3680   -0.1468   -1.9381 C   0  0  0  0  0  0  0  0  0  0  0  0
   -4.8312   -0.2618   -1.8525 C   0  0  0  0  0  0  0  0  0  0  0  0
   -5.6594    0.7210   -1.1630 C   0  0  0  0  0  0  0  0  0  0  0  0
   -5.4371    0.9310    0.2926 C   0  0  0  0  0  0  0  0  0  0  0  0
   -5.5903   -0.3882    1.0217 C   0  0  0  0  0  0  0  0  0  0  0  0
    2.9247   -1.3065    0.3956 C   0  0  2  0  0  0  0  0  0  0  0  0
    2.6009   -2.2944    1.3546 O   0  0  0  0  0  0  0  0  0  0  0  0
    4.7950   -1.4199    1.4774 H   0  0  0  0  0  0  0  0  0  0  0  0
    4.9448   -2.9177   -0.2363 H   0  0  0  0  0  0  0  0  0  0  0  0
    6.0222   -1.6247   -0.7247 H   0  0  0  0  0  0  0  0  0  0  0  0
    5.8750    0.4226    0.6093 H   0  0  0  0  0  0  0  0  0  0  0  0
    5.1188    1.4760   -1.2964 H   0  0  0  0  0  0  0  0  0  0  0  0
    3.9249    0.4820    2.2510 H   0  0  0  0  0  0  0  0  0  0  0  0
    5.3978    2.3626    2.0820 H   0  0  0  0  0  0  0  0  0  0  0  0
    3.7137    2.9013    2.3912 H   0  0  0  0  0  0  0  0  0  0  0  0
    4.9940    4.0878    0.7681 H   0  0  0  0  0  0  0  0  0  0  0  0
    1.4440   -0.2456    1.5974 H   0  0  0  0  0  0  0  0  0  0  0  0
   -0.4990    0.5255    0.8632 H   0  0  0  0  0  0  0  0  0  0  0  0
   -0.3100   -1.2103    0.4963 H   0  0  0  0  0  0  0  0  0  0  0  0
   -0.9655    0.7991   -1.7275 H   0  0  0  0  0  0  0  0  0  0  0  0
   -0.9404   -0.9802   -1.7999 H   0  0  0  0  0  0  0  0  0  0  0  0
   -2.6658   -1.2895   -0.3148 H   0  0  0  0  0  0  0  0  0  0  0  0
   -2.7638    0.5036    0.0860 H   0  0  0  0  0  0  0  0  0  0  0  0
   -3.0244   -1.0221   -2.6010 H   0  0  0  0  0  0  0  0  0  0  0  0
   -3.0465    0.7898   -2.4949 H   0  0  0  0  0  0  0  0  0  0  0  0
   -5.2314   -0.4381   -2.9273 H   0  0  0  0  0  0  0  0  0  0  0  0
   -5.0183   -1.3006   -1.3914 H   0  0  0  0  0  0  0  0  0  0  0  0
   -6.7457    0.3521   -1.2514 H   0  0  0  0  0  0  0  0  0  0  0  0
   -5.6815    1.7114   -1.7208 H   0  0  0  0  0  0  0  0  0  0  0  0
   -6.3659    1.5562    0.6337 H   0  0  0  0  0  0  0  0  0  0  0  0
   -4.5642    1.5237    0.5799 H   0  0  0  0  0  0  0  0  0  0  0  0
   -4.6263   -0.8377    1.2783 H   0  0  0  0  0  0  0  0  0  0  0  0
   -6.1041   -0.2084    2.0024 H   0  0  0  0  0  0  0  0  0  0  0  0
   -6.2214   -1.0510    0.3860 H   0  0  0  0  0  0  0  0  0  0  0  0
    2.6862   -1.8137   -0.5850 H   0  0  0  0  0  0  0  0  0  0  0  0
    1.6828   -2.6252    1.2696 H   0  0  0  0  0  0  0  0  0  0  0  0
  1  2  1  0
  1  3  1  0
  3  4  1  0
  3  5  1  0
  5  6  1  0
  6  7  1  0
  5  8  1  0
  8  9  1  0
  9 10  1  0
 10 11  1  0
 11 12  1  0
 12 13  1  0
 13 14  1  0
 14 15  1  0
 15 16  1  0
 16 17  1  0
 17 18  1  0
  9 19  1  0
 19 20  1  0
 19  1  1  0
  1 21  1  1
  2 22  1  0
  2 23  1  0
  3 24  1  1
  4 25  1  0
  5 26  1  1
  6 27  1  0
  6 28  1  0
  7 29  1  0
  9 30  1  1
 11 31  1  0
 11 32  1  0
 12 33  1  0
 12 34  1  0
 13 35  1  0
 13 36  1  0
 14 37  1  0
 14 38  1  0
 15 39  1  0
 15 40  1  0
 16 41  1  0
 16 42  1  0
 17 43  1  0
 17 44  1  0
 18 45  1  0
 18 46  1  0
 18 47  1  0
 19 48  1  6
 20 49  1  0
M  END
$$$$
