@<TRIPOS>MOLECULE
*****
 49 49 0 0 0
SMALL
GASTEIGER

@<TRIPOS>ATOM
      1 C           4.3974   -1.0939    0.4754 C.3     1  UNL1        0.0647
      2 N           5.0717   -1.9322   -0.4835 N.3     1  UNL1       -0.3229
      3 C           4.8180    0.3631    0.3517 C.3     1  UNL1        0.1012
      4 O           4.4943    0.8364   -0.9186 O.3     1  UNL1       -0.3875
      5 C           3.9000    1.0833    1.3361 C.3     1  UNL1        0.1120
      6 C           4.3842    2.4651    1.6477 C.3     1  UNL1        0.0730
      7 O           4.5327    3.2518    0.5052 O.3     1  UNL1       -0.3924
      8 O           2.6599    1.0948    0.7001 O.3     1  UNL1       -0.3406
      9 C           2.0595   -0.1287    0.6602 C.3     1  UNL1        0.1869
     10 O           1.0926   -0.0791   -0.3698 O.3     1  UNL1       -0.3487
     11 C          -0.1937   -0.1838    0.0900 C.3     1  UNL1        0.0508
     12 C          -1.1019   -0.1139   -1.1277 C.3     1  UNL1       -0.0294
     13 C          -2.5794   -0.2264   -0.6780 C.3     1  UNL1       -0.0510
     14 C          -3.3680   -0.1468   -1.9381 C.3     1  UNL1       -0.0530
     15 C          -4.8312   -0.2618   -1.8525 C.3     1  UNL1       -0.0531
     16 C          -5.6594    0.7210   -1.1630 C.3     1  UNL1       -0.0533
     17 C          -5.4371    0.9310    0.2926 C.3     1  UNL1       -0.0559
     18 C          -5.5903   -0.3882    1.0217 C.3     1  UNL1       -0.0653
     19 C           2.9247   -1.3065    0.3956 C.3     1  UNL1        0.1234
     20 O           2.6009   -2.2944    1.3546 O.3     1  UNL1       -0.3851
     21 H           4.7950   -1.4199    1.4774 H       1  UNL1        0.0512
     22 H           4.9448   -2.9177   -0.2363 H       1  UNL1        0.1186
     23 H           6.0222   -1.6247   -0.7247 H       1  UNL1        0.1186
     24 H           5.8750    0.4226    0.6093 H       1  UNL1        0.0636
     25 H           5.1188    1.4760   -1.2964 H       1  UNL1        0.2100
     26 H           3.9249    0.4820    2.2510 H       1  UNL1        0.0646
     27 H           5.3978    2.3626    2.0820 H       1  UNL1        0.0584
     28 H           3.7137    2.9013    2.3912 H       1  UNL1        0.0584
     29 H           4.9940    4.0878    0.7681 H       1  UNL1        0.2095
     30 H           1.4440   -0.2456    1.5974 H       1  UNL1        0.0937
     31 H          -0.4990    0.5255    0.8632 H       1  UNL1        0.0561
     32 H          -0.3100   -1.2103    0.4963 H       1  UNL1        0.0561
     33 H          -0.9655    0.7991   -1.7275 H       1  UNL1        0.0287
     34 H          -0.9404   -0.9802   -1.7999 H       1  UNL1        0.0287
     35 H          -2.6658   -1.2895   -0.3148 H       1  UNL1        0.0266
     36 H          -2.7638    0.5036    0.0860 H       1  UNL1        0.0266
     37 H          -3.0244   -1.0221   -2.6010 H       1  UNL1        0.0265
     38 H          -3.0465    0.7898   -2.4949 H       1  UNL1        0.0265
     39 H          -5.2314   -0.4381   -2.9273 H       1  UNL1        0.0265
     40 H          -5.0183   -1.3006   -1.3914 H       1  UNL1        0.0265
     41 H          -6.7457    0.3521   -1.2514 H       1  UNL1        0.0265
     42 H          -5.6815    1.7114   -1.7208 H       1  UNL1        0.0265
     43 H          -6.3659    1.5562    0.6337 H       1  UNL1        0.0263
     44 H          -4.5642    1.5237    0.5799 H       1  UNL1        0.0263
     45 H          -4.6263   -0.8377    1.2783 H       1  UNL1        0.0230
     46 H          -6.1041   -0.2084    2.0024 H       1  UNL1        0.0230
     47 H          -6.2214   -1.0510    0.3860 H       1  UNL1        0.0230
     48 H           2.6862   -1.8137   -0.5850 H       1  UNL1        0.0660
     49 H           1.6828   -2.6252    1.2696 H       1  UNL1        0.2101
@<TRIPOS>BOND
     1     1     2    1
     2     1     3    1
     3     3     4    1
     4     3     5    1
     5     5     6    1
     6     6     7    1
     7     5     8    1
     8     8     9    1
     9     9    10    1
    10    10    11    1
    11    11    12    1
    12    12    13    1
    13    13    14    1
    14    14    15    1
    15    15    16    1
    16    16    17    1
    17    17    18    1
    18     9    19    1
    19    19    20    1
    20    19     1    1
    21     1    21    1
    22     2    22    1
    23     2    23    1
    24     3    24    1
    25     4    25    1
    26     5    26    1
    27     6    27    1
    28     6    28    1
    29     7    29    1
    30     9    30    1
    31    11    31    1
    32    11    32    1
    33    12    33    1
    34    12    34    1
    35    13    35    1
    36    13    36    1
    37    14    37    1
    38    14    38    1
    39    15    39    1
    40    15    40    1
    41    16    41    1
    42    16    42    1
    43    17    43    1
    44    17    44    1
    45    18    45    1
    46    18    46    1
    47    18    47    1
    48    19    48    1
    49    20    49    1
