@<TRIPOS>MOLECULE
*****
 57 59 0 0 0
SMALL
GASTEIGER

@<TRIPOS>ATOM
      1 C          -6.6317   -0.8752    1.0559 C.3     1  UNL1        0.0029
      2 N          -5.6418   -1.6293    0.3636 N.am    1  UNL1       -0.3069
      3 C          -5.9589   -3.0516    0.1324 C.3     1  UNL1        0.0029
      4 C          -4.4293   -1.1153   -0.0879 C.2     1  UNL1        0.2251
      5 O          -3.6711   -1.9826   -0.6928 O.2     1  UNL1       -0.2747
      6 C          -3.9116    0.2601    0.0336 C.3     1  UNL1        0.0664
      7 C          -3.7817    0.6147    1.4907 C.3     1  UNL1       -0.0474
      8 C          -4.8884    1.2353   -0.6133 C.3     1  UNL1       -0.0474
      9 C          -2.5785    0.3881   -0.6501 C.ar    1  UNL1       -0.0308
     10 C          -2.4707   -0.1326   -1.9319 C.ar    1  UNL1       -0.0555
     11 C          -1.2679   -0.0453   -2.5941 C.ar    1  UNL1       -0.0357
     12 C          -0.1891    0.5516   -1.9898 C.ar    1  UNL1        0.0700
     13 C          -0.2600    1.0829   -0.7120 C.ar    1  UNL1        0.0881
     14 C          -1.4885    0.9849   -0.0557 C.ar    1  UNL1       -0.0301
     15 N           0.8090    1.6624   -0.1423 N.ar    1  UNL1       -0.2444
     16 C           2.0102    1.7556   -0.7907 C.ar    1  UNL1        0.1105
     17 C           3.1647    2.4030   -0.1182 C.3     1  UNL1        0.0201
     18 C           4.1579    1.4235    0.4008 C.ar    1  UNL1       -0.0414
     19 C           3.9631    0.8051    1.6429 C.ar    1  UNL1       -0.0574
     20 C           4.8769   -0.0962    2.1404 C.ar    1  UNL1       -0.0466
     21 C           6.0157   -0.3983    1.3943 C.ar    1  UNL1        0.0647
     22 C           7.0036   -1.3513    1.8964 C.2     1  UNL1        0.3081
     23 N           7.2231   -1.5266    3.1395 N.2     1  UNL1       -0.0994
     24 N           7.7446   -2.1083    0.9533 N.pl3   1  UNL1       -0.2466
     25 C           6.1783    0.2265    0.1770 C.ar    1  UNL1       -0.0466
     26 C           5.2796    1.1316   -0.3430 C.ar    1  UNL1       -0.0574
     27 C           2.0919    1.2331   -2.0563 C.ar    1  UNL1        0.2732
     28 O           3.1593    1.2781   -2.7210 O.2     1  UNL1       -0.2657
     29 N           1.0145    0.6576   -2.6106 N.ar    1  UNL1       -0.3083
     30 C           1.0877    0.1054   -3.9372 C.3     1  UNL1        0.0154
     31 H          -6.6248   -1.1173    2.1684 H       1  UNL1        0.0428
     32 H          -7.6378   -1.2851    0.6985 H       1  UNL1        0.0428
     33 H          -6.6263    0.2044    0.9471 H       1  UNL1        0.0428
     34 H          -6.9525   -3.1768   -0.3148 H       1  UNL1        0.0428
     35 H          -5.2155   -3.5173   -0.5302 H       1  UNL1        0.0428
     36 H          -5.9288   -3.5897    1.1059 H       1  UNL1        0.0428
     37 H          -2.8238    0.2177    1.9233 H       1  UNL1        0.0243
     38 H          -4.5801    0.0939    2.0562 H       1  UNL1        0.0243
     39 H          -3.9154    1.6905    1.6660 H       1  UNL1        0.0243
     40 H          -5.7051    0.7196   -1.1314 H       1  UNL1        0.0243
     41 H          -5.3239    1.9489    0.1108 H       1  UNL1        0.0243
     42 H          -4.3633    1.8235   -1.4144 H       1  UNL1        0.0243
     43 H          -3.3232   -0.6070   -2.4499 H       1  UNL1        0.0621
     44 H          -1.1576   -0.4398   -3.5849 H       1  UNL1        0.0639
     45 H          -1.5645    1.3973    0.9361 H       1  UNL1        0.0642
     46 H           3.6828    3.1336   -0.7703 H       1  UNL1        0.0378
     47 H           2.7812    2.9745    0.7557 H       1  UNL1        0.0378
     48 H           3.0785    1.0423    2.2181 H       1  UNL1        0.0621
     49 H           4.7798   -0.6033    3.0904 H       1  UNL1        0.0626
     50 H           6.7298   -1.0180    3.9050 H       1  UNL1        0.3633
     51 H           8.7506   -1.9061    0.7292 H       1  UNL1        0.2884
     52 H           7.3254   -2.9176    0.4239 H       1  UNL1        0.2884
     53 H           7.0716    0.0019   -0.4285 H       1  UNL1        0.0626
     54 H           5.4612    1.6067   -1.3205 H       1  UNL1        0.0621
     55 H           0.5465    0.7092   -4.6988 H       1  UNL1        0.0457
     56 H           2.1498    0.0980   -4.2544 H       1  UNL1        0.0457
     57 H           0.7746   -0.9708   -3.9535 H       1  UNL1        0.0457
@<TRIPOS>BOND
     1     1     2    1
     2     2     3    1
     3     2     4   am
     4     4     5    2
     5     4     6    1
     6     6     7    1
     7     6     8    1
     8     6     9    1
     9     9    10   ar
    10    10    11   ar
    11    11    12   ar
    12    12    13   ar
    13    13    14   ar
    14    13    15   ar
    15    15    16   ar
    16    16    17    1
    17    17    18    1
    18    18    19   ar
    19    19    20   ar
    20    20    21   ar
    21    21    22    1
    22    22    23    2
    23    22    24    1
    24    21    25   ar
    25    25    26   ar
    26    16    27   ar
    27    27    28    2
    28    27    29   ar
    29    29    30    1
    30    14     9   ar
    31    26    18   ar
    32    29    12   ar
    33     1    31    1
    34     1    32    1
    35     1    33    1
    36     3    34    1
    37     3    35    1
    38     3    36    1
    39     7    37    1
    40     7    38    1
    41     7    39    1
    42     8    40    1
    43     8    41    1
    44     8    42    1
    45    10    43    1
    46    11    44    1
    47    14    45    1
    48    17    46    1
    49    17    47    1
    50    19    48    1
    51    20    49    1
    52    23    50    1
    53    24    51    1
    54    24    52    1
    55    25    53    1
    56    26    54    1
    57    30    55    1
    58    30    56    1
    59    30    57    1
