
     RDKit          3D

 57 59  0  0  0  0  0  0  0  0999 V2000
   -6.6317   -0.8752    1.0559 C   0  0  0  0  0  0  0  0  0  0  0  0
   -5.6418   -1.6293    0.3636 N   0  0  0  0  0  0  0  0  0  0  0  0
   -5.9589   -3.0516    0.1324 C   0  0  0  0  0  0  0  0  0  0  0  0
   -4.4293   -1.1153   -0.0879 C   0  0  0  0  0  0  0  0  0  0  0  0
   -3.6711   -1.9826   -0.6928 O   0  0  0  0  0  0  0  0  0  0  0  0
   -3.9116    0.2601    0.0336 C   0  0  0  0  0  0  0  0  0  0  0  0
   -3.7817    0.6147    1.4907 C   0  0  0  0  0  0  0  0  0  0  0  0
   -4.8884    1.2353   -0.6133 C   0  0  0  0  0  0  0  0  0  0  0  0
   -2.5785    0.3881   -0.6501 C   0  0  0  0  0  0  0  0  0  0  0  0
   -2.4707   -0.1326   -1.9319 C   0  0  0  0  0  0  0  0  0  0  0  0
   -1.2679   -0.0453   -2.5941 C   0  0  0  0  0  0  0  0  0  0  0  0
   -0.1891    0.5516   -1.9898 C   0  0  0  0  0  0  0  0  0  0  0  0
   -0.2600    1.0829   -0.7120 C   0  0  0  0  0  0  0  0  0  0  0  0
   -1.4885    0.9849   -0.0557 C   0  0  0  0  0  0  0  0  0  0  0  0
    0.8090    1.6624   -0.1423 N   0  0  0  0  0  0  0  0  0  0  0  0
    2.0102    1.7556   -0.7907 C   0  0  0  0  0  0  0  0  0  0  0  0
    3.1647    2.4030   -0.1182 C   0  0  0  0  0  0  0  0  0  0  0  0
    4.1579    1.4235    0.4008 C   0  0  0  0  0  0  0  0  0  0  0  0
    3.9631    0.8051    1.6429 C   0  0  0  0  0  0  0  0  0  0  0  0
    4.8769   -0.0962    2.1404 C   0  0  0  0  0  0  0  0  0  0  0  0
    6.0157   -0.3983    1.3943 C   0  0  0  0  0  0  0  0  0  0  0  0
    7.0036   -1.3513    1.8964 C   0  0  0  0  0  0  0  0  0  0  0  0
    7.2231   -1.5266    3.1395 N   0  0  0  0  0  0  0  0  0  0  0  0
    7.7446   -2.1083    0.9533 N   0  0  0  0  0  0  0  0  0  0  0  0
    6.1783    0.2265    0.1770 C   0  0  0  0  0  0  0  0  0  0  0  0
    5.2796    1.1316   -0.3430 C   0  0  0  0  0  0  0  0  0  0  0  0
    2.0919    1.2331   -2.0563 C   0  0  0  0  0  0  0  0  0  0  0  0
    3.1593    1.2781   -2.7210 O   0  0  0  0  0  0  0  0  0  0  0  0
    1.0145    0.6576   -2.6106 N   0  0  0  0  0  0  0  0  0  0  0  0
    1.0877    0.1054   -3.9372 C   0  0  0  0  0  0  0  0  0  0  0  0
   -6.6248   -1.1173    2.1684 H   0  0  0  0  0  0  0  0  0  0  0  0
   -7.6378   -1.2851    0.6985 H   0  0  0  0  0  0  0  0  0  0  0  0
   -6.6263    0.2044    0.9471 H   0  0  0  0  0  0  0  0  0  0  0  0
   -6.9525   -3.1768   -0.3148 H   0  0  0  0  0  0  0  0  0  0  0  0
   -5.2155   -3.5173   -0.5302 H   0  0  0  0  0  0  0  0  0  0  0  0
   -5.9288   -3.5897    1.1059 H   0  0  0  0  0  0  0  0  0  0  0  0
   -2.8238    0.2177    1.9233 H   0  0  0  0  0  0  0  0  0  0  0  0
   -4.5801    0.0939    2.0562 H   0  0  0  0  0  0  0  0  0  0  0  0
   -3.9154    1.6905    1.6660 H   0  0  0  0  0  0  0  0  0  0  0  0
   -5.7051    0.7196   -1.1314 H   0  0  0  0  0  0  0  0  0  0  0  0
   -5.3239    1.9489    0.1108 H   0  0  0  0  0  0  0  0  0  0  0  0
   -4.3633    1.8235   -1.4144 H   0  0  0  0  0  0  0  0  0  0  0  0
   -3.3232   -0.6070   -2.4499 H   0  0  0  0  0  0  0  0  0  0  0  0
   -1.1576   -0.4398   -3.5849 H   0  0  0  0  0  0  0  0  0  0  0  0
   -1.5645    1.3973    0.9361 H   0  0  0  0  0  0  0  0  0  0  0  0
    3.6828    3.1336   -0.7703 H   0  0  0  0  0  0  0  0  0  0  0  0
    2.7812    2.9745    0.7557 H   0  0  0  0  0  0  0  0  0  0  0  0
    3.0785    1.0423    2.2181 H   0  0  0  0  0  0  0  0  0  0  0  0
    4.7798   -0.6033    3.0904 H   0  0  0  0  0  0  0  0  0  0  0  0
    6.7298   -1.0180    3.9050 H   0  0  0  0  0  0  0  0  0  0  0  0
    8.7506   -1.9061    0.7292 H   0  0  0  0  0  0  0  0  0  0  0  0
    7.3254   -2.9176    0.4239 H   0  0  0  0  0  0  0  0  0  0  0  0
    7.0716    0.0019   -0.4285 H   0  0  0  0  0  0  0  0  0  0  0  0
    5.4612    1.6067   -1.3205 H   0  0  0  0  0  0  0  0  0  0  0  0
    0.5465    0.7092   -4.6988 H   0  0  0  0  0  0  0  0  0  0  0  0
    2.1498    0.0980   -4.2544 H   0  0  0  0  0  0  0  0  0  0  0  0
    0.7746   -0.9708   -3.9535 H   0  0  0  0  0  0  0  0  0  0  0  0
  1  2  1  0
  2  3  1  0
  2  4  1  0
  4  5  2  0
  4  6  1  0
  6  7  1  0
  6  8  1  0
  6  9  1  0
  9 10  2  0
 10 11  1  0
 11 12  2  0
 12 13  1  0
 13 14  2  0
 13 15  1  0
 15 16  2  0
 16 17  1  0
 17 18  1  0
 18 19  2  0
 19 20  1  0
 20 21  2  0
 21 22  1  0
 22 23  2  3
 22 24  1  0
 21 25  1  0
 25 26  2  0
 16 27  1  0
 27 28  2  0
 27 29  1  0
 29 30  1  0
 14  9  1  0
 26 18  1  0
 29 12  1  0
  1 31  1  0
  1 32  1  0
  1 33  1  0
  3 34  1  0
  3 35  1  0
  3 36  1  0
  7 37  1  0
  7 38  1  0
  7 39  1  0
  8 40  1  0
  8 41  1  0
  8 42  1  0
 10 43  1  0
 11 44  1  0
 14 45  1  0
 17 46  1  0
 17 47  1  0
 19 48  1  0
 20 49  1  0
 23 50  1  0
 24 51  1  0
 24 52  1  0
 25 53  1  0
 26 54  1  0
 30 55  1  0
 30 56  1  0
 30 57  1  0
M  END
$$$$
