
     RDKit          3D

 54 56  0  0  0  0  0  0  0  0999 V2000
    5.4816    1.9915    0.6728 C   0  0  0  0  0  0  0  0  0  0  0  0
    4.9711    0.7523    0.2303 O   0  0  0  0  0  0  0  0  0  0  0  0
    3.6013    0.5660    0.2181 C   0  0  0  0  0  0  0  0  0  0  0  0
    2.7489    1.5816    0.6342 C   0  0  0  0  0  0  0  0  0  0  0  0
    1.3921    1.3855    0.6204 C   0  0  0  0  0  0  0  0  0  0  0  0
    0.9420    0.1240    0.1710 C   0  0  0  0  0  0  0  0  0  0  0  0
    1.7564   -0.8725   -0.2422 C   0  0  0  0  0  0  0  0  0  0  0  0
    1.2542   -2.0720   -0.6930 O   0  0  0  0  0  0  0  0  0  0  0  0
    0.9917   -2.3015   -2.0808 C   0  0  0  0  0  0  0  0  0  0  0  0
    3.1186   -0.6717   -0.2250 C   0  0  0  0  0  0  0  0  0  0  0  0
    4.0467   -1.6213   -0.6202 O   0  0  0  0  0  0  0  0  0  0  0  0
    4.6267   -2.5695    0.2233 C   0  0  0  0  0  0  0  0  0  0  0  0
   -0.4523   -0.3069    0.1591 C   0  0  0  0  0  0  0  0  0  0  0  0
   -0.3304   -1.6305    0.5227 C   0  0  0  0  0  0  0  0  0  0  0  0
   -1.2793   -2.5912    0.2564 C   0  0  0  0  0  0  0  0  0  0  0  0
   -2.5954   -2.4331   -0.1677 C   0  0  0  0  0  0  0  0  0  0  0  0
   -3.3793   -3.5983   -0.0860 O   0  0  0  0  0  0  0  0  0  0  0  0
   -2.8818   -4.8135    0.3816 C   0  0  0  0  0  0  0  0  0  0  0  0
   -3.2208   -1.3023   -0.6495 C   0  0  0  0  0  0  0  0  0  0  0  0
   -4.2905   -1.4825   -1.2866 O   0  0  0  0  0  0  0  0  0  0  0  0
   -2.8122    0.0353   -0.5182 C   0  0  0  0  0  0  0  0  0  0  0  0
   -1.5828    0.4766   -0.1184 C   0  0  0  0  0  0  0  0  0  0  0  0
   -1.6363    1.9512   -0.0038 C   0  0  1  0  0  0  0  0  0  0  0  0
   -2.9887    2.4059    0.1442 N   0  0  0  0  0  0  0  0  0  0  0  0
   -3.5385    3.2860   -0.8197 C   0  0  0  0  0  0  0  0  0  0  0  0
   -4.9140    3.8110   -0.7613 C   0  0  0  0  0  0  0  0  0  0  0  0
   -2.8111    3.6469   -1.7912 O   0  0  0  0  0  0  0  0  0  0  0  0
   -0.8498    2.3562    1.2345 C   0  0  0  0  0  0  0  0  0  0  0  0
    0.5996    2.5581    1.0456 C   0  0  0  0  0  0  0  0  0  0  0  0
    6.5711    1.8655    0.8395 H   0  0  0  0  0  0  0  0  0  0  0  0
    5.2645    2.8148   -0.0244 H   0  0  0  0  0  0  0  0  0  0  0  0
    5.0347    2.2809    1.6560 H   0  0  0  0  0  0  0  0  0  0  0  0
    3.1074    2.5393    0.9757 H   0  0  0  0  0  0  0  0  0  0  0  0
    1.8661   -2.0960   -2.6998 H   0  0  0  0  0  0  0  0  0  0  0  0
    0.6341   -3.3242   -2.1956 H   0  0  0  0  0  0  0  0  0  0  0  0
    0.1443   -1.6173   -2.3380 H   0  0  0  0  0  0  0  0  0  0  0  0
    5.3283   -3.1799   -0.3972 H   0  0  0  0  0  0  0  0  0  0  0  0
    5.2377   -2.1350    1.0363 H   0  0  0  0  0  0  0  0  0  0  0  0
    3.8795   -3.3101    0.6163 H   0  0  0  0  0  0  0  0  0  0  0  0
    0.5691   -1.8201    1.0655 H   0  0  0  0  0  0  0  0  0  0  0  0
   -0.9246   -3.6142    0.4072 H   0  0  0  0  0  0  0  0  0  0  0  0
   -2.4088   -4.6050    1.3858 H   0  0  0  0  0  0  0  0  0  0  0  0
   -2.0584   -5.1604   -0.2836 H   0  0  0  0  0  0  0  0  0  0  0  0
   -3.6352   -5.5748    0.5668 H   0  0  0  0  0  0  0  0  0  0  0  0
   -3.5286    0.7845   -0.7511 H   0  0  0  0  0  0  0  0  0  0  0  0
   -1.1591    2.3720   -0.9119 H   0  0  0  0  0  0  0  0  0  0  0  0
   -3.5584    2.0953    0.9461 H   0  0  0  0  0  0  0  0  0  0  0  0
   -5.5697    3.2231   -1.4569 H   0  0  0  0  0  0  0  0  0  0  0  0
   -5.3538    3.7224    0.2494 H   0  0  0  0  0  0  0  0  0  0  0  0
   -4.9199    4.8654   -1.1338 H   0  0  0  0  0  0  0  0  0  0  0  0
   -1.2855    3.3106    1.5920 H   0  0  0  0  0  0  0  0  0  0  0  0
   -1.0007    1.6213    2.0561 H   0  0  0  0  0  0  0  0  0  0  0  0
    0.7724    3.4111    0.3142 H   0  0  0  0  0  0  0  0  0  0  0  0
    1.0256    2.8698    2.0345 H   0  0  0  0  0  0  0  0  0  0  0  0
  1  2  1  0
  2  3  1  0
  3  4  2  0
  4  5  1  0
  5  6  2  0
  6  7  1  0
  7  8  1  0
  8  9  1  0
  7 10  2  0
 10 11  1  0
 11 12  1  0
  6 13  1  0
 13 14  2  0
 14 15  1  0
 15 16  2  0
 16 17  1  0
 17 18  1  0
 16 19  1  0
 19 20  2  0
 19 21  1  0
 21 22  2  0
 22 23  1  0
 23 24  1  0
 24 25  1  0
 25 26  1  0
 25 27  2  0
 23 28  1  0
 28 29  1  0
 10  3  1  0
 22 13  1  0
 29  5  1  0
  1 30  1  0
  1 31  1  0
  1 32  1  0
  4 33  1  0
  9 34  1  0
  9 35  1  0
  9 36  1  0
 12 37  1  0
 12 38  1  0
 12 39  1  0
 14 40  1  0
 15 41  1  0
 18 42  1  0
 18 43  1  0
 18 44  1  0
 21 45  1  0
 23 46  1  6
 24 47  1  0
 26 48  1  0
 26 49  1  0
 26 50  1  0
 28 51  1  0
 28 52  1  0
 29 53  1  0
 29 54  1  0
M  END
$$$$
