@<TRIPOS>MOLECULE
*****
 54 56 0 0 0
SMALL
GASTEIGER

@<TRIPOS>ATOM
      1 C           5.4816    1.9915    0.6728 C.3     1  UNL1        0.0790
      2 O           4.9711    0.7523    0.2303 O.3     1  UNL1       -0.4913
      3 C           3.6013    0.5660    0.2181 C.ar    1  UNL1        0.1655
      4 C           2.7489    1.5816    0.6342 C.ar    1  UNL1       -0.0123
      5 C           1.3921    1.3855    0.6204 C.ar    1  UNL1       -0.0324
      6 C           0.9420    0.1240    0.1710 C.ar    1  UNL1        0.0312
      7 C           1.7564   -0.8725   -0.2422 C.ar    1  UNL1        0.1731
      8 O           1.2542   -2.0720   -0.6930 O.3     1  UNL1       -0.4907
      9 C           0.9917   -2.3015   -2.0808 C.3     1  UNL1        0.0790
     10 C           3.1186   -0.6717   -0.2250 C.ar    1  UNL1        0.2041
     11 O           4.0467   -1.6213   -0.6202 O.3     1  UNL1       -0.4885
     12 C           4.6267   -2.5695    0.2233 C.3     1  UNL1        0.0791
     13 C          -0.4523   -0.3069    0.1591 C.ar    1  UNL1       -0.0088
     14 C          -0.3304   -1.6305    0.5227 C.ar    1  UNL1       -0.0500
     15 C          -1.2793   -2.5912    0.2564 C.ar    1  UNL1       -0.0155
     16 C          -2.5954   -2.4331   -0.1677 C.ar    1  UNL1        0.1665
     17 O          -3.3793   -3.5983   -0.0860 O.3     1  UNL1       -0.4913
     18 C          -2.8818   -4.8135    0.3816 C.3     1  UNL1        0.0790
     19 C          -3.2208   -1.3023   -0.6495 C.ar    1  UNL1        0.2206
     20 O          -4.2905   -1.4825   -1.2866 O.2     1  UNL1       -0.2840
     21 C          -2.8122    0.0353   -0.5182 C.ar    1  UNL1       -0.0057
     22 C          -1.5828    0.4766   -0.1184 C.ar    1  UNL1       -0.0157
     23 C          -1.6363    1.9512   -0.0038 C.3     1  UNL1        0.0493
     24 N          -2.9887    2.4059    0.1442 N.am    1  UNL1       -0.3087
     25 C          -3.5385    3.2860   -0.8197 C.2     1  UNL1        0.2104
     26 C          -4.9140    3.8110   -0.7613 C.3     1  UNL1        0.0122
     27 O          -2.8111    3.6469   -1.7912 O.2     1  UNL1       -0.2761
     28 C          -0.8498    2.3562    1.2345 C.3     1  UNL1       -0.0263
     29 C           0.5996    2.5581    1.0456 C.3     1  UNL1       -0.0249
     30 H           6.5711    1.8655    0.8395 H       1  UNL1        0.0660
     31 H           5.2645    2.8148   -0.0244 H       1  UNL1        0.0660
     32 H           5.0347    2.2809    1.6560 H       1  UNL1        0.0660
     33 H           3.1074    2.5393    0.9757 H       1  UNL1        0.0658
     34 H           1.8661   -2.0960   -2.6998 H       1  UNL1        0.0660
     35 H           0.6341   -3.3242   -2.1956 H       1  UNL1        0.0660
     36 H           0.1443   -1.6173   -2.3380 H       1  UNL1        0.0660
     37 H           5.3283   -3.1799   -0.3972 H       1  UNL1        0.0660
     38 H           5.2377   -2.1350    1.0363 H       1  UNL1        0.0660
     39 H           3.8795   -3.3101    0.6163 H       1  UNL1        0.0660
     40 H           0.5691   -1.8201    1.0655 H       1  UNL1        0.0625
     41 H          -0.9246   -3.6142    0.4072 H       1  UNL1        0.0655
     42 H          -2.4088   -4.6050    1.3858 H       1  UNL1        0.0660
     43 H          -2.0584   -5.1604   -0.2836 H       1  UNL1        0.0660
     44 H          -3.6352   -5.5748    0.5668 H       1  UNL1        0.0660
     45 H          -3.5286    0.7845   -0.7511 H       1  UNL1        0.0660
     46 H          -1.1591    2.3720   -0.9119 H       1  UNL1        0.0548
     47 H          -3.5584    2.0953    0.9461 H       1  UNL1        0.1493
     48 H          -5.5697    3.2231   -1.4569 H       1  UNL1        0.0322
     49 H          -5.3538    3.7224    0.2494 H       1  UNL1        0.0322
     50 H          -4.9199    4.8654   -1.1338 H       1  UNL1        0.0322
     51 H          -1.2855    3.3106    1.5920 H       1  UNL1        0.0289
     52 H          -1.0007    1.6213    2.0561 H       1  UNL1        0.0289
     53 H           0.7724    3.4111    0.3142 H       1  UNL1        0.0314
     54 H           1.0256    2.8698    2.0345 H       1  UNL1        0.0314
@<TRIPOS>BOND
     1     1     2    1
     2     2     3    1
     3     3     4   ar
     4     4     5   ar
     5     5     6   ar
     6     6     7   ar
     7     7     8    1
     8     8     9    1
     9     7    10   ar
    10    10    11    1
    11    11    12    1
    12     6    13    1
    13    13    14   ar
    14    14    15   ar
    15    15    16   ar
    16    16    17    1
    17    17    18    1
    18    16    19   ar
    19    19    20    2
    20    19    21   ar
    21    21    22   ar
    22    22    23    1
    23    23    24    1
    24    24    25   am
    25    25    26    1
    26    25    27    2
    27    23    28    1
    28    28    29    1
    29    10     3   ar
    30    22    13   ar
    31    29     5    1
    32     1    30    1
    33     1    31    1
    34     1    32    1
    35     4    33    1
    36     9    34    1
    37     9    35    1
    38     9    36    1
    39    12    37    1
    40    12    38    1
    41    12    39    1
    42    14    40    1
    43    15    41    1
    44    18    42    1
    45    18    43    1
    46    18    44    1
    47    21    45    1
    48    23    46    1
    49    24    47    1
    50    26    48    1
    51    26    49    1
    52    26    50    1
    53    28    51    1
    54    28    52    1
    55    29    53    1
    56    29    54    1
