
     RDKit          3D

 69 72  0  0  0  0  0  0  0  0999 V2000
    7.0744    2.7590    1.1074 C   0  0  0  0  0  0  0  0  0  0  0  0
    6.8224    1.3175    0.7946 C   0  0  0  0  0  0  0  0  0  0  0  0
    5.5295    0.8911    0.5425 C   0  0  0  0  0  0  0  0  0  0  0  0
    5.2507   -0.4364    0.2481 C   0  0  0  0  0  0  0  0  0  0  0  0
    3.8905   -0.8878   -0.0173 C   0  0  0  0  0  0  0  0  0  0  0  0
    3.5173   -2.1665    0.3173 C   0  0  0  0  0  0  0  0  0  0  0  0
    2.2507   -2.6580    0.0957 C   0  0  0  0  0  0  0  0  0  0  0  0
    1.2646   -1.8607   -0.4929 C   0  0  0  0  0  0  0  0  0  0  0  0
   -0.0927   -2.4402   -0.7123 C   0  0  2  0  0  0  0  0  0  0  0  0
   -0.2284   -3.0961   -2.0406 C   0  0  0  0  0  0  0  0  0  0  0  0
   -1.1301   -1.5308   -0.3595 N   0  0  0  0  0  0  0  0  0  0  0  0
   -1.5595   -0.3589   -1.0859 C   0  0  0  0  0  0  0  0  0  0  0  0
   -3.0918   -0.4012   -1.1005 C   0  0  0  0  0  0  0  0  0  0  0  0
   -3.5575   -0.0308    0.2603 C   0  0  2  0  0  0  0  0  0  0  0  0
   -4.9330   -0.5427    0.5571 C   0  0  0  0  0  0  0  0  0  0  0  0
   -6.0544   -0.0769   -0.2722 C   0  0  0  0  0  0  0  0  0  0  0  0
   -7.3219   -0.7688    0.3036 C   0  0  0  0  0  0  0  0  0  0  0  0
   -6.0523   -0.3658   -1.7264 C   0  0  0  0  0  0  0  0  0  0  0  0
   -6.2248    1.3129   -0.1217 O   0  0  0  0  0  0  0  0  0  0  0  0
   -3.4273    1.4105    0.5485 C   0  0  0  0  0  0  0  0  0  0  0  0
   -3.0350    2.3082   -0.4067 C   0  0  0  0  0  0  0  0  0  0  0  0
   -2.9097    3.6679   -0.1022 C   0  0  0  0  0  0  0  0  0  0  0  0
   -3.1837    4.1098    1.1707 C   0  0  0  0  0  0  0  0  0  0  0  0
   -3.5777    3.2041    2.1263 C   0  0  0  0  0  0  0  0  0  0  0  0
   -3.6960    1.8712    1.8120 C   0  0  0  0  0  0  0  0  0  0  0  0
   -2.7070   -0.6887    1.2266 O   0  0  0  0  0  0  0  0  0  0  0  0
   -1.9163   -1.7646    0.8399 C   0  0  0  0  0  0  0  0  0  0  0  0
   -1.8592   -2.8638    1.4513 O   0  0  0  0  0  0  0  0  0  0  0  0
    1.6334   -0.5846   -0.8281 C   0  0  0  0  0  0  0  0  0  0  0  0
    2.9270   -0.0944   -0.5976 C   0  0  0  0  0  0  0  0  0  0  0  0
    6.3350   -1.3029    0.2217 C   0  0  0  0  0  0  0  0  0  0  0  0
    7.6234   -0.8853    0.4716 C   0  0  0  0  0  0  0  0  0  0  0  0
    8.6105   -1.6950    0.4435 O   0  0  0  0  0  0  0  0  0  0  0  0
    7.8345    0.4178    0.7524 N   0  0  0  0  0  0  0  0  0  0  0  0
    9.1901    0.8650    1.0172 C   0  0  0  0  0  0  0  0  0  0  0  0
    7.8984    3.0688    0.4193 H   0  0  0  0  0  0  0  0  0  0  0  0
    7.3737    2.8115    2.1663 H   0  0  0  0  0  0  0  0  0  0  0  0
    6.1775    3.3386    0.8531 H   0  0  0  0  0  0  0  0  0  0  0  0
    4.6962    1.5785    0.5668 H   0  0  0  0  0  0  0  0  0  0  0  0
    4.2469   -2.8121    0.7726 H   0  0  0  0  0  0  0  0  0  0  0  0
    1.9653   -3.6614    0.3587 H   0  0  0  0  0  0  0  0  0  0  0  0
   -0.1347   -3.2829    0.0620 H   0  0  0  0  0  0  0  0  0  0  0  0
    0.5675   -3.8967   -2.0897 H   0  0  0  0  0  0  0  0  0  0  0  0
   -1.1845   -3.6503   -2.1178 H   0  0  0  0  0  0  0  0  0  0  0  0
   -0.0278   -2.4391   -2.8997 H   0  0  0  0  0  0  0  0  0  0  0  0
   -1.2571    0.5143   -0.4935 H   0  0  0  0  0  0  0  0  0  0  0  0
   -1.1687   -0.2737   -2.1117 H   0  0  0  0  0  0  0  0  0  0  0  0
   -3.3155   -1.4987   -1.2461 H   0  0  0  0  0  0  0  0  0  0  0  0
   -3.5020    0.1372   -1.9406 H   0  0  0  0  0  0  0  0  0  0  0  0
   -5.1395   -0.2504    1.6371 H   0  0  0  0  0  0  0  0  0  0  0  0
   -4.8415   -1.6571    0.6108 H   0  0  0  0  0  0  0  0  0  0  0  0
   -8.1716   -0.6289   -0.3777 H   0  0  0  0  0  0  0  0  0  0  0  0
   -7.5089   -0.3694    1.3222 H   0  0  0  0  0  0  0  0  0  0  0  0
   -7.0692   -1.8451    0.3508 H   0  0  0  0  0  0  0  0  0  0  0  0
   -5.7595    0.5190   -2.3672 H   0  0  0  0  0  0  0  0  0  0  0  0
   -7.1167   -0.6100   -2.0832 H   0  0  0  0  0  0  0  0  0  0  0  0
   -5.4595   -1.2250   -2.0638 H   0  0  0  0  0  0  0  0  0  0  0  0
   -7.0739    1.5587   -0.5840 H   0  0  0  0  0  0  0  0  0  0  0  0
   -2.8180    2.0266   -1.4035 H   0  0  0  0  0  0  0  0  0  0  0  0
   -2.6024    4.3490   -0.8624 H   0  0  0  0  0  0  0  0  0  0  0  0
   -3.0773    5.1722    1.3775 H   0  0  0  0  0  0  0  0  0  0  0  0
   -3.7875    3.5828    3.1238 H   0  0  0  0  0  0  0  0  0  0  0  0
   -4.0132    1.2000    2.6143 H   0  0  0  0  0  0  0  0  0  0  0  0
    0.9382    0.0909   -1.2842 H   0  0  0  0  0  0  0  0  0  0  0  0
    3.1999    0.9081   -0.8661 H   0  0  0  0  0  0  0  0  0  0  0  0
    6.1566   -2.3387   -0.0028 H   0  0  0  0  0  0  0  0  0  0  0  0
    9.7829    0.0808    1.5342 H   0  0  0  0  0  0  0  0  0  0  0  0
    9.1095    1.7093    1.7538 H   0  0  0  0  0  0  0  0  0  0  0  0
    9.7211    1.1594    0.0989 H   0  0  0  0  0  0  0  0  0  0  0  0
  1  2  1  0
  2  3  2  0
  3  4  1  0
  4  5  1  0
  5  6  2  0
  6  7  1  0
  7  8  2  0
  8  9  1  0
  9 10  1  0
  9 11  1  0
 11 12  1  0
 12 13  1  0
 13 14  1  0
 14 15  1  1
 15 16  1  0
 16 17  1  0
 16 18  1  0
 16 19  1  0
 14 20  1  0
 20 21  2  0
 21 22  1  0
 22 23  2  0
 23 24  1  0
 24 25  2  0
 14 26  1  0
 26 27  1  0
 27 28  2  0
  8 29  1  0
 29 30  2  0
  4 31  2  0
 31 32  1  0
 32 33  2  0
 32 34  1  0
 34 35  1  0
 34  2  1  0
 30  5  1  0
 27 11  1  0
 25 20  1  0
  1 36  1  0
  1 37  1  0
  1 38  1  0
  3 39  1  0
  6 40  1  0
  7 41  1  0
  9 42  1  1
 10 43  1  0
 10 44  1  0
 10 45  1  0
 12 46  1  0
 12 47  1  0
 13 48  1  0
 13 49  1  0
 15 50  1  0
 15 51  1  0
 17 52  1  0
 17 53  1  0
 17 54  1  0
 18 55  1  0
 18 56  1  0
 18 57  1  0
 19 58  1  0
 21 59  1  0
 22 60  1  0
 23 61  1  0
 24 62  1  0
 25 63  1  0
 29 64  1  0
 30 65  1  0
 31 66  1  0
 35 67  1  0
 35 68  1  0
 35 69  1  0
M  END
$$$$
