@<TRIPOS>MOLECULE
*****
 69 72 0 0 0
SMALL
GASTEIGER

@<TRIPOS>ATOM
      1 C           7.0744    2.7590    1.1074 C.3     1  UNL1       -0.0241
      2 C           6.8224    1.3175    0.7946 C.ar    1  UNL1        0.0192
      3 C           5.5295    0.8911    0.5425 C.ar    1  UNL1       -0.0346
      4 C           5.2507   -0.4364    0.2481 C.ar    1  UNL1       -0.0111
      5 C           3.8905   -0.8878   -0.0173 C.ar    1  UNL1       -0.0176
      6 C           3.5173   -2.1665    0.3173 C.ar    1  UNL1       -0.0537
      7 C           2.2507   -2.6580    0.0957 C.ar    1  UNL1       -0.0562
      8 C           1.2646   -1.8607   -0.4929 C.ar    1  UNL1       -0.0271
      9 C          -0.0927   -2.4402   -0.7123 C.3     1  UNL1        0.0515
     10 C          -0.2284   -3.0961   -2.0406 C.3     1  UNL1       -0.0421
     11 N          -1.1301   -1.5308   -0.3595 N.am    1  UNL1       -0.2605
     12 C          -1.5595   -0.3589   -1.0859 C.3     1  UNL1        0.0224
     13 C          -3.0918   -0.4012   -1.1005 C.3     1  UNL1        0.0076
     14 C          -3.5575   -0.0308    0.2603 C.3     1  UNL1        0.1440
     15 C          -4.9330   -0.5427    0.5571 C.3     1  UNL1        0.0199
     16 C          -6.0544   -0.0769   -0.2722 C.3     1  UNL1        0.0645
     17 C          -7.3219   -0.7688    0.3036 C.3     1  UNL1       -0.0362
     18 C          -6.0523   -0.3658   -1.7264 C.3     1  UNL1       -0.0362
     19 O          -6.2248    1.3129   -0.1217 O.3     1  UNL1       -0.3890
     20 C          -3.4273    1.4105    0.5485 C.ar    1  UNL1       -0.0040
     21 C          -3.0350    2.3082   -0.4067 C.ar    1  UNL1       -0.0548
     22 C          -2.9097    3.6679   -0.1022 C.ar    1  UNL1       -0.0614
     23 C          -3.1837    4.1098    1.1707 C.ar    1  UNL1       -0.0617
     24 C          -3.5777    3.2041    2.1263 C.ar    1  UNL1       -0.0614
     25 C          -3.6960    1.8712    1.8120 C.ar    1  UNL1       -0.0548
     26 O          -2.7070   -0.6887    1.2266 O.3     1  UNL1       -0.4387
     27 C          -1.9163   -1.7646    0.8399 C.2     1  UNL1        0.4042
     28 O          -1.8592   -2.8638    1.4513 O.2     1  UNL1       -0.2262
     29 C           1.6334   -0.5846   -0.8281 C.ar    1  UNL1       -0.0562
     30 C           2.9270   -0.0944   -0.5976 C.ar    1  UNL1       -0.0537
     31 C           6.3350   -1.3029    0.2217 C.ar    1  UNL1        0.0107
     32 C           7.6234   -0.8853    0.4716 C.ar    1  UNL1        0.2518
     33 O           8.6105   -1.6950    0.4435 O.2     1  UNL1       -0.2677
     34 N           7.8345    0.4178    0.7524 N.ar    1  UNL1       -0.3157
     35 C           9.1901    0.8650    1.0172 C.3     1  UNL1        0.0149
     36 H           7.8984    3.0688    0.4193 H       1  UNL1        0.0292
     37 H           7.3737    2.8115    2.1663 H       1  UNL1        0.0292
     38 H           6.1775    3.3386    0.8531 H       1  UNL1        0.0292
     39 H           4.6962    1.5785    0.5668 H       1  UNL1        0.0641
     40 H           4.2469   -2.8121    0.7726 H       1  UNL1        0.0624
     41 H           1.9653   -3.6614    0.3587 H       1  UNL1        0.0621
     42 H          -0.1347   -3.2829    0.0620 H       1  UNL1        0.0549
     43 H           0.5675   -3.8967   -2.0897 H       1  UNL1        0.0251
     44 H          -1.1845   -3.6503   -2.1178 H       1  UNL1        0.0251
     45 H          -0.0278   -2.4391   -2.8997 H       1  UNL1        0.0251
     46 H          -1.2571    0.5143   -0.4935 H       1  UNL1        0.0467
     47 H          -1.1687   -0.2737   -2.1117 H       1  UNL1        0.0467
     48 H          -3.3155   -1.4987   -1.2461 H       1  UNL1        0.0322
     49 H          -3.5020    0.1372   -1.9406 H       1  UNL1        0.0322
     50 H          -5.1395   -0.2504    1.6371 H       1  UNL1        0.0335
     51 H          -4.8415   -1.6571    0.6108 H       1  UNL1        0.0335
     52 H          -8.1716   -0.6289   -0.3777 H       1  UNL1        0.0257
     53 H          -7.5089   -0.3694    1.3222 H       1  UNL1        0.0257
     54 H          -7.0692   -1.8451    0.3508 H       1  UNL1        0.0257
     55 H          -5.7595    0.5190   -2.3672 H       1  UNL1        0.0257
     56 H          -7.1167   -0.6100   -2.0832 H       1  UNL1        0.0257
     57 H          -5.4595   -1.2250   -2.0638 H       1  UNL1        0.0257
     58 H          -7.0739    1.5587   -0.5840 H       1  UNL1        0.2101
     59 H          -2.8180    2.0266   -1.4035 H       1  UNL1        0.0622
     60 H          -2.6024    4.3490   -0.8624 H       1  UNL1        0.0618
     61 H          -3.0773    5.1722    1.3775 H       1  UNL1        0.0618
     62 H          -3.7875    3.5828    3.1238 H       1  UNL1        0.0618
     63 H          -4.0132    1.2000    2.6143 H       1  UNL1        0.0622
     64 H           0.9382    0.0909   -1.2842 H       1  UNL1        0.0621
     65 H           3.1999    0.9081   -0.8661 H       1  UNL1        0.0624
     66 H           6.1566   -2.3387   -0.0028 H       1  UNL1        0.0678
     67 H           9.7829    0.0808    1.5342 H       1  UNL1        0.0457
     68 H           9.1095    1.7093    1.7538 H       1  UNL1        0.0457
     69 H           9.7211    1.1594    0.0989 H       1  UNL1        0.0457
@<TRIPOS>BOND
     1     1     2    1
     2     2     3   ar
     3     3     4   ar
     4     4     5    1
     5     5     6   ar
     6     6     7   ar
     7     7     8   ar
     8     8     9    1
     9     9    10    1
    10     9    11    1
    11    11    12    1
    12    12    13    1
    13    13    14    1
    14    14    15    1
    15    15    16    1
    16    16    17    1
    17    16    18    1
    18    16    19    1
    19    14    20    1
    20    20    21   ar
    21    21    22   ar
    22    22    23   ar
    23    23    24   ar
    24    24    25   ar
    25    14    26    1
    26    26    27    1
    27    27    28    2
    28     8    29   ar
    29    29    30   ar
    30     4    31   ar
    31    31    32   ar
    32    32    33    2
    33    32    34   ar
    34    34    35    1
    35    34     2   ar
    36    30     5   ar
    37    27    11   am
    38    25    20   ar
    39     1    36    1
    40     1    37    1
    41     1    38    1
    42     3    39    1
    43     6    40    1
    44     7    41    1
    45     9    42    1
    46    10    43    1
    47    10    44    1
    48    10    45    1
    49    12    46    1
    50    12    47    1
    51    13    48    1
    52    13    49    1
    53    15    50    1
    54    15    51    1
    55    17    52    1
    56    17    53    1
    57    17    54    1
    58    18    55    1
    59    18    56    1
    60    18    57    1
    61    19    58    1
    62    21    59    1
    63    22    60    1
    64    23    61    1
    65    24    62    1
    66    25    63    1
    67    29    64    1
    68    30    65    1
    69    31    66    1
    70    35    67    1
    71    35    68    1
    72    35    69    1
