
     RDKit          3D

 41 42  0  0  0  0  0  0  0  0999 V2000
    4.7068   -2.6205   -2.5521 C   0  0  0  0  0  0  0  0  0  0  0  0
    4.0475   -1.6456   -2.1464 C   0  0  0  0  0  0  0  0  0  0  0  0
    3.2899   -0.4815   -1.6614 C   0  0  0  0  0  0  0  0  0  0  0  0
    2.7828    0.2459   -2.8082 N   0  0  0  0  0  0  0  0  0  0  0  0
    1.8357   -0.6350   -3.5242 C   0  0  0  0  0  0  0  0  0  0  0  0
    2.0753    1.4745   -2.4413 C   0  0  0  0  0  0  0  0  0  0  0  0
    0.9299    1.2852   -1.5647 C   0  0  0  0  0  0  0  0  0  0  0  0
   -0.3299    0.9650   -2.1039 C   0  0  0  0  0  0  0  0  0  0  0  0
   -1.3853    0.6622   -1.2999 C   0  0  0  0  0  0  0  0  0  0  0  0
   -1.3243    0.6396    0.0724 C   0  0  0  0  0  0  0  0  0  0  0  0
   -2.4374    0.3181    0.8228 O   0  0  0  0  0  0  0  0  0  0  0  0
   -2.8221   -0.8734    1.3215 C   0  0  0  0  0  0  0  0  0  0  0  0
   -2.0800   -1.8795    1.0928 O   0  0  0  0  0  0  0  0  0  0  0  0
   -4.0201   -0.9933    2.0800 N   0  0  0  0  0  0  0  0  0  0  0  0
   -4.8275    0.1947    2.2924 C   0  0  0  0  0  0  0  0  0  0  0  0
   -4.4373   -2.2613    2.6532 C   0  0  0  0  0  0  0  0  0  0  0  0
   -0.0829    0.9581    0.6492 C   0  0  0  0  0  0  0  0  0  0  0  0
    0.0109    0.9761    1.9645 N   0  0  0  0  0  0  0  0  0  0  0  0
    1.1681    1.3080    2.6266 C   0  0  0  0  0  0  0  0  0  0  0  0
    2.2507    1.6288    1.8267 C   0  0  0  0  0  0  0  0  0  0  0  0
    2.1796    1.6160    0.4784 C   0  0  0  0  0  0  0  0  0  0  0  0
    0.9950    1.2705   -0.2052 C   0  0  0  0  0  0  0  0  0  0  0  0
    5.2741   -3.4466   -2.8943 H   0  0  0  0  0  0  0  0  0  0  0  0
    2.5339   -0.7944   -0.9562 H   0  0  0  0  0  0  0  0  0  0  0  0
    4.0401    0.2083   -1.1793 H   0  0  0  0  0  0  0  0  0  0  0  0
    2.4405   -1.4774   -3.9617 H   0  0  0  0  0  0  0  0  0  0  0  0
    1.0635   -1.0218   -2.8455 H   0  0  0  0  0  0  0  0  0  0  0  0
    1.4173   -0.0654   -4.3647 H   0  0  0  0  0  0  0  0  0  0  0  0
    2.8033    2.2291   -2.1316 H   0  0  0  0  0  0  0  0  0  0  0  0
    1.6663    1.8699   -3.4189 H   0  0  0  0  0  0  0  0  0  0  0  0
   -0.3747    0.9753   -3.1895 H   0  0  0  0  0  0  0  0  0  0  0  0
   -2.3434    0.4255   -1.7601 H   0  0  0  0  0  0  0  0  0  0  0  0
   -4.3252    1.0540    1.7866 H   0  0  0  0  0  0  0  0  0  0  0  0
   -5.8325    0.1149    1.7898 H   0  0  0  0  0  0  0  0  0  0  0  0
   -4.9443    0.4403    3.3451 H   0  0  0  0  0  0  0  0  0  0  0  0
   -5.2425   -2.1375    3.3942 H   0  0  0  0  0  0  0  0  0  0  0  0
   -3.5412   -2.6313    3.2390 H   0  0  0  0  0  0  0  0  0  0  0  0
   -4.6388   -3.0150    1.8887 H   0  0  0  0  0  0  0  0  0  0  0  0
    1.2448    1.3102    3.6672 H   0  0  0  0  0  0  0  0  0  0  0  0
    3.2114    1.9004    2.2950 H   0  0  0  0  0  0  0  0  0  0  0  0
    3.0220    1.9091   -0.1604 H   0  0  0  0  0  0  0  0  0  0  0  0
  1  2  3  0
  2  3  1  0
  3  4  1  0
  4  5  1  0
  4  6  1  0
  6  7  1  0
  7  8  2  0
  8  9  1  0
  9 10  2  0
 10 11  1  0
 11 12  1  0
 12 13  2  0
 12 14  1  0
 14 15  1  0
 14 16  1  0
 10 17  1  0
 17 18  2  0
 18 19  1  0
 19 20  2  0
 20 21  1  0
 21 22  2  0
 22  7  1  0
 22 17  1  0
  1 23  1  0
  3 24  1  0
  3 25  1  0
  5 26  1  0
  5 27  1  0
  5 28  1  0
  6 29  1  0
  6 30  1  0
  8 31  1  0
  9 32  1  0
 15 33  1  0
 15 34  1  0
 15 35  1  0
 16 36  1  0
 16 37  1  0
 16 38  1  0
 19 39  1  0
 20 40  1  0
 21 41  1  0
M  END
$$$$
