@<TRIPOS>MOLECULE
*****
 41 42 0 0 0
SMALL
GASTEIGER

@<TRIPOS>ATOM
      1 C           4.7068   -2.6205   -2.5521 C.1     1  UNL1       -0.1179
      2 C           4.0475   -1.6456   -2.1464 C.1     1  UNL1       -0.0900
      3 C           3.2899   -0.4815   -1.6614 C.3     1  UNL1        0.0607
      4 N           2.7828    0.2459   -2.8082 N.3     1  UNL1       -0.2904
      5 C           1.8357   -0.6350   -3.5242 C.3     1  UNL1       -0.0115
      6 C           2.0753    1.4745   -2.4413 C.3     1  UNL1        0.0253
      7 C           0.9299    1.2852   -1.5647 C.ar    1  UNL1       -0.0240
      8 C          -0.3299    0.9650   -2.1039 C.ar    1  UNL1       -0.0532
      9 C          -1.3853    0.6622   -1.2999 C.ar    1  UNL1       -0.0167
     10 C          -1.3243    0.6396    0.0724 C.ar    1  UNL1        0.1590
     11 O          -2.4374    0.3181    0.8228 O.3     1  UNL1       -0.4092
     12 C          -2.8221   -0.8734    1.3215 C.2     1  UNL1        0.4078
     13 O          -2.0800   -1.8795    1.0928 O.2     1  UNL1       -0.2258
     14 N          -4.0201   -0.9933    2.0800 N.am    1  UNL1       -0.2732
     15 C          -4.8275    0.1947    2.2924 C.3     1  UNL1        0.0060
     16 C          -4.4373   -2.2613    2.6532 C.3     1  UNL1        0.0060
     17 C          -0.0829    0.9581    0.6492 C.ar    1  UNL1        0.1135
     18 N           0.0109    0.9761    1.9645 N.ar    1  UNL1       -0.2513
     19 C           1.1681    1.3080    2.6266 C.ar    1  UNL1        0.0284
     20 C           2.2507    1.6288    1.8267 C.ar    1  UNL1       -0.0430
     21 C           2.1796    1.6160    0.4784 C.ar    1  UNL1       -0.0507
     22 C           0.9950    1.2705   -0.2052 C.ar    1  UNL1        0.0084
     23 H           5.2741   -3.4466   -2.8943 H       1  UNL1        0.1228
     24 H           2.5339   -0.7944   -0.9562 H       1  UNL1        0.0563
     25 H           4.0401    0.2083   -1.1793 H       1  UNL1        0.0563
     26 H           2.4405   -1.4774   -3.9617 H       1  UNL1        0.0391
     27 H           1.0635   -1.0218   -2.8455 H       1  UNL1        0.0391
     28 H           1.4173   -0.0654   -4.3647 H       1  UNL1        0.0391
     29 H           2.8033    2.2291   -2.1316 H       1  UNL1        0.0476
     30 H           1.6663    1.8699   -3.4189 H       1  UNL1        0.0476
     31 H          -0.3747    0.9753   -3.1895 H       1  UNL1        0.0622
     32 H          -2.3434    0.4255   -1.7601 H       1  UNL1        0.0655
     33 H          -4.3252    1.0540    1.7866 H       1  UNL1        0.0429
     34 H          -5.8325    0.1149    1.7898 H       1  UNL1        0.0429
     35 H          -4.9443    0.4403    3.3451 H       1  UNL1        0.0429
     36 H          -5.2425   -2.1375    3.3942 H       1  UNL1        0.0429
     37 H          -3.5412   -2.6313    3.2390 H       1  UNL1        0.0429
     38 H          -4.6388   -3.0150    1.8887 H       1  UNL1        0.0429
     39 H           1.2448    1.3102    3.6672 H       1  UNL1        0.0830
     40 H           3.2114    1.9004    2.2950 H       1  UNL1        0.0633
     41 H           3.0220    1.9091   -0.1604 H       1  UNL1        0.0625
@<TRIPOS>BOND
     1     1     2    3
     2     2     3    1
     3     3     4    1
     4     4     5    1
     5     4     6    1
     6     6     7    1
     7     7     8   ar
     8     8     9   ar
     9     9    10   ar
    10    10    11    1
    11    11    12    1
    12    12    13    2
    13    12    14   am
    14    14    15    1
    15    14    16    1
    16    10    17   ar
    17    17    18   ar
    18    18    19   ar
    19    19    20   ar
    20    20    21   ar
    21    21    22   ar
    22    22     7   ar
    23    22    17   ar
    24     1    23    1
    25     3    24    1
    26     3    25    1
    27     5    26    1
    28     5    27    1
    29     5    28    1
    30     6    29    1
    31     6    30    1
    32     8    31    1
    33     9    32    1
    34    15    33    1
    35    15    34    1
    36    15    35    1
    37    16    36    1
    38    16    37    1
    39    16    38    1
    40    19    39    1
    41    20    40    1
    42    21    41    1
