@<TRIPOS>MOLECULE
*****
 67 68 0 0 0
SMALL
GASTEIGER

@<TRIPOS>ATOM
      1 C           8.6641   -1.0209   -1.1926 C.3     1  UNL1       -0.0653
      2 C           7.9489    0.2443   -0.7004 C.3     1  UNL1       -0.0559
      3 C           7.0472   -0.1378    0.4764 C.3     1  UNL1       -0.0533
      4 C           6.3398    1.0927    0.9855 C.3     1  UNL1       -0.0531
      5 C           5.4983    1.7080   -0.0493 C.3     1  UNL1       -0.0531
      6 C           4.4431    0.9503   -0.6988 C.3     1  UNL1       -0.0531
      7 C           3.2524    0.4201   -0.0011 C.3     1  UNL1       -0.0531
      8 C           3.4743   -0.5879    1.0266 C.3     1  UNL1       -0.0530
      9 C           2.3280   -1.1846    1.7493 C.3     1  UNL1       -0.0514
     10 C           1.3159   -2.0040    1.0980 C.3     1  UNL1       -0.0333
     11 C           0.4495   -1.4709    0.0291 C.3     1  UNL1        0.0432
     12 N          -0.3361   -0.3160    0.3778 N.ar    1  UNL1       -0.2514
     13 C          -1.5733   -0.3283    0.9093 C.ar    1  UNL1        0.0499
     14 C          -1.9315    0.9923    1.0703 C.ar    1  UNL1        0.0965
     15 C          -3.2449    1.4258    1.6370 C.3     1  UNL1        0.0421
     16 N          -4.2511    1.5925    0.6300 N.3     1  UNL1       -0.3031
     17 C          -4.5455    0.4125   -0.1215 C.3     1  UNL1        0.0652
     18 C          -5.0470   -0.7243    0.7258 C.3     1  UNL1        0.1013
     19 O          -4.9944   -1.8956   -0.0194 O.3     1  UNL1       -0.3875
     20 C          -6.4812   -0.4407    1.1914 C.3     1  UNL1        0.1108
     21 O          -6.3727    0.6923    2.0286 O.3     1  UNL1       -0.3865
     22 C          -7.4029   -0.1693    0.0488 C.3     1  UNL1        0.1117
     23 O          -8.4989   -1.0381    0.0574 O.3     1  UNL1       -0.3865
     24 C          -6.7002   -0.1595   -1.2808 C.3     1  UNL1        0.1108
     25 O          -7.6057    0.4137   -2.2036 O.3     1  UNL1       -0.3865
     26 C          -5.5265    0.7629   -1.2019 C.3     1  UNL1        0.1013
     27 O          -4.9257    0.7822   -2.4766 O.3     1  UNL1       -0.3875
     28 N          -0.9303    1.7652    0.6443 N.ar    1  UNL1       -0.1332
     29 N           0.0143    0.9466    0.2341 N.ar    1  UNL1       -0.0654
     30 H           9.0258   -0.8081   -2.2223 H       1  UNL1        0.0230
     31 H           9.5373   -1.2286   -0.5375 H       1  UNL1        0.0230
     32 H           7.9513   -1.8697   -1.2158 H       1  UNL1        0.0230
     33 H           8.7192    0.9697   -0.4017 H       1  UNL1        0.0263
     34 H           7.3387    0.6353   -1.5260 H       1  UNL1        0.0263
     35 H           6.3096   -0.8725    0.1527 H       1  UNL1        0.0265
     36 H           7.6505   -0.5809    1.2955 H       1  UNL1        0.0265
     37 H           7.1976    1.8970    1.1621 H       1  UNL1        0.0265
     38 H           5.8874    0.9462    1.9651 H       1  UNL1        0.0265
     39 H           6.2127    2.1494   -0.8408 H       1  UNL1        0.0265
     40 H           5.0546    2.6775    0.3881 H       1  UNL1        0.0265
     41 H           4.0204    1.6181   -1.5530 H       1  UNL1        0.0265
     42 H           4.9035    0.0585   -1.2683 H       1  UNL1        0.0265
     43 H           2.7474    1.3512    0.4819 H       1  UNL1        0.0265
     44 H           2.5391    0.0994   -0.8130 H       1  UNL1        0.0265
     45 H           4.0762   -1.4314    0.5759 H       1  UNL1        0.0265
     46 H           4.1156   -0.1192    1.8399 H       1  UNL1        0.0265
     47 H           1.7934   -0.3589    2.3286 H       1  UNL1        0.0266
     48 H           2.7987   -1.7718    2.6182 H       1  UNL1        0.0266
     49 H           1.8059   -2.9392    0.6414 H       1  UNL1        0.0283
     50 H           0.6993   -2.4813    1.9314 H       1  UNL1        0.0283
     51 H          -0.3478   -2.2806   -0.2231 H       1  UNL1        0.0509
     52 H           0.9563   -1.3184   -0.9126 H       1  UNL1        0.0509
     53 H          -2.1350   -1.2192    1.1459 H       1  UNL1        0.0845
     54 H          -3.4982    0.7346    2.4411 H       1  UNL1        0.0490
     55 H          -3.0542    2.4472    2.0689 H       1  UNL1        0.0490
     56 H          -3.9099    2.3184   -0.0394 H       1  UNL1        0.1227
     57 H          -3.6245    0.0243   -0.6476 H       1  UNL1        0.0513
     58 H          -4.4588   -0.8714    1.6305 H       1  UNL1        0.0636
     59 H          -4.2979   -2.4972    0.3152 H       1  UNL1        0.2100
     60 H          -6.7895   -1.2753    1.8364 H       1  UNL1        0.0646
     61 H          -6.6384    1.5195    1.5185 H       1  UNL1        0.2100
     62 H          -7.8440    0.8605    0.1781 H       1  UNL1        0.0647
     63 H          -8.8694   -0.9852    0.9896 H       1  UNL1        0.2100
     64 H          -6.4730   -1.1608   -1.6737 H       1  UNL1        0.0646
     65 H          -8.4545   -0.0942   -2.2308 H       1  UNL1        0.2100
     66 H          -5.9400    1.8028   -1.0641 H       1  UNL1        0.0636
     67 H          -5.4138    1.3306   -3.1105 H       1  UNL1        0.2100
@<TRIPOS>BOND
     1     1     2    1
     2     2     3    1
     3     3     4    1
     4     4     5    1
     5     5     6    1
     6     6     7    1
     7     7     8    1
     8     8     9    1
     9     9    10    1
    10    10    11    1
    11    11    12    1
    12    12    13   ar
    13    13    14   ar
    14    14    15    1
    15    15    16    1
    16    16    17    1
    17    17    18    1
    18    18    19    1
    19    18    20    1
    20    20    21    1
    21    20    22    1
    22    22    23    1
    23    22    24    1
    24    24    25    1
    25    24    26    1
    26    26    27    1
    27    14    28   ar
    28    28    29   ar
    29    29    12   ar
    30    26    17    1
    31     1    30    1
    32     1    31    1
    33     1    32    1
    34     2    33    1
    35     2    34    1
    36     3    35    1
    37     3    36    1
    38     4    37    1
    39     4    38    1
    40     5    39    1
    41     5    40    1
    42     6    41    1
    43     6    42    1
    44     7    43    1
    45     7    44    1
    46     8    45    1
    47     8    46    1
    48     9    47    1
    49     9    48    1
    50    10    49    1
    51    10    50    1
    52    11    51    1
    53    11    52    1
    54    13    53    1
    55    15    54    1
    56    15    55    1
    57    16    56    1
    58    17    57    1
    59    18    58    1
    60    19    59    1
    61    20    60    1
    62    21    61    1
    63    22    62    1
    64    23    63    1
    65    24    64    1
    66    25    65    1
    67    26    66    1
    68    27    67    1
