@<TRIPOS>MOLECULE
*****
 42 44 0 0 0
SMALL
GASTEIGER

@<TRIPOS>ATOM
      1 C          -6.5002   -0.2799   -0.9825 C.3     1  UNL1       -0.0370
      2 C          -5.5461    0.6467   -0.2909 C.ar    1  UNL1       -0.0143
      3 C          -5.8411    1.9801   -0.0943 C.ar    1  UNL1       -0.0534
      4 C          -4.9810    2.8417    0.5382 C.ar    1  UNL1       -0.0253
      5 C          -3.7954    2.3465    0.9816 C.ar    1  UNL1        0.1386
      6 F          -2.9046    3.1462    1.6128 F       1  UNL1       -0.2046
      7 C          -3.4485    1.0029    0.8060 C.ar    1  UNL1        0.1117
      8 C          -2.2236    0.4756    1.3519 C.2     1  UNL1        0.2870
      9 O          -1.9148    0.7339    2.5611 O.2     1  UNL1       -0.2649
     10 N          -1.3553   -0.3224    0.5651 N.ar    1  UNL1       -0.1611
     11 N          -0.3026   -0.9800    1.0603 N.ar    1  UNL1       -0.1245
     12 C           0.3801   -1.5688    0.0821 C.ar    1  UNL1        0.2407
     13 N           1.5573   -2.3708    0.1866 N.pl3   1  UNL1       -0.2824
     14 C           2.8280   -1.7398    0.2949 C.ar    1  UNL1        0.0337
     15 C           2.9353   -0.3683    0.3718 C.ar    1  UNL1       -0.0386
     16 C           4.1615    0.2792    0.4853 C.ar    1  UNL1       -0.0336
     17 C           5.3272   -0.4399    0.5252 C.ar    1  UNL1        0.1051
     18 S           6.9125    0.2841    0.6887 S.O2    1  UNL1        0.0559
     19 N           7.5736    0.7798   -0.8200 N.3     1  UNL1       -0.2035
     20 O           6.8332    1.4497    1.6102 O.2     1  UNL1       -0.1533
     21 O           7.8605   -0.7797    1.2313 O.2     1  UNL1       -0.1533
     22 C           5.2254   -1.8135    0.4481 C.ar    1  UNL1       -0.0336
     23 C           4.0027   -2.4612    0.3347 C.ar    1  UNL1       -0.0386
     24 N          -0.2704   -1.2656   -1.0507 N.ar    1  UNL1       -0.1798
     25 C          -1.3451   -0.4919   -0.7481 C.ar    1  UNL1        0.2200
     26 N          -2.2379    0.0618   -1.7187 N.pl3   1  UNL1       -0.3273
     27 C          -4.3330    0.1643    0.1705 C.ar    1  UNL1        0.1414
     28 F          -4.1317   -1.1815    0.0126 F       1  UNL1       -0.2043
     29 H          -7.5217    0.1350   -0.9400 H       1  UNL1        0.0278
     30 H          -6.4244   -1.2781   -0.4866 H       1  UNL1        0.0278
     31 H          -6.1655   -0.3967   -2.0300 H       1  UNL1        0.0278
     32 H          -6.7918    2.3792   -0.4511 H       1  UNL1        0.0622
     33 H          -5.2657    3.8927    0.6695 H       1  UNL1        0.0646
     34 H           1.4567   -3.4027    0.1793 H       1  UNL1        0.1551
     35 H           2.0033    0.1963    0.3394 H       1  UNL1        0.0637
     36 H           4.2182    1.3467    0.5430 H       1  UNL1        0.0638
     37 H           6.8926    0.7873   -1.5963 H       1  UNL1        0.1442
     38 H           8.1486    1.6479   -0.7542 H       1  UNL1        0.1442
     39 H           6.1343   -2.3940    0.4780 H       1  UNL1        0.0638
     40 H           3.9301   -3.5366    0.2745 H       1  UNL1        0.0637
     41 H          -2.7921   -0.6051   -2.2888 H       1  UNL1        0.1452
     42 H          -2.2885    1.0989   -1.8045 H       1  UNL1        0.1452
@<TRIPOS>BOND
     1     1     2    1
     2     2     3   ar
     3     3     4   ar
     4     4     5   ar
     5     5     6    1
     6     5     7   ar
     7     7     8    1
     8     8     9    2
     9     8    10   am
    10    10    11   ar
    11    11    12   ar
    12    12    13    1
    13    13    14    1
    14    14    15   ar
    15    15    16   ar
    16    16    17   ar
    17    17    18    1
    18    18    19    1
    19    18    20    2
    20    18    21    2
    21    17    22   ar
    22    22    23   ar
    23    12    24   ar
    24    24    25   ar
    25    25    26    1
    26     7    27   ar
    27    27    28    1
    28    27     2   ar
    29    25    10   ar
    30    23    14   ar
    31     1    29    1
    32     1    30    1
    33     1    31    1
    34     3    32    1
    35     4    33    1
    36    13    34    1
    37    15    35    1
    38    16    36    1
    39    19    37    1
    40    19    38    1
    41    22    39    1
    42    23    40    1
    43    26    41    1
    44    26    42    1
