@<TRIPOS>MOLECULE
*****
 60 61 0 0 0
SMALL
GASTEIGER

@<TRIPOS>ATOM
      1 C           1.8477    1.0271   -0.6834 C.3     1  UNL1        0.0900
      2 C           1.5613   -0.2627    0.0947 C.3     1  UNL1        0.0429
      3 P           0.2334   -1.1861   -0.6618 P.3     1  UNL1        0.2232
      4 O           0.8069   -2.3817   -1.7270 O.3     1  UNL1       -0.3424
      5 O          -0.5336   -0.2036   -1.5541 O.2     1  UNL1       -0.2891
      6 C          -0.9795   -1.8351    0.5064 C.3     1  UNL1        0.1048
      7 N          -2.2235   -2.0343   -0.2121 N.am    1  UNL1       -0.2691
      8 C          -3.4130   -1.2862    0.0801 C.2     1  UNL1        0.4012
      9 O          -3.4595   -0.4229    0.9607 O.2     1  UNL1       -0.2265
     10 O          -4.5112   -1.5970   -0.6935 O.3     1  UNL1       -0.4456
     11 C          -5.7825   -1.0228   -0.6170 C.3     1  UNL1        0.1191
     12 C          -5.8233    0.4356   -0.8645 C.ar    1  UNL1       -0.0103
     13 C          -5.9559    0.8006   -2.2100 C.ar    1  UNL1       -0.0554
     14 C          -6.0180    2.1135   -2.6277 C.ar    1  UNL1       -0.0614
     15 C          -5.9427    3.0551   -1.6489 C.ar    1  UNL1       -0.0617
     16 C          -5.8126    2.7923   -0.3102 C.ar    1  UNL1       -0.0614
     17 C          -5.7576    1.4764    0.0327 C.ar    1  UNL1       -0.0554
     18 C          -0.5175   -3.1099    1.1809 C.3     1  UNL1       -0.0192
     19 C          -0.2457   -4.2192    0.1983 C.3     1  UNL1       -0.0605
     20 C           0.7690   -2.8372    1.9281 C.3     1  UNL1       -0.0605
     21 C           2.2423    0.7518   -2.0887 C.2     1  UNL1        0.3127
     22 O           3.3751    0.0269   -2.3727 O.3     1  UNL1       -0.4802
     23 O           1.6197    1.1293   -3.1227 O.2     1  UNL1       -0.2503
     24 C           2.9472    1.7898   -0.0363 C.ar    1  UNL1       -0.0329
     25 C           4.2250    1.2814    0.0811 C.ar    1  UNL1       -0.0534
     26 C           5.3020    1.9130    0.6620 C.ar    1  UNL1       -0.0335
     27 C           6.6431    1.2601    0.7308 C.3     1  UNL1        0.0186
     28 N           6.7829    0.4904    1.9513 N.3     1  UNL1       -0.3261
     29 C           5.0797    3.1776    1.1762 C.ar    1  UNL1       -0.0573
     30 C           3.8195    3.7558    1.0953 C.ar    1  UNL1       -0.0612
     31 C           2.7741    3.0515    0.4901 C.ar    1  UNL1       -0.0578
     32 H           0.9313    1.6440   -0.6265 H       1  UNL1        0.0467
     33 H           1.3899    0.0670    1.1267 H       1  UNL1        0.0376
     34 H           2.4873   -0.9085    0.0852 H       1  UNL1        0.0376
     35 H           0.0250   -2.6154   -2.3129 H       1  UNL1        0.2177
     36 H          -1.1632   -1.0301    1.2469 H       1  UNL1        0.0604
     37 H          -2.2133   -2.7594   -0.9653 H       1  UNL1        0.1528
     38 H          -6.4073   -1.5634   -1.3726 H       1  UNL1        0.0749
     39 H          -6.2965   -1.2711    0.3614 H       1  UNL1        0.0749
     40 H          -6.0170    0.0418   -3.0021 H       1  UNL1        0.0621
     41 H          -6.1212    2.3445   -3.6844 H       1  UNL1        0.0618
     42 H          -5.9911    4.1011   -1.9715 H       1  UNL1        0.0618
     43 H          -5.7526    3.5440    0.4707 H       1  UNL1        0.0618
     44 H          -5.6614    1.1682    1.0635 H       1  UNL1        0.0621
     45 H          -1.2760   -3.5027    1.8820 H       1  UNL1        0.0318
     46 H          -0.2342   -5.1759    0.8020 H       1  UNL1        0.0233
     47 H           0.7752   -4.1721   -0.2320 H       1  UNL1        0.0233
     48 H          -1.0394   -4.3636   -0.5419 H       1  UNL1        0.0233
     49 H           1.6010   -2.8332    1.1963 H       1  UNL1        0.0233
     50 H           0.7633   -1.8478    2.4240 H       1  UNL1        0.0233
     51 H           1.0136   -3.6566    2.6382 H       1  UNL1        0.0233
     52 H           3.4848   -0.4858   -3.2521 H       1  UNL1        0.2951
     53 H           4.4353    0.2934   -0.3105 H       1  UNL1        0.0624
     54 H           6.6759    0.5517   -0.1383 H       1  UNL1        0.0471
     55 H           7.4730    1.9818    0.6033 H       1  UNL1        0.0471
     56 H           6.3116    1.0428    2.7112 H       1  UNL1        0.1185
     57 H           6.3505   -0.4374    1.7966 H       1  UNL1        0.1185
     58 H           5.9400    3.6727    1.6357 H       1  UNL1        0.0621
     59 H           3.6777    4.7474    1.5074 H       1  UNL1        0.0618
     60 H           1.7846    3.4931    0.4209 H       1  UNL1        0.0621
@<TRIPOS>BOND
     1     1     2    1
     2     2     3    1
     3     3     4    1
     4     3     5    2
     5     3     6    1
     6     6     7    1
     7     7     8   am
     8     8     9    2
     9     8    10    1
    10    10    11    1
    11    11    12    1
    12    12    13   ar
    13    13    14   ar
    14    14    15   ar
    15    15    16   ar
    16    16    17   ar
    17     6    18    1
    18    18    19    1
    19    18    20    1
    20     1    21    1
    21    21    22    1
    22    21    23    2
    23     1    24    1
    24    24    25   ar
    25    25    26   ar
    26    26    27    1
    27    27    28    1
    28    26    29   ar
    29    29    30   ar
    30    30    31   ar
    31    17    12   ar
    32    31    24   ar
    33     1    32    1
    34     2    33    1
    35     2    34    1
    36     4    35    1
    37     6    36    1
    38     7    37    1
    39    11    38    1
    40    11    39    1
    41    13    40    1
    42    14    41    1
    43    15    42    1
    44    16    43    1
    45    17    44    1
    46    18    45    1
    47    19    46    1
    48    19    47    1
    49    19    48    1
    50    20    49    1
    51    20    50    1
    52    20    51    1
    53    22    52    1
    54    25    53    1
    55    27    54    1
    56    27    55    1
    57    28    56    1
    58    28    57    1
    59    29    58    1
    60    30    59    1
    61    31    60    1
