@<TRIPOS>MOLECULE
*****
 39 42 0 0 0
SMALL
GASTEIGER

@<TRIPOS>ATOM
      1 O          -0.9336   -4.0471    0.5186 O.2     1  UNL1       -0.2677
      2 C          -0.8956   -2.8100    0.6774 C.ar    1  UNL1        0.2533
      3 C          -1.8582   -1.9852    0.1084 C.ar    1  UNL1        0.0427
      4 C          -1.8262   -0.6028    0.2788 C.ar    1  UNL1        0.1285
      5 N          -2.8101    0.2436   -0.3024 N.pl3   1  UNL1       -0.3106
      6 C          -3.8488   -0.3542   -1.0756 C.3     1  UNL1        0.0370
      7 C          -4.9238    0.5614   -1.5221 C.3     1  UNL1        0.0634
      8 O          -4.6553    1.9055   -1.3313 O.3     1  UNL1       -0.3767
      9 C          -4.1431    2.1955   -0.0834 C.3     1  UNL1        0.0634
     10 C          -2.7015    1.6695   -0.0755 C.3     1  UNL1        0.0370
     11 N          -0.8227   -0.1176    1.0163 N.ar    1  UNL1       -0.2186
     12 C           0.0963   -0.9032    1.5597 C.ar    1  UNL1        0.1207
     13 C           1.1801   -0.2928    2.3656 C.3     1  UNL1        0.0821
     14 C           2.3211    0.0234    1.4406 C.ar    1  UNL1        0.2041
     15 N           3.3555   -0.7689    1.1132 N.ar    1  UNL1       -0.2128
     16 C           4.1808   -0.1263    0.2481 C.ar    1  UNL1        0.1123
     17 C           5.3560   -0.4485   -0.3977 C.ar    1  UNL1        0.0027
     18 C           5.9902    0.4384   -1.2487 C.ar    1  UNL1        0.1256
     19 F           7.1518    0.1152   -1.8848 F       1  UNL1       -0.2054
     20 C           5.4037    1.6719   -1.4348 C.ar    1  UNL1       -0.0228
     21 C           4.2300    1.9968   -0.7913 C.ar    1  UNL1       -0.0144
     22 C           3.5885    1.1097    0.0649 C.ar    1  UNL1        0.1555
     23 O           2.5045    1.1457    0.7843 O.2     1  UNL1       -0.4393
     24 N           0.0657   -2.2249    1.3969 N.ar    1  UNL1       -0.3104
     25 H          -2.6697   -2.3789   -0.4882 H       1  UNL1        0.0706
     26 H          -4.3314   -1.1957   -0.4976 H       1  UNL1        0.0487
     27 H          -3.3633   -0.8436   -1.9630 H       1  UNL1        0.0487
     28 H          -5.1169    0.4328   -2.6248 H       1  UNL1        0.0575
     29 H          -5.9062    0.3443   -1.0341 H       1  UNL1        0.0575
     30 H          -4.6897    1.5789    0.6587 H       1  UNL1        0.0575
     31 H          -4.1932    3.2656    0.1066 H       1  UNL1        0.0575
     32 H          -2.1749    1.9295    0.8508 H       1  UNL1        0.0487
     33 H          -2.1822    2.0928   -0.9820 H       1  UNL1        0.0487
     34 H           0.8523    0.6558    2.8241 H       1  UNL1        0.0439
     35 H           1.5006   -0.9733    3.1763 H       1  UNL1        0.0439
     36 H           5.8068   -1.4142   -0.2464 H       1  UNL1        0.0669
     37 H           5.9000    2.3696   -2.1025 H       1  UNL1        0.0647
     38 H           3.7660    2.9613   -0.9330 H       1  UNL1        0.0656
     39 H           0.7965   -2.8381    1.8302 H       1  UNL1        0.1700
@<TRIPOS>BOND
     1     1     2    2
     2     2     3   ar
     3     3     4   ar
     4     4     5    1
     5     5     6    1
     6     6     7    1
     7     7     8    1
     8     8     9    1
     9     9    10    1
    10     4    11   ar
    11    11    12   ar
    12    12    13    1
    13    13    14    1
    14    14    15   ar
    15    15    16   ar
    16    16    17   ar
    17    17    18   ar
    18    18    19    1
    19    18    20   ar
    20    20    21   ar
    21    21    22   ar
    22    22    23   ar
    23    12    24   ar
    24    24     2   ar
    25    10     5    1
    26    23    14   ar
    27    22    16   ar
    28     3    25    1
    29     6    26    1
    30     6    27    1
    31     7    28    1
    32     7    29    1
    33     9    30    1
    34     9    31    1
    35    10    32    1
    36    10    33    1
    37    13    34    1
    38    13    35    1
    39    17    36    1
    40    20    37    1
    41    21    38    1
    42    24    39    1
