
     RDKit          3D

 57 59  0  0  0  0  0  0  0  0999 V2000
    2.7898   -2.8265    1.3348 C   0  0  0  0  0  0  0  0  0  0  0  0
    3.3204   -1.5124    1.8486 C   0  0  0  0  0  0  0  0  0  0  0  0
    3.2401   -1.4708    3.3741 C   0  0  0  0  0  0  0  0  0  0  0  0
    4.8161   -1.4948    1.4591 C   0  0  0  0  0  0  0  0  0  0  0  0
    2.6330   -0.3502    1.2797 C   0  0  0  0  0  0  0  0  0  0  0  0
    3.3504    0.3853    0.4714 O   0  0  0  0  0  0  0  0  0  0  0  0
    1.3246    0.0602    1.4952 N   0  0  0  0  0  0  0  0  0  0  0  0
    0.2791   -0.5054    2.3178 C   0  0  0  0  0  0  0  0  0  0  0  0
   -0.8488   -0.4661    1.2362 C   0  0  0  0  0  0  0  0  0  0  0  0
   -0.7764    0.9879    0.8180 C   0  0  2  0  0  0  0  0  0  0  0  0
   -1.3191    1.2478   -0.4712 N   0  0  0  0  0  0  0  0  0  0  0  0
   -2.3503    0.4850   -1.1088 C   0  0  0  0  0  0  0  0  0  0  0  0
   -2.1558   -0.9188   -1.4165 C   0  0  0  0  0  0  0  0  0  0  0  0
   -1.0924   -1.3355   -2.1705 C   0  0  0  0  0  0  0  0  0  0  0  0
   -0.8622   -2.6561   -2.4170 C   0  0  0  0  0  0  0  0  0  0  0  0
   -1.7163   -3.6118   -1.8997 C   0  0  0  0  0  0  0  0  0  0  0  0
   -2.7921   -3.2036   -1.1405 C   0  0  0  0  0  0  0  0  0  0  0  0
   -3.0284   -1.8716   -0.8919 C   0  0  0  0  0  0  0  0  0  0  0  0
   -4.2680   -1.4989   -0.1713 C   0  0  0  0  0  0  0  0  0  0  0  0
   -5.0759   -0.7004   -1.0019 F   0  0  0  0  0  0  0  0  0  0  0  0
   -4.1343   -1.0078    1.0787 F   0  0  0  0  0  0  0  0  0  0  0  0
   -5.0487   -2.6716   -0.0332 F   0  0  0  0  0  0  0  0  0  0  0  0
   -0.9725    2.4381   -1.1834 C   0  0  0  0  0  0  0  0  0  0  0  0
   -1.3099    2.6181   -2.5239 C   0  0  0  0  0  0  0  0  0  0  0  0
   -1.0796    3.8624   -3.0923 C   0  0  0  0  0  0  0  0  0  0  0  0
   -0.5447    4.9060   -2.4196 C   0  0  0  0  0  0  0  0  0  0  0  0
   -0.3142    6.2021   -3.0428 C   0  0  0  0  0  0  0  0  0  0  0  0
   -0.1223    7.1967   -3.5090 N   0  0  0  0  0  0  0  0  0  0  0  0
   -0.1967    4.7551   -1.0965 C   0  0  0  0  0  0  0  0  0  0  0  0
    0.4894    6.0359   -0.1332 Cl  0  0  0  0  0  0  0  0  0  0  0  0
   -0.4294    3.5095   -0.5226 C   0  0  0  0  0  0  0  0  0  0  0  0
    0.7111    1.2692    0.8766 C   0  0  0  0  0  0  0  0  0  0  0  0
    3.0305   -2.9236    0.2527 H   0  0  0  0  0  0  0  0  0  0  0  0
    3.2934   -3.6188    1.9456 H   0  0  0  0  0  0  0  0  0  0  0  0
    1.7184   -2.9689    1.4264 H   0  0  0  0  0  0  0  0  0  0  0  0
    4.1950   -1.0019    3.7326 H   0  0  0  0  0  0  0  0  0  0  0  0
    3.1054   -2.4810    3.7990 H   0  0  0  0  0  0  0  0  0  0  0  0
    2.4322   -0.8123    3.7415 H   0  0  0  0  0  0  0  0  0  0  0  0
    4.9151   -1.6258    0.3650 H   0  0  0  0  0  0  0  0  0  0  0  0
    5.2315   -0.5527    1.8205 H   0  0  0  0  0  0  0  0  0  0  0  0
    5.2972   -2.3751    1.9345 H   0  0  0  0  0  0  0  0  0  0  0  0
    0.4255   -1.5055    2.6842 H   0  0  0  0  0  0  0  0  0  0  0  0
    0.0029    0.2669    3.0547 H   0  0  0  0  0  0  0  0  0  0  0  0
   -0.4587   -1.1212    0.4665 H   0  0  0  0  0  0  0  0  0  0  0  0
   -1.7632   -0.7600    1.7407 H   0  0  0  0  0  0  0  0  0  0  0  0
   -1.3054    1.5932    1.6114 H   0  0  0  0  0  0  0  0  0  0  0  0
   -3.2016    0.5136   -0.3053 H   0  0  0  0  0  0  0  0  0  0  0  0
   -2.7574    0.9964   -1.9850 H   0  0  0  0  0  0  0  0  0  0  0  0
   -0.3839   -0.6096   -2.5976 H   0  0  0  0  0  0  0  0  0  0  0  0
   -0.0297   -3.0338   -3.0110 H   0  0  0  0  0  0  0  0  0  0  0  0
   -1.6092   -4.6761   -2.0452 H   0  0  0  0  0  0  0  0  0  0  0  0
   -3.4838   -3.9600   -0.7249 H   0  0  0  0  0  0  0  0  0  0  0  0
   -1.6944    1.8084   -3.0825 H   0  0  0  0  0  0  0  0  0  0  0  0
   -1.3529    4.0112   -4.1443 H   0  0  0  0  0  0  0  0  0  0  0  0
   -0.1772    3.4607    0.5202 H   0  0  0  0  0  0  0  0  0  0  0  0
    0.9678    2.1011    1.5925 H   0  0  0  0  0  0  0  0  0  0  0  0
    1.0862    1.4176   -0.1369 H   0  0  0  0  0  0  0  0  0  0  0  0
  1  2  1  0
  2  3  1  0
  2  4  1  0
  2  5  1  0
  5  6  2  0
  5  7  1  0
  7  8  1  0
  8  9  1  0
  9 10  1  0
 10 11  1  0
 11 12  1  0
 12 13  1  0
 13 14  2  0
 14 15  1  0
 15 16  2  0
 16 17  1  0
 17 18  2  0
 18 19  1  0
 19 20  1  0
 19 21  1  0
 19 22  1  0
 11 23  1  0
 23 24  2  0
 24 25  1  0
 25 26  2  0
 26 27  1  0
 27 28  3  0
 26 29  1  0
 29 30  1  0
 29 31  2  0
 10 32  1  0
 32  7  1  0
 18 13  1  0
 31 23  1  0
  1 33  1  0
  1 34  1  0
  1 35  1  0
  3 36  1  0
  3 37  1  0
  3 38  1  0
  4 39  1  0
  4 40  1  0
  4 41  1  0
  8 42  1  0
  8 43  1  0
  9 44  1  0
  9 45  1  0
 10 46  1  1
 12 47  1  0
 12 48  1  0
 14 49  1  0
 15 50  1  0
 16 51  1  0
 17 52  1  0
 24 53  1  0
 25 54  1  0
 31 55  1  0
 32 56  1  0
 32 57  1  0
M  END
$$$$
