@<TRIPOS>MOLECULE
*****
 57 59 0 0 0
SMALL
GASTEIGER

@<TRIPOS>ATOM
      1 C           2.7898   -2.8265    1.3348 C.3     1  UNL1       -0.0517
      2 C           3.3204   -1.5124    1.8486 C.3     1  UNL1        0.0388
      3 C           3.2401   -1.4708    3.3741 C.3     1  UNL1       -0.0517
      4 C           4.8161   -1.4948    1.4591 C.3     1  UNL1       -0.0517
      5 C           2.6330   -0.3502    1.2797 C.2     1  UNL1        0.2210
      6 O           3.3504    0.3853    0.4714 O.2     1  UNL1       -0.2750
      7 N           1.3246    0.0602    1.4952 N.am    1  UNL1       -0.2992
      8 C           0.2791   -0.5054    2.3178 C.3     1  UNL1        0.0165
      9 C          -0.8488   -0.4661    1.2362 C.3     1  UNL1       -0.0170
     10 C          -0.7764    0.9879    0.8180 C.3     1  UNL1        0.0410
     11 N          -1.3191    1.2478   -0.4712 N.pl3   1  UNL1       -0.3209
     12 C          -2.3503    0.4850   -1.1088 C.3     1  UNL1        0.0381
     13 C          -2.1558   -0.9188   -1.4165 C.ar    1  UNL1       -0.0186
     14 C          -1.0924   -1.3355   -2.1705 C.ar    1  UNL1       -0.0565
     15 C          -0.8622   -2.6561   -2.4170 C.ar    1  UNL1       -0.0614
     16 C          -1.7163   -3.6118   -1.8997 C.ar    1  UNL1       -0.0612
     17 C          -2.7921   -3.2036   -1.1405 C.ar    1  UNL1       -0.0498
     18 C          -3.0284   -1.8716   -0.8919 C.ar    1  UNL1        0.0595
     19 C          -4.2680   -1.4989   -0.1713 C.3     1  UNL1        0.4177
     20 F          -5.0759   -0.7004   -1.0019 F       1  UNL1       -0.1659
     21 F          -4.1343   -1.0078    1.0787 F       1  UNL1       -0.1659
     22 F          -5.0487   -2.6716   -0.0332 F       1  UNL1       -0.1659
     23 C          -0.9725    2.4381   -1.1834 C.ar    1  UNL1        0.0317
     24 C          -1.3099    2.6181   -2.5239 C.ar    1  UNL1       -0.0393
     25 C          -1.0796    3.8624   -3.0923 C.ar    1  UNL1       -0.0412
     26 C          -0.5447    4.9060   -2.4196 C.ar    1  UNL1        0.0701
     27 C          -0.3142    6.2021   -3.0428 C.1     1  UNL1        0.1006
     28 N          -0.1223    7.1967   -3.5090 N.1     1  UNL1       -0.1908
     29 C          -0.1967    4.7551   -1.0965 C.ar    1  UNL1        0.0600
     30 CL          0.4894    6.0359   -0.1332 Cl      1  UNL1       -0.0822
     31 C          -0.4294    3.5095   -0.5226 C.ar    1  UNL1       -0.0210
     32 C           0.7111    1.2692    0.8766 C.3     1  UNL1        0.0333
     33 H           3.0305   -2.9236    0.2527 H       1  UNL1        0.0239
     34 H           3.2934   -3.6188    1.9456 H       1  UNL1        0.0239
     35 H           1.7184   -2.9689    1.4264 H       1  UNL1        0.0239
     36 H           4.1950   -1.0019    3.7326 H       1  UNL1        0.0239
     37 H           3.1054   -2.4810    3.7990 H       1  UNL1        0.0239
     38 H           2.4322   -0.8123    3.7415 H       1  UNL1        0.0239
     39 H           4.9151   -1.6258    0.3650 H       1  UNL1        0.0239
     40 H           5.2315   -0.5527    1.8205 H       1  UNL1        0.0239
     41 H           5.2972   -2.3751    1.9345 H       1  UNL1        0.0239
     42 H           0.4255   -1.5055    2.6842 H       1  UNL1        0.0465
     43 H           0.0029    0.2669    3.0547 H       1  UNL1        0.0465
     44 H          -0.4587   -1.1212    0.4665 H       1  UNL1        0.0299
     45 H          -1.7632   -0.7600    1.7407 H       1  UNL1        0.0299
     46 H          -1.3054    1.5932    1.6114 H       1  UNL1        0.0516
     47 H          -3.2016    0.5136   -0.3053 H       1  UNL1        0.0513
     48 H          -2.7574    0.9964   -1.9850 H       1  UNL1        0.0513
     49 H          -0.3839   -0.6096   -2.5976 H       1  UNL1        0.0621
     50 H          -0.0297   -3.0338   -3.0110 H       1  UNL1        0.0618
     51 H          -1.6092   -4.6761   -2.0452 H       1  UNL1        0.0618
     52 H          -3.4838   -3.9600   -0.7249 H       1  UNL1        0.0623
     53 H          -1.6944    1.8084   -3.0825 H       1  UNL1        0.0636
     54 H          -1.3529    4.0112   -4.1443 H       1  UNL1        0.0631
     55 H          -0.1772    3.4607    0.5202 H       1  UNL1        0.0651
     56 H           0.9678    2.1011    1.5925 H       1  UNL1        0.0483
     57 H           1.0862    1.4176   -0.1369 H       1  UNL1        0.0483
@<TRIPOS>BOND
     1     1     2    1
     2     2     3    1
     3     2     4    1
     4     2     5    1
     5     5     6    2
     6     5     7   am
     7     7     8    1
     8     8     9    1
     9     9    10    1
    10    10    11    1
    11    11    12    1
    12    12    13    1
    13    13    14   ar
    14    14    15   ar
    15    15    16   ar
    16    16    17   ar
    17    17    18   ar
    18    18    19    1
    19    19    20    1
    20    19    21    1
    21    19    22    1
    22    11    23    1
    23    23    24   ar
    24    24    25   ar
    25    25    26   ar
    26    26    27    1
    27    27    28    3
    28    26    29   ar
    29    29    30    1
    30    29    31   ar
    31    10    32    1
    32    32     7    1
    33    18    13   ar
    34    31    23   ar
    35     1    33    1
    36     1    34    1
    37     1    35    1
    38     3    36    1
    39     3    37    1
    40     3    38    1
    41     4    39    1
    42     4    40    1
    43     4    41    1
    44     8    42    1
    45     8    43    1
    46     9    44    1
    47     9    45    1
    48    10    46    1
    49    12    47    1
    50    12    48    1
    51    14    49    1
    52    15    50    1
    53    16    51    1
    54    17    52    1
    55    24    53    1
    56    25    54    1
    57    31    55    1
    58    32    56    1
    59    32    57    1
