
     RDKit          3D

 47 50  0  0  0  0  0  0  0  0999 V2000
   -4.7995    1.9763   -1.1334 C   0  0  0  0  0  0  0  0  0  0  0  0
   -5.7791    0.9163   -1.2008 N   0  0  0  0  0  0  0  0  0  0  0  0
   -6.4484    0.7571    0.0714 C   0  0  0  0  0  0  0  0  0  0  0  0
   -5.0841   -0.5675   -1.7178 S   0  0  0  0  0  6  0  0  0  0  0  0
   -6.1005   -1.6725   -1.7376 O   0  0  0  0  0  0  0  0  0  0  0  0
   -4.5131   -0.4285   -3.0846 O   0  0  0  0  0  0  0  0  0  0  0  0
   -3.8593   -1.0434   -0.5383 C   0  0  0  0  0  0  0  0  0  0  0  0
   -4.1947   -1.8135    0.5548 C   0  0  0  0  0  0  0  0  0  0  0  0
   -3.2409   -2.1882    1.4765 C   0  0  0  0  0  0  0  0  0  0  0  0
   -1.9082   -1.8149    1.3547 C   0  0  0  0  0  0  0  0  0  0  0  0
   -1.5794   -1.0467    0.2624 C   0  0  0  0  0  0  0  0  0  0  0  0
   -2.5383   -0.6691   -0.6654 C   0  0  0  0  0  0  0  0  0  0  0  0
   -0.1274   -0.8010    0.3806 C   0  0  0  0  0  0  0  0  0  0  0  0
    0.5702   -0.0790   -0.4477 C   0  0  0  0  0  0  0  0  0  0  0  0
    2.0036    0.1314   -0.2951 C   0  0  0  0  0  0  0  0  0  0  0  0
    2.5931    1.3923   -0.2990 C   0  0  0  0  0  0  0  0  0  0  0  0
    3.9491    1.2055   -0.1744 C   0  0  0  0  0  0  0  0  0  0  0  0
    4.2129   -0.1408   -0.0943 C   0  0  0  0  0  0  0  0  0  0  0  0
    3.0063   -0.7505   -0.1722 N   0  0  0  0  0  0  0  0  0  0  0  0
    5.5609   -0.7379    0.0467 C   0  0  0  0  0  0  0  0  0  0  0  0
    6.6405    0.2565   -0.2003 C   0  0  0  0  0  0  0  0  0  0  0  0
    6.2054    1.4734   -0.9502 C   0  0  0  0  0  0  0  0  0  0  0  0
    5.1076    2.1443   -0.1138 C   0  0  0  0  0  0  0  0  0  0  0  0
    0.3757   -1.4524    1.5804 C   0  0  0  0  0  0  0  0  0  0  0  0
    1.5203   -1.5068    2.0681 O   0  0  0  0  0  0  0  0  0  0  0  0
   -0.7711   -2.0814    2.1690 N   0  0  0  0  0  0  0  0  0  0  0  0
   -5.1460    2.8174   -0.4833 H   0  0  0  0  0  0  0  0  0  0  0  0
   -4.5262    2.3810   -2.1306 H   0  0  0  0  0  0  0  0  0  0  0  0
   -3.8631    1.5735   -0.6487 H   0  0  0  0  0  0  0  0  0  0  0  0
   -7.3017    1.4557    0.2095 H   0  0  0  0  0  0  0  0  0  0  0  0
   -6.7528   -0.3003    0.1933 H   0  0  0  0  0  0  0  0  0  0  0  0
   -5.6921    1.0436    0.8552 H   0  0  0  0  0  0  0  0  0  0  0  0
   -5.2453   -2.1095    0.6537 H   0  0  0  0  0  0  0  0  0  0  0  0
   -3.5072   -2.7928    2.3345 H   0  0  0  0  0  0  0  0  0  0  0  0
   -2.2587   -0.0638   -1.5192 H   0  0  0  0  0  0  0  0  0  0  0  0
    0.0755    0.3925   -1.2940 H   0  0  0  0  0  0  0  0  0  0  0  0
    2.0847    2.3534   -0.3837 H   0  0  0  0  0  0  0  0  0  0  0  0
    2.8884   -1.8128   -0.1563 H   0  0  0  0  0  0  0  0  0  0  0  0
    5.5989   -1.6321   -0.6265 H   0  0  0  0  0  0  0  0  0  0  0  0
    5.7287   -1.1571    1.0703 H   0  0  0  0  0  0  0  0  0  0  0  0
    7.1280    0.5994    0.7527 H   0  0  0  0  0  0  0  0  0  0  0  0
    7.4674   -0.2719   -0.7467 H   0  0  0  0  0  0  0  0  0  0  0  0
    5.8546    1.2417   -1.9699 H   0  0  0  0  0  0  0  0  0  0  0  0
    7.0597    2.1696   -1.0158 H   0  0  0  0  0  0  0  0  0  0  0  0
    5.4829    2.1422    0.9219 H   0  0  0  0  0  0  0  0  0  0  0  0
    4.8658    3.1504   -0.4664 H   0  0  0  0  0  0  0  0  0  0  0  0
   -0.7427   -2.6394    3.0561 H   0  0  0  0  0  0  0  0  0  0  0  0
  1  2  1  0
  2  3  1  0
  2  4  1  0
  4  5  2  0
  4  6  2  0
  4  7  1  0
  7  8  2  0
  8  9  1  0
  9 10  2  0
 10 11  1  0
 11 12  2  0
 11 13  1  0
 13 14  2  0
 14 15  1  0
 15 16  2  0
 16 17  1  0
 17 18  2  0
 18 19  1  0
 18 20  1  0
 20 21  1  0
 21 22  1  0
 22 23  1  0
 13 24  1  0
 24 25  2  0
 24 26  1  0
 12  7  1  0
 19 15  1  0
 26 10  1  0
 23 17  1  0
  1 27  1  0
  1 28  1  0
  1 29  1  0
  3 30  1  0
  3 31  1  0
  3 32  1  0
  8 33  1  0
  9 34  1  0
 12 35  1  0
 14 36  1  0
 16 37  1  0
 19 38  1  0
 20 39  1  0
 20 40  1  0
 21 41  1  0
 21 42  1  0
 22 43  1  0
 22 44  1  0
 23 45  1  0
 23 46  1  0
 26 47  1  0
M  END
$$$$
