@<TRIPOS>MOLECULE
*****
 47 50 0 0 0
SMALL
GASTEIGER

@<TRIPOS>ATOM
      1 C          -4.7995    1.9763   -1.1334 C.3     1  UNL1        0.0086
      2 N          -5.7791    0.9163   -1.2008 N.3     1  UNL1       -0.1827
      3 C          -6.4484    0.7571    0.0714 C.3     1  UNL1        0.0086
      4 S          -5.0841   -0.5675   -1.7178 S.O2    1  UNL1        0.0604
      5 O          -6.1005   -1.6725   -1.7376 O.2     1  UNL1       -0.1529
      6 O          -4.5131   -0.4285   -3.0846 O.2     1  UNL1       -0.1529
      7 C          -3.8593   -1.0434   -0.5383 C.ar    1  UNL1        0.1061
      8 C          -4.1947   -1.8135    0.5548 C.ar    1  UNL1       -0.0336
      9 C          -3.2409   -2.1882    1.4765 C.ar    1  UNL1       -0.0380
     10 C          -1.9082   -1.8149    1.3547 C.ar    1  UNL1        0.0417
     11 C          -1.5794   -1.0467    0.2624 C.ar    1  UNL1        0.0102
     12 C          -2.5383   -0.6691   -0.6654 C.ar    1  UNL1       -0.0257
     13 C          -0.1274   -0.8010    0.3806 C.2     1  UNL1        0.0479
     14 C           0.5702   -0.0790   -0.4477 C.2     1  UNL1       -0.0256
     15 C           2.0036    0.1314   -0.2951 C.ar    1  UNL1        0.0404
     16 C           2.5931    1.3923   -0.2990 C.ar    1  UNL1       -0.0335
     17 C           3.9491    1.2055   -0.1744 C.ar    1  UNL1       -0.0263
     18 C           4.2129   -0.1408   -0.0943 C.ar    1  UNL1        0.0196
     19 N           3.0063   -0.7505   -0.1722 N.ar    1  UNL1       -0.3581
     20 C           5.5609   -0.7379    0.0467 C.3     1  UNL1       -0.0122
     21 C           6.6405    0.2565   -0.2003 C.3     1  UNL1       -0.0474
     22 C           6.2054    1.4734   -0.9502 C.3     1  UNL1       -0.0487
     23 C           5.1076    2.1443   -0.1138 C.3     1  UNL1       -0.0260
     24 C           0.3757   -1.4524    1.5804 C.2     1  UNL1        0.2490
     25 O           1.5203   -1.5068    2.0681 O.2     1  UNL1       -0.2698
     26 N          -0.7711   -2.0814    2.1690 N.am    1  UNL1       -0.2809
     27 H          -5.1460    2.8174   -0.4833 H       1  UNL1        0.0408
     28 H          -4.5262    2.3810   -2.1306 H       1  UNL1        0.0408
     29 H          -3.8631    1.5735   -0.6487 H       1  UNL1        0.0408
     30 H          -7.3017    1.4557    0.2095 H       1  UNL1        0.0408
     31 H          -6.7528   -0.3003    0.1933 H       1  UNL1        0.0408
     32 H          -5.6921    1.0436    0.8552 H       1  UNL1        0.0408
     33 H          -5.2453   -2.1095    0.6537 H       1  UNL1        0.0638
     34 H          -3.5072   -2.7928    2.3345 H       1  UNL1        0.0637
     35 H          -2.2587   -0.0638   -1.5192 H       1  UNL1        0.0644
     36 H           0.0755    0.3925   -1.2940 H       1  UNL1        0.0646
     37 H           2.0847    2.3534   -0.3837 H       1  UNL1        0.0641
     38 H           2.8884   -1.8128   -0.1563 H       1  UNL1        0.1656
     39 H           5.5989   -1.6321   -0.6265 H       1  UNL1        0.0328
     40 H           5.7287   -1.1571    1.0703 H       1  UNL1        0.0328
     41 H           7.1280    0.5994    0.7527 H       1  UNL1        0.0269
     42 H           7.4674   -0.2719   -0.7467 H       1  UNL1        0.0269
     43 H           5.8546    1.2417   -1.9699 H       1  UNL1        0.0269
     44 H           7.0597    2.1696   -1.0158 H       1  UNL1        0.0269
     45 H           5.4829    2.1422    0.9219 H       1  UNL1        0.0314
     46 H           4.8658    3.1504   -0.4664 H       1  UNL1        0.0314
     47 H          -0.7427   -2.6394    3.0561 H       1  UNL1        0.1552
@<TRIPOS>BOND
     1     1     2    1
     2     2     3    1
     3     2     4    1
     4     4     5    2
     5     4     6    2
     6     4     7    1
     7     7     8   ar
     8     8     9   ar
     9     9    10   ar
    10    10    11   ar
    11    11    12   ar
    12    11    13    1
    13    13    14    2
    14    14    15    1
    15    15    16   ar
    16    16    17   ar
    17    17    18   ar
    18    18    19   ar
    19    18    20    1
    20    20    21    1
    21    21    22    1
    22    22    23    1
    23    13    24    1
    24    24    25    2
    25    24    26   am
    26    12     7   ar
    27    19    15   ar
    28    26    10    1
    29    23    17    1
    30     1    27    1
    31     1    28    1
    32     1    29    1
    33     3    30    1
    34     3    31    1
    35     3    32    1
    36     8    33    1
    37     9    34    1
    38    12    35    1
    39    14    36    1
    40    16    37    1
    41    19    38    1
    42    20    39    1
    43    20    40    1
    44    21    41    1
    45    21    42    1
    46    22    43    1
    47    22    44    1
    48    23    45    1
    49    23    46    1
    50    26    47    1
