@<TRIPOS>MOLECULE
*****
 57 61 0 0 0
SMALL
GASTEIGER

@<TRIPOS>ATOM
      1 C           8.0833   -1.5836    1.0956 C.3     1  UNL1        0.0788
      2 O           7.3943   -1.4116   -0.1245 O.3     1  UNL1       -0.4951
      3 C           6.0315   -1.1975   -0.1528 C.ar    1  UNL1        0.1202
      4 C           5.3263   -1.1500    1.0233 C.ar    1  UNL1       -0.0182
      5 C           3.9573   -0.9339    0.9756 C.ar    1  UNL1       -0.0368
      6 C           3.2683   -0.7636   -0.2085 C.ar    1  UNL1        0.0383
      7 N           1.8625   -0.5442   -0.2045 N.am    1  UNL1       -0.2506
      8 C           0.9948   -1.6778   -0.2678 C.3     1  UNL1        0.0510
      9 C          -0.4299   -1.3164   -0.2524 C.ar    1  UNL1        0.0288
     10 C          -1.3591   -2.3404   -0.3070 C.ar    1  UNL1        0.0392
     11 N          -2.6620   -2.0248   -0.2942 N.ar    1  UNL1       -0.2222
     12 C          -3.1777   -0.8015   -0.2331 C.ar    1  UNL1        0.2212
     13 N          -4.5639   -0.4805   -0.2194 N.pl3   1  UNL1       -0.2836
     14 C          -5.5497   -1.4814   -0.1939 C.ar    1  UNL1        0.0337
     15 C          -5.3677   -2.7909    0.1533 C.ar    1  UNL1       -0.0378
     16 C          -6.4425   -3.6773    0.1071 C.ar    1  UNL1       -0.0247
     17 C          -7.6845   -3.2386   -0.2858 C.ar    1  UNL1        0.1235
     18 F          -8.7692   -4.0696   -0.3472 F       1  UNL1       -0.2055
     19 C          -7.8771   -1.9301   -0.6347 C.ar    1  UNL1       -0.0247
     20 C          -6.8315   -1.0738   -0.5887 C.ar    1  UNL1       -0.0378
     21 N          -2.2578    0.2179   -0.1788 N.ar    1  UNL1       -0.1985
     22 C          -0.9422   -0.0413   -0.1886 C.ar    1  UNL1        0.1388
     23 N          -0.0080    1.0573   -0.1289 N.am    1  UNL1       -0.2359
     24 C          -0.5764    2.3880   -0.0663 C.3     1  UNL1        0.0364
     25 C          -0.1264    3.1732    1.1430 C.3     1  UNL1       -0.0314
     26 C          -0.1753    4.6253    0.6723 C.3     1  UNL1       -0.0251
     27 C           0.3315    4.5280   -0.7326 C.3     1  UNL1        0.0570
     28 O           1.7207    4.7535   -0.7817 O.3     1  UNL1       -0.3917
     29 C          -0.0488    3.1728   -1.2459 C.3     1  UNL1       -0.0077
     30 C           1.3824    0.8057   -0.1367 C.2     1  UNL1        0.3150
     31 O           2.1961    1.7796   -0.0831 O.2     1  UNL1       -0.2516
     32 C           4.0065   -0.8166   -1.3781 C.ar    1  UNL1       -0.0368
     33 C           5.3743   -1.0315   -1.3503 C.ar    1  UNL1       -0.0182
     34 H           7.8168   -0.7400    1.7617 H       1  UNL1        0.0660
     35 H           9.1684   -1.5133    0.9158 H       1  UNL1        0.0660
     36 H           7.8499   -2.5410    1.5789 H       1  UNL1        0.0660
     37 H           5.8223   -1.2781    1.9828 H       1  UNL1        0.0655
     38 H           3.4465   -0.9051    1.9296 H       1  UNL1        0.0637
     39 H           1.1928   -2.4278    0.5258 H       1  UNL1        0.0520
     40 H           1.2230   -2.2119   -1.2361 H       1  UNL1        0.0520
     41 H          -1.0086   -3.3661   -0.3584 H       1  UNL1        0.0835
     42 H          -4.8621    0.5365   -0.2232 H       1  UNL1        0.1550
     43 H          -4.3949   -3.1594    0.4814 H       1  UNL1        0.0637
     44 H          -6.3250   -4.7161    0.3759 H       1  UNL1        0.0647
     45 H          -8.8564   -1.5552   -0.9511 H       1  UNL1        0.0647
     46 H          -7.0190   -0.0240   -0.8767 H       1  UNL1        0.0637
     47 H          -1.6882    2.3600   -0.0614 H       1  UNL1        0.0506
     48 H           0.9096    2.9818    1.4434 H       1  UNL1        0.0284
     49 H          -0.8345    3.0583    1.9955 H       1  UNL1        0.0284
     50 H           0.4529    5.2816    1.2977 H       1  UNL1        0.0291
     51 H          -1.2383    4.9793    0.6182 H       1  UNL1        0.0291
     52 H          -0.1011    5.3299   -1.3849 H       1  UNL1        0.0594
     53 H           1.9675    5.5376   -0.2639 H       1  UNL1        0.2098
     54 H           0.8344    2.7079   -1.7094 H       1  UNL1        0.0308
     55 H          -0.8914    3.2995   -1.9632 H       1  UNL1        0.0308
     56 H           3.5134   -0.6882   -2.3463 H       1  UNL1        0.0637
     57 H           5.9421   -1.0706   -2.2832 H       1  UNL1        0.0655
@<TRIPOS>BOND
     1     1     2    1
     2     2     3    1
     3     3     4   ar
     4     4     5   ar
     5     5     6   ar
     6     6     7    1
     7     7     8    1
     8     8     9    1
     9     9    10   ar
    10    10    11   ar
    11    11    12   ar
    12    12    13    1
    13    13    14    1
    14    14    15   ar
    15    15    16   ar
    16    16    17   ar
    17    17    18    1
    18    17    19   ar
    19    19    20   ar
    20    12    21   ar
    21    21    22   ar
    22    22    23    1
    23    23    24    1
    24    24    25    1
    25    25    26    1
    26    26    27    1
    27    27    28    1
    28    27    29    1
    29    23    30   am
    30    30    31    2
    31     6    32   ar
    32    32    33   ar
    33    33     3   ar
    34    30     7   am
    35    22     9   ar
    36    29    24    1
    37    20    14   ar
    38     1    34    1
    39     1    35    1
    40     1    36    1
    41     4    37    1
    42     5    38    1
    43     8    39    1
    44     8    40    1
    45    10    41    1
    46    13    42    1
    47    15    43    1
    48    16    44    1
    49    19    45    1
    50    20    46    1
    51    24    47    1
    52    25    48    1
    53    25    49    1
    54    26    50    1
    55    26    51    1
    56    27    52    1
    57    28    53    1
    58    29    54    1
    59    29    55    1
    60    32    56    1
    61    33    57    1
