
     RDKit          3D

 57 61  0  0  0  0  0  0  0  0999 V2000
    8.0833   -1.5836    1.0956 C   0  0  0  0  0  0  0  0  0  0  0  0
    7.3943   -1.4116   -0.1245 O   0  0  0  0  0  0  0  0  0  0  0  0
    6.0315   -1.1975   -0.1528 C   0  0  0  0  0  0  0  0  0  0  0  0
    5.3263   -1.1500    1.0233 C   0  0  0  0  0  0  0  0  0  0  0  0
    3.9573   -0.9339    0.9756 C   0  0  0  0  0  0  0  0  0  0  0  0
    3.2683   -0.7636   -0.2085 C   0  0  0  0  0  0  0  0  0  0  0  0
    1.8625   -0.5442   -0.2045 N   0  0  0  0  0  0  0  0  0  0  0  0
    0.9948   -1.6778   -0.2678 C   0  0  0  0  0  0  0  0  0  0  0  0
   -0.4299   -1.3164   -0.2524 C   0  0  0  0  0  0  0  0  0  0  0  0
   -1.3591   -2.3404   -0.3070 C   0  0  0  0  0  0  0  0  0  0  0  0
   -2.6620   -2.0248   -0.2942 N   0  0  0  0  0  0  0  0  0  0  0  0
   -3.1777   -0.8015   -0.2331 C   0  0  0  0  0  0  0  0  0  0  0  0
   -4.5639   -0.4805   -0.2194 N   0  0  0  0  0  0  0  0  0  0  0  0
   -5.5497   -1.4814   -0.1939 C   0  0  0  0  0  0  0  0  0  0  0  0
   -5.3677   -2.7909    0.1533 C   0  0  0  0  0  0  0  0  0  0  0  0
   -6.4425   -3.6773    0.1071 C   0  0  0  0  0  0  0  0  0  0  0  0
   -7.6845   -3.2386   -0.2858 C   0  0  0  0  0  0  0  0  0  0  0  0
   -8.7692   -4.0696   -0.3472 F   0  0  0  0  0  0  0  0  0  0  0  0
   -7.8771   -1.9301   -0.6347 C   0  0  0  0  0  0  0  0  0  0  0  0
   -6.8315   -1.0738   -0.5887 C   0  0  0  0  0  0  0  0  0  0  0  0
   -2.2578    0.2179   -0.1788 N   0  0  0  0  0  0  0  0  0  0  0  0
   -0.9422   -0.0413   -0.1886 C   0  0  0  0  0  0  0  0  0  0  0  0
   -0.0080    1.0573   -0.1289 N   0  0  0  0  0  0  0  0  0  0  0  0
   -0.5764    2.3880   -0.0663 C   0  0  0  0  0  0  0  0  0  0  0  0
   -0.1264    3.1732    1.1430 C   0  0  0  0  0  0  0  0  0  0  0  0
   -0.1753    4.6253    0.6723 C   0  0  0  0  0  0  0  0  0  0  0  0
    0.3315    4.5280   -0.7326 C   0  0  1  0  0  0  0  0  0  0  0  0
    1.7207    4.7535   -0.7817 O   0  0  0  0  0  0  0  0  0  0  0  0
   -0.0488    3.1728   -1.2459 C   0  0  0  0  0  0  0  0  0  0  0  0
    1.3824    0.8057   -0.1367 C   0  0  0  0  0  0  0  0  0  0  0  0
    2.1961    1.7796   -0.0831 O   0  0  0  0  0  0  0  0  0  0  0  0
    4.0065   -0.8166   -1.3781 C   0  0  0  0  0  0  0  0  0  0  0  0
    5.3743   -1.0315   -1.3503 C   0  0  0  0  0  0  0  0  0  0  0  0
    7.8168   -0.7400    1.7617 H   0  0  0  0  0  0  0  0  0  0  0  0
    9.1684   -1.5133    0.9158 H   0  0  0  0  0  0  0  0  0  0  0  0
    7.8499   -2.5410    1.5789 H   0  0  0  0  0  0  0  0  0  0  0  0
    5.8223   -1.2781    1.9828 H   0  0  0  0  0  0  0  0  0  0  0  0
    3.4465   -0.9051    1.9296 H   0  0  0  0  0  0  0  0  0  0  0  0
    1.1928   -2.4278    0.5258 H   0  0  0  0  0  0  0  0  0  0  0  0
    1.2230   -2.2119   -1.2361 H   0  0  0  0  0  0  0  0  0  0  0  0
   -1.0086   -3.3661   -0.3584 H   0  0  0  0  0  0  0  0  0  0  0  0
   -4.8621    0.5365   -0.2232 H   0  0  0  0  0  0  0  0  0  0  0  0
   -4.3949   -3.1594    0.4814 H   0  0  0  0  0  0  0  0  0  0  0  0
   -6.3250   -4.7161    0.3759 H   0  0  0  0  0  0  0  0  0  0  0  0
   -8.8564   -1.5552   -0.9511 H   0  0  0  0  0  0  0  0  0  0  0  0
   -7.0190   -0.0240   -0.8767 H   0  0  0  0  0  0  0  0  0  0  0  0
   -1.6882    2.3600   -0.0614 H   0  0  0  0  0  0  0  0  0  0  0  0
    0.9096    2.9818    1.4434 H   0  0  0  0  0  0  0  0  0  0  0  0
   -0.8345    3.0583    1.9955 H   0  0  0  0  0  0  0  0  0  0  0  0
    0.4529    5.2816    1.2977 H   0  0  0  0  0  0  0  0  0  0  0  0
   -1.2383    4.9793    0.6182 H   0  0  0  0  0  0  0  0  0  0  0  0
   -0.1011    5.3299   -1.3849 H   0  0  0  0  0  0  0  0  0  0  0  0
    1.9675    5.5376   -0.2639 H   0  0  0  0  0  0  0  0  0  0  0  0
    0.8344    2.7079   -1.7094 H   0  0  0  0  0  0  0  0  0  0  0  0
   -0.8914    3.2995   -1.9632 H   0  0  0  0  0  0  0  0  0  0  0  0
    3.5134   -0.6882   -2.3463 H   0  0  0  0  0  0  0  0  0  0  0  0
    5.9421   -1.0706   -2.2832 H   0  0  0  0  0  0  0  0  0  0  0  0
  1  2  1  0
  2  3  1  0
  3  4  2  0
  4  5  1  0
  5  6  2  0
  6  7  1  0
  7  8  1  0
  8  9  1  0
  9 10  2  0
 10 11  1  0
 11 12  2  0
 12 13  1  0
 13 14  1  0
 14 15  2  0
 15 16  1  0
 16 17  2  0
 17 18  1  0
 17 19  1  0
 19 20  2  0
 12 21  1  0
 21 22  2  0
 22 23  1  0
 23 24  1  0
 24 25  1  0
 25 26  1  0
 26 27  1  0
 27 28  1  0
 27 29  1  0
 23 30  1  0
 30 31  2  0
  6 32  1  0
 32 33  2  0
 33  3  1  0
 30  7  1  0
 22  9  1  0
 29 24  1  0
 20 14  1  0
  1 34  1  0
  1 35  1  0
  1 36  1  0
  4 37  1  0
  5 38  1  0
  8 39  1  0
  8 40  1  0
 10 41  1  0
 13 42  1  0
 15 43  1  0
 16 44  1  0
 19 45  1  0
 20 46  1  0
 24 47  1  0
 25 48  1  0
 25 49  1  0
 26 50  1  0
 26 51  1  0
 27 52  1  6
 28 53  1  0
 29 54  1  0
 29 55  1  0
 32 56  1  0
 33 57  1  0
M  END
$$$$
