
     RDKit          3D

 53 57  0  0  0  0  0  0  0  0999 V2000
    7.8697   -1.8933    1.5926 C   0  0  0  0  0  0  0  0  0  0  0  0
    7.2168   -2.3004    0.4190 O   0  0  0  0  0  0  0  0  0  0  0  0
    5.9440   -1.8515    0.0986 C   0  0  0  0  0  0  0  0  0  0  0  0
    5.3361   -2.2746   -1.0636 C   0  0  0  0  0  0  0  0  0  0  0  0
    4.0735   -1.8520   -1.4176 C   0  0  0  0  0  0  0  0  0  0  0  0
    3.3585   -0.9705   -0.6017 C   0  0  0  0  0  0  0  0  0  0  0  0
    2.0969   -0.5498   -0.9587 C   0  0  0  0  0  0  0  0  0  0  0  0
    1.3701    0.3222   -0.1679 C   0  0  0  0  0  0  0  0  0  0  0  0
    0.0248    0.7417   -0.5152 C   0  0  0  0  0  0  0  0  0  0  0  0
   -1.0323   -0.0425   -0.8010 N   0  0  0  0  0  0  0  0  0  0  0  0
   -2.0884    0.7208   -1.0928 N   0  0  0  0  0  0  0  0  0  0  0  0
   -3.3499    0.1689   -1.4335 C   0  0  0  0  0  0  0  0  0  0  0  0
   -4.2781   -0.0808   -0.3015 C   0  0  0  0  0  0  0  0  0  0  0  0
   -3.5983   -1.0687    0.6553 C   0  0  0  0  0  0  0  0  0  0  0  0
   -4.4917   -1.3298    1.8275 C   0  0  0  0  0  0  0  0  0  0  0  0
   -5.7901   -0.7277    1.6588 N   0  0  0  0  0  0  0  0  0  0  0  0
   -6.4214   -1.1072    0.4133 C   0  0  0  0  0  0  0  0  0  0  0  0
   -5.5362   -0.7810   -0.7802 C   0  0  0  0  0  0  0  0  0  0  0  0
   -1.7550    2.0048   -1.0077 C   0  0  0  0  0  0  0  0  0  0  0  0
   -2.4591    3.1097   -1.2136 N   0  0  0  0  0  0  0  0  0  0  0  0
   -1.8464    4.2970   -1.0627 C   0  0  0  0  0  0  0  0  0  0  0  0
   -0.5524    4.3921   -0.7129 N   0  0  0  0  0  0  0  0  0  0  0  0
    0.1912    3.2902   -0.4961 C   0  0  0  0  0  0  0  0  0  0  0  0
    1.5551    3.3484   -0.1546 N   0  0  0  0  0  0  0  0  0  0  0  0
   -0.4260    2.0535   -0.6457 C   0  0  0  0  0  0  0  0  0  0  0  0
    1.9698    0.7477    0.9940 C   0  0  0  0  0  0  0  0  0  0  0  0
    3.2528    0.3284    1.3695 C   0  0  0  0  0  0  0  0  0  0  0  0
    3.9537   -0.5388    0.5638 C   0  0  0  0  0  0  0  0  0  0  0  0
    5.2253   -0.9802    0.8953 C   0  0  0  0  0  0  0  0  0  0  0  0
    7.4807   -2.4004    2.5053 H   0  0  0  0  0  0  0  0  0  0  0  0
    7.7090   -0.7931    1.7607 H   0  0  0  0  0  0  0  0  0  0  0  0
    8.9576   -2.0703    1.5423 H   0  0  0  0  0  0  0  0  0  0  0  0
    5.8300   -2.9610   -1.7498 H   0  0  0  0  0  0  0  0  0  0  0  0
    3.5681   -2.1671   -2.3257 H   0  0  0  0  0  0  0  0  0  0  0  0
    1.6609   -0.9075   -1.8785 H   0  0  0  0  0  0  0  0  0  0  0  0
   -3.1981   -0.7640   -2.0114 H   0  0  0  0  0  0  0  0  0  0  0  0
   -3.8715    0.8694   -2.1510 H   0  0  0  0  0  0  0  0  0  0  0  0
   -4.5928    0.7909    0.2599 H   0  0  0  0  0  0  0  0  0  0  0  0
   -2.5895   -0.7114    0.9411 H   0  0  0  0  0  0  0  0  0  0  0  0
   -3.4976   -2.0090    0.0750 H   0  0  0  0  0  0  0  0  0  0  0  0
   -4.0231   -0.8643    2.7248 H   0  0  0  0  0  0  0  0  0  0  0  0
   -4.5990   -2.4083    1.9965 H   0  0  0  0  0  0  0  0  0  0  0  0
   -5.8054    0.2969    1.8343 H   0  0  0  0  0  0  0  0  0  0  0  0
   -7.3846   -0.5255    0.3709 H   0  0  0  0  0  0  0  0  0  0  0  0
   -6.6905   -2.1659    0.4264 H   0  0  0  0  0  0  0  0  0  0  0  0
   -5.3141   -1.7254   -1.3150 H   0  0  0  0  0  0  0  0  0  0  0  0
   -6.1005   -0.0909   -1.4278 H   0  0  0  0  0  0  0  0  0  0  0  0
   -2.3752    5.2446   -1.2187 H   0  0  0  0  0  0  0  0  0  0  0  0
    1.8620    3.6611    0.7858 H   0  0  0  0  0  0  0  0  0  0  0  0
    2.2946    3.0788   -0.8370 H   0  0  0  0  0  0  0  0  0  0  0  0
    1.4759    1.4074    1.6868 H   0  0  0  0  0  0  0  0  0  0  0  0
    3.7135    0.6665    2.2783 H   0  0  0  0  0  0  0  0  0  0  0  0
    5.6768   -0.6277    1.8185 H   0  0  0  0  0  0  0  0  0  0  0  0
  1  2  1  0
  2  3  1  0
  3  4  2  0
  4  5  1  0
  5  6  2  0
  6  7  1  0
  7  8  2  0
  8  9  1  0
  9 10  2  0
 10 11  1  0
 11 12  1  0
 12 13  1  0
 13 14  1  0
 14 15  1  0
 15 16  1  0
 16 17  1  0
 17 18  1  0
 11 19  1  0
 19 20  2  0
 20 21  1  0
 21 22  2  0
 22 23  1  0
 23 24  1  0
 23 25  2  0
  8 26  1  0
 26 27  2  0
 27 28  1  0
 28 29  2  0
 29  3  1  0
 28  6  1  0
 25  9  1  0
 18 13  1  0
 25 19  1  0
  1 30  1  0
  1 31  1  0
  1 32  1  0
  4 33  1  0
  5 34  1  0
  7 35  1  0
 12 36  1  0
 12 37  1  0
 13 38  1  0
 14 39  1  0
 14 40  1  0
 15 41  1  0
 15 42  1  0
 16 43  1  0
 17 44  1  0
 17 45  1  0
 18 46  1  0
 18 47  1  0
 21 48  1  0
 24 49  1  0
 24 50  1  0
 26 51  1  0
 27 52  1  0
 29 53  1  0
M  END
$$$$
