@<TRIPOS>MOLECULE
*****
 53 57 0 0 0
SMALL
GASTEIGER

@<TRIPOS>ATOM
      1 C           7.8697   -1.8933    1.5926 C.3     1  UNL1        0.0788
      2 O           7.2168   -2.3004    0.4190 O.3     1  UNL1       -0.4951
      3 C           5.9440   -1.8515    0.0986 C.ar    1  UNL1        0.1207
      4 C           5.3361   -2.2746   -1.0636 C.ar    1  UNL1       -0.0194
      5 C           4.0735   -1.8520   -1.4176 C.ar    1  UNL1       -0.0506
      6 C           3.3585   -0.9705   -0.6017 C.ar    1  UNL1       -0.0170
      7 C           2.0969   -0.5498   -0.9587 C.ar    1  UNL1       -0.0448
      8 C           1.3701    0.3222   -0.1679 C.ar    1  UNL1        0.0035
      9 C           0.0248    0.7417   -0.5152 C.ar    1  UNL1        0.1053
     10 N          -1.0323   -0.0425   -0.8010 N.ar    1  UNL1       -0.1686
     11 N          -2.0884    0.7208   -1.0928 N.ar    1  UNL1       -0.2454
     12 C          -3.3499    0.1689   -1.4335 C.3     1  UNL1        0.0467
     13 C          -4.2781   -0.0808   -0.3015 C.3     1  UNL1       -0.0191
     14 C          -3.5983   -1.0687    0.6553 C.3     1  UNL1       -0.0359
     15 C          -4.4917   -1.3298    1.8275 C.3     1  UNL1       -0.0038
     16 N          -5.7901   -0.7277    1.6588 N.3     1  UNL1       -0.3160
     17 C          -6.4214   -1.1072    0.4133 C.3     1  UNL1       -0.0038
     18 C          -5.5362   -0.7810   -0.7802 C.3     1  UNL1       -0.0359
     19 C          -1.7550    2.0048   -1.0077 C.ar    1  UNL1        0.1638
     20 N          -2.4591    3.1097   -1.2136 N.ar    1  UNL1       -0.2161
     21 C          -1.8464    4.2970   -1.0627 C.ar    1  UNL1        0.1204
     22 N          -0.5524    4.3921   -0.7129 N.ar    1  UNL1       -0.2204
     23 C           0.1912    3.2902   -0.4961 C.ar    1  UNL1        0.1308
     24 N           1.5551    3.3484   -0.1546 N.pl3   1  UNL1       -0.3425
     25 C          -0.4260    2.0535   -0.6457 C.ar    1  UNL1        0.0859
     26 C           1.9698    0.7477    0.9940 C.ar    1  UNL1       -0.0519
     27 C           3.2528    0.3284    1.3695 C.ar    1  UNL1       -0.0533
     28 C           3.9537   -0.5388    0.5638 C.ar    1  UNL1       -0.0144
     29 C           5.2253   -0.9802    0.8953 C.ar    1  UNL1       -0.0122
     30 H           7.4807   -2.4004    2.5053 H       1  UNL1        0.0660
     31 H           7.7090   -0.7931    1.7607 H       1  UNL1        0.0660
     32 H           8.9576   -2.0703    1.5423 H       1  UNL1        0.0660
     33 H           5.8300   -2.9610   -1.7498 H       1  UNL1        0.0654
     34 H           3.5681   -2.1671   -2.3257 H       1  UNL1        0.0625
     35 H           1.6609   -0.9075   -1.8785 H       1  UNL1        0.0630
     36 H          -3.1981   -0.7640   -2.0114 H       1  UNL1        0.0512
     37 H          -3.8715    0.8694   -2.1510 H       1  UNL1        0.0512
     38 H          -4.5928    0.7909    0.2599 H       1  UNL1        0.0319
     39 H          -2.5895   -0.7114    0.9411 H       1  UNL1        0.0281
     40 H          -3.4976   -2.0090    0.0750 H       1  UNL1        0.0281
     41 H          -4.0231   -0.8643    2.7248 H       1  UNL1        0.0424
     42 H          -4.5990   -2.4083    1.9965 H       1  UNL1        0.0424
     43 H          -5.8054    0.2969    1.8343 H       1  UNL1        0.1219
     44 H          -7.3846   -0.5255    0.3709 H       1  UNL1        0.0424
     45 H          -6.6905   -2.1659    0.4264 H       1  UNL1        0.0424
     46 H          -5.3141   -1.7254   -1.3150 H       1  UNL1        0.0281
     47 H          -6.1005   -0.0909   -1.4278 H       1  UNL1        0.0281
     48 H          -2.3752    5.2446   -1.2187 H       1  UNL1        0.1048
     49 H           1.8620    3.6611    0.7858 H       1  UNL1        0.1437
     50 H           2.2946    3.0788   -0.8370 H       1  UNL1        0.1437
     51 H           1.4759    1.4074    1.6868 H       1  UNL1        0.0624
     52 H           3.7135    0.6665    2.2783 H       1  UNL1        0.0624
     53 H           5.6768   -0.6277    1.8185 H       1  UNL1        0.0660
@<TRIPOS>BOND
     1     1     2    1
     2     2     3    1
     3     3     4   ar
     4     4     5   ar
     5     5     6   ar
     6     6     7   ar
     7     7     8   ar
     8     8     9    1
     9     9    10   ar
    10    10    11   ar
    11    11    12    1
    12    12    13    1
    13    13    14    1
    14    14    15    1
    15    15    16    1
    16    16    17    1
    17    17    18    1
    18    11    19   ar
    19    19    20   ar
    20    20    21   ar
    21    21    22   ar
    22    22    23   ar
    23    23    24    1
    24    23    25   ar
    25     8    26   ar
    26    26    27   ar
    27    27    28   ar
    28    28    29   ar
    29    29     3   ar
    30    28     6   ar
    31    25     9   ar
    32    18    13    1
    33    25    19   ar
    34     1    30    1
    35     1    31    1
    36     1    32    1
    37     4    33    1
    38     5    34    1
    39     7    35    1
    40    12    36    1
    41    12    37    1
    42    13    38    1
    43    14    39    1
    44    14    40    1
    45    15    41    1
    46    15    42    1
    47    16    43    1
    48    17    44    1
    49    17    45    1
    50    18    46    1
    51    18    47    1
    52    21    48    1
    53    24    49    1
    54    24    50    1
    55    26    51    1
    56    27    52    1
    57    29    53    1
