@<TRIPOS>MOLECULE
*****
 24 24 0 0 0
SMALL
GASTEIGER

@<TRIPOS>ATOM
      1 C          -1.7785   -0.3451   -0.0186 C.3     1  UNL1        0.0324
      2 C          -1.7769    0.6518   -1.1535 C.3     1  UNL1       -0.0472
      3 N          -3.0572   -0.3352    0.6659 N.3     1  UNL1       -0.3251
      4 C          -0.6779   -0.0645    0.9805 C.3     1  UNL1        0.0950
      5 O          -0.8463    1.1648    1.5818 O.3     1  UNL1       -0.3856
      6 C           0.6597   -0.1376    0.3406 C.ar    1  UNL1       -0.0177
      7 C           1.1205    0.9253   -0.4042 C.ar    1  UNL1       -0.0561
      8 C           2.3645    0.8619   -1.0023 C.ar    1  UNL1       -0.0614
      9 C           3.1196   -0.2763   -0.8358 C.ar    1  UNL1       -0.0617
     10 C           2.7023   -1.3761   -0.0952 C.ar    1  UNL1       -0.0614
     11 C           1.4564   -1.2562    0.4767 C.ar    1  UNL1       -0.0561
     12 H          -1.6664   -1.3624   -0.4363 H       1  UNL1        0.0484
     13 H          -0.9332    0.4754   -1.8433 H       1  UNL1        0.0246
     14 H          -2.6931    0.4997   -1.7574 H       1  UNL1        0.0246
     15 H          -1.8017    1.6849   -0.8023 H       1  UNL1        0.0246
     16 H          -3.2774    0.6883    0.8284 H       1  UNL1        0.1185
     17 H          -3.0326   -0.8665    1.5411 H       1  UNL1        0.1185
     18 H          -0.7770   -0.8761    1.7618 H       1  UNL1        0.0659
     19 H          -0.9406    1.1115    2.5521 H       1  UNL1        0.2103
     20 H           0.5796    1.8286   -0.5653 H       1  UNL1        0.0621
     21 H           2.7889    1.6753   -1.6086 H       1  UNL1        0.0618
     22 H           4.1013   -0.3481   -1.2973 H       1  UNL1        0.0618
     23 H           3.3236   -2.2675    0.0202 H       1  UNL1        0.0618
     24 H           1.0424   -2.0559    1.0711 H       1  UNL1        0.0621
@<TRIPOS>BOND
     1     1     2    1
     2     1     3    1
     3     1     4    1
     4     4     5    1
     5     4     6    1
     6     6     7   ar
     7     7     8   ar
     8     8     9   ar
     9     9    10   ar
    10    10    11   ar
    11    11     6   ar
    12     1    12    1
    13     2    13    1
    14     2    14    1
    15     2    15    1
    16     3    16    1
    17     3    17    1
    18     4    18    1
    19     5    19    1
    20     7    20    1
    21     8    21    1
    22     9    22    1
    23    10    23    1
    24    11    24    1
