
     RDKit          3D

 24 24  0  0  0  0  0  0  0  0999 V2000
   -1.7785   -0.3451   -0.0186 C   0  0  2  0  0  0  0  0  0  0  0  0
   -1.7769    0.6518   -1.1535 C   0  0  0  0  0  0  0  0  0  0  0  0
   -3.0572   -0.3352    0.6659 N   0  0  0  0  0  0  0  0  0  0  0  0
   -0.6779   -0.0645    0.9805 C   0  0  2  0  0  0  0  0  0  0  0  0
   -0.8463    1.1648    1.5818 O   0  0  0  0  0  0  0  0  0  0  0  0
    0.6597   -0.1376    0.3406 C   0  0  0  0  0  0  0  0  0  0  0  0
    1.1205    0.9253   -0.4042 C   0  0  0  0  0  0  0  0  0  0  0  0
    2.3645    0.8619   -1.0023 C   0  0  0  0  0  0  0  0  0  0  0  0
    3.1196   -0.2763   -0.8358 C   0  0  0  0  0  0  0  0  0  0  0  0
    2.7023   -1.3761   -0.0952 C   0  0  0  0  0  0  0  0  0  0  0  0
    1.4564   -1.2562    0.4767 C   0  0  0  0  0  0  0  0  0  0  0  0
   -1.6664   -1.3624   -0.4363 H   0  0  0  0  0  0  0  0  0  0  0  0
   -0.9332    0.4754   -1.8433 H   0  0  0  0  0  0  0  0  0  0  0  0
   -2.6931    0.4997   -1.7574 H   0  0  0  0  0  0  0  0  0  0  0  0
   -1.8017    1.6849   -0.8023 H   0  0  0  0  0  0  0  0  0  0  0  0
   -3.2774    0.6883    0.8284 H   0  0  0  0  0  0  0  0  0  0  0  0
   -3.0326   -0.8665    1.5411 H   0  0  0  0  0  0  0  0  0  0  0  0
   -0.7770   -0.8761    1.7618 H   0  0  0  0  0  0  0  0  0  0  0  0
   -0.9406    1.1115    2.5521 H   0  0  0  0  0  0  0  0  0  0  0  0
    0.5796    1.8286   -0.5653 H   0  0  0  0  0  0  0  0  0  0  0  0
    2.7889    1.6753   -1.6086 H   0  0  0  0  0  0  0  0  0  0  0  0
    4.1013   -0.3481   -1.2973 H   0  0  0  0  0  0  0  0  0  0  0  0
    3.3236   -2.2675    0.0202 H   0  0  0  0  0  0  0  0  0  0  0  0
    1.0424   -2.0559    1.0711 H   0  0  0  0  0  0  0  0  0  0  0  0
  1  2  1  0
  1  3  1  0
  1  4  1  0
  4  5  1  0
  4  6  1  0
  6  7  2  0
  7  8  1  0
  8  9  2  0
  9 10  1  0
 10 11  2  0
 11  6  1  0
  1 12  1  6
  2 13  1  0
  2 14  1  0
  2 15  1  0
  3 16  1  0
  3 17  1  0
  4 18  1  1
  5 19  1  0
  7 20  1  0
  8 21  1  0
  9 22  1  0
 10 23  1  0
 11 24  1  0
M  END
$$$$
