@<TRIPOS>MOLECULE
*****
 93 99 0 0 0
SMALL
GASTEIGER

@<TRIPOS>ATOM
      1 C          12.4961    1.5350    0.4925 C.3     1  UNL1        0.0749
      2 C          13.9021    1.5426    0.9910 C.3     1  UNL1       -0.0369
      3 O          11.6765    2.3938    1.2381 O.3     1  UNL1       -0.3900
      4 C          11.8843    0.1345    0.5248 C.3     1  UNL1        0.0832
      5 C          12.7005   -0.7924   -0.3501 C.3     1  UNL1       -0.0308
      6 C          12.1164   -2.2038   -0.3412 C.3     1  UNL1       -0.0633
      7 N          10.5696    0.2584   -0.0725 N.ar    1  UNL1       -0.2073
      8 N          10.3576    0.5821   -1.3379 N.ar    1  UNL1       -0.1565
      9 C           9.0268    0.6022   -1.5342 C.ar    1  UNL1        0.1251
     10 N           8.4564    0.2792   -0.3408 N.ar    1  UNL1       -0.2501
     11 C           9.4116    0.0618    0.5811 C.ar    1  UNL1        0.3514
     12 O           9.2225   -0.2571    1.7919 O.2     1  UNL1       -0.2444
     13 C           7.0629    0.1790   -0.0776 C.ar    1  UNL1        0.0525
     14 C           6.3492   -0.9355   -0.4605 C.ar    1  UNL1       -0.0359
     15 C           4.9994   -1.0364   -0.2073 C.ar    1  UNL1       -0.0387
     16 C           4.2809   -0.0513    0.4333 C.ar    1  UNL1        0.0299
     17 C           5.0121    1.0374    0.7994 C.ar    1  UNL1       -0.0387
     18 C           6.3644    1.1797    0.5661 C.ar    1  UNL1       -0.0359
     19 N           2.8881   -0.1241    0.7061 N.pl3   1  UNL1       -0.3269
     20 C           2.0949    0.8820    1.3789 C.3     1  UNL1        0.0280
     21 C           0.9057    1.3311    0.5633 C.3     1  UNL1        0.0280
     22 N           0.1965    0.2215   -0.0338 N.pl3   1  UNL1       -0.3269
     23 C           1.0902   -0.6688   -0.7262 C.3     1  UNL1        0.0280
     24 C           2.0382   -1.2354    0.3391 C.3     1  UNL1        0.0280
     25 C          -1.2059    0.0169    0.0328 C.ar    1  UNL1        0.0300
     26 C          -1.8581   -1.0789   -0.4825 C.ar    1  UNL1       -0.0372
     27 C          -3.2185   -1.2812   -0.4285 C.ar    1  UNL1       -0.0182
     28 C          -4.0204   -0.3431    0.1762 C.ar    1  UNL1        0.1206
     29 O          -5.3869   -0.5191    0.2445 O.3     1  UNL1       -0.4916
     30 C          -6.0690   -1.6209   -0.2706 C.3     1  UNL1        0.0946
     31 C          -7.5290   -1.4299    0.0014 C.3     1  UNL1        0.0196
     32 C          -8.3998   -2.5637   -0.5100 C.3     1  UNL1        0.0549
     33 O          -9.5391   -2.0104   -1.0544 O.3     1  UNL1       -0.3664
     34 C          -9.4993   -0.5955   -0.8546 C.3     1  UNL1        0.1168
     35 C         -10.2318   -0.0763   -2.0829 C.3     1  UNL1        0.0765
     36 N         -10.4019    1.3051   -2.2188 N.ar    1  UNL1       -0.2489
     37 C         -11.4502    2.1028   -1.8419 C.ar    1  UNL1        0.1144
     38 N         -11.1544    3.3907   -2.1843 N.ar    1  UNL1       -0.2228
     39 C          -9.9315    3.3325   -2.7599 C.ar    1  UNL1        0.1379
     40 N          -9.4702    2.0873   -2.7863 N.ar    1  UNL1       -0.1583
     41 C          -8.0475   -0.3202   -0.9018 C.3     1  UNL1       -0.0097
     42 C         -10.1834   -0.3797    0.4130 C.ar    1  UNL1        0.0213
     43 C         -10.3467    0.8069    1.0843 C.ar    1  UNL1        0.1321
     44 F          -9.7201    1.9148    0.6175 F       1  UNL1       -0.2050
     45 C         -11.0433    1.0316    2.2461 C.ar    1  UNL1        0.0092
     46 C         -11.6676   -0.0403    2.8434 C.ar    1  UNL1        0.1261
     47 F         -12.3689    0.1087    3.9861 F       1  UNL1       -0.2054
     48 C         -11.5751   -1.2857    2.2649 C.ar    1  UNL1       -0.0259
     49 C         -10.8555   -1.4015    1.1032 C.ar    1  UNL1       -0.0503
     50 C          -3.4315    0.7792    0.7137 C.ar    1  UNL1       -0.0182
     51 C          -2.0617    0.9195    0.6249 C.ar    1  UNL1       -0.0372
     52 H          12.4519    1.8862   -0.5384 H       1  UNL1        0.0612
     53 H          14.0351    2.4525    1.6358 H       1  UNL1        0.0255
     54 H          14.5865    1.6783    0.1298 H       1  UNL1        0.0255
     55 H          14.1593    0.6114    1.5389 H       1  UNL1        0.0255
     56 H          11.1678    3.0239    0.6733 H       1  UNL1        0.2099
     57 H          11.8097   -0.2463    1.5667 H       1  UNL1        0.0572
     58 H          12.5927   -0.4150   -1.4032 H       1  UNL1        0.0284
     59 H          13.7649   -0.7845   -0.1142 H       1  UNL1        0.0284
     60 H          11.1175   -2.1874   -0.8026 H       1  UNL1        0.0230
     61 H          12.7773   -2.8056   -1.0100 H       1  UNL1        0.0230
     62 H          12.1288   -2.6204    0.6699 H       1  UNL1        0.0230
     63 H           8.5067    0.8350   -2.4761 H       1  UNL1        0.1052
     64 H           6.8659   -1.7385   -0.9677 H       1  UNL1        0.0639
     65 H           4.5122   -1.9399   -0.5390 H       1  UNL1        0.0637
     66 H           4.6159    1.9027    1.3086 H       1  UNL1        0.0637
     67 H           6.9629    2.0333    0.8465 H       1  UNL1        0.0639
     68 H           1.6805    0.3645    2.2902 H       1  UNL1        0.0479
     69 H           2.6807    1.7226    1.7707 H       1  UNL1        0.0479
     70 H           0.2869    1.9407    1.2480 H       1  UNL1        0.0479
     71 H           1.3009    1.9565   -0.2749 H       1  UNL1        0.0479
     72 H           0.6291   -1.4562   -1.3171 H       1  UNL1        0.0479
     73 H           1.7571   -0.0404   -1.3909 H       1  UNL1        0.0479
     74 H           1.4024   -1.4999    1.2092 H       1  UNL1        0.0479
     75 H           2.5824   -2.1154   -0.0567 H       1  UNL1        0.0479
     76 H          -1.3049   -1.8630   -0.9730 H       1  UNL1        0.0637
     77 H          -3.6842   -2.1504   -0.8432 H       1  UNL1        0.0655
     78 H          -5.7138   -2.5343    0.2745 H       1  UNL1        0.0700
     79 H          -5.9223   -1.8203   -1.3324 H       1  UNL1        0.0700
     80 H          -7.7826   -1.2273    1.0400 H       1  UNL1        0.0357
     81 H          -7.8112   -3.1290   -1.2901 H       1  UNL1        0.0564
     82 H          -8.6868   -3.2693    0.2898 H       1  UNL1        0.0564
     83 H          -9.6824   -0.4827   -2.9670 H       1  UNL1        0.0541
     84 H         -11.2383   -0.5935   -2.0309 H       1  UNL1        0.0541
     85 H         -12.3301    1.6976   -1.3576 H       1  UNL1        0.1044
     86 H          -9.3821    4.1978   -3.1572 H       1  UNL1        0.1065
     87 H          -7.6901   -0.5702   -1.9166 H       1  UNL1        0.0301
     88 H          -7.7380    0.6759   -0.5639 H       1  UNL1        0.0301
     89 H         -11.1406    1.9734    2.7255 H       1  UNL1        0.0675
     90 H         -12.0659   -2.1215    2.7393 H       1  UNL1        0.0646
     91 H         -10.8451   -2.4298    0.7111 H       1  UNL1        0.0623
     92 H          -4.0826    1.4894    1.1770 H       1  UNL1        0.0655
     93 H          -1.7097    1.8337    1.0767 H       1  UNL1        0.0637
@<TRIPOS>BOND
     1     1     2    1
     2     1     3    1
     3     1     4    1
     4     4     5    1
     5     5     6    1
     6     4     7    1
     7     7     8   ar
     8     8     9   ar
     9     9    10   ar
    10    10    11   ar
    11    11    12    2
    12    10    13    1
    13    13    14   ar
    14    14    15   ar
    15    15    16   ar
    16    16    17   ar
    17    17    18   ar
    18    16    19    1
    19    19    20    1
    20    20    21    1
    21    21    22    1
    22    22    23    1
    23    23    24    1
    24    22    25    1
    25    25    26   ar
    26    26    27   ar
    27    27    28   ar
    28    28    29    1
    29    29    30    1
    30    30    31    1
    31    31    32    1
    32    32    33    1
    33    33    34    1
    34    34    35    1
    35    35    36    1
    36    36    37   ar
    37    37    38   ar
    38    38    39   ar
    39    39    40   ar
    40    34    41    1
    41    34    42    1
    42    42    43   ar
    43    43    44    1
    44    43    45   ar
    45    45    46   ar
    46    46    47    1
    47    46    48   ar
    48    48    49   ar
    49    28    50   ar
    50    50    51   ar
    51    11     7   ar
    52    18    13   ar
    53    24    19    1
    54    51    25   ar
    55    41    31    1
    56    49    42   ar
    57    40    36   ar
    58     1    52    1
    59     2    53    1
    60     2    54    1
    61     2    55    1
    62     3    56    1
    63     4    57    1
    64     5    58    1
    65     5    59    1
    66     6    60    1
    67     6    61    1
    68     6    62    1
    69     9    63    1
    70    14    64    1
    71    15    65    1
    72    17    66    1
    73    18    67    1
    74    20    68    1
    75    20    69    1
    76    21    70    1
    77    21    71    1
    78    23    72    1
    79    23    73    1
    80    24    74    1
    81    24    75    1
    82    26    76    1
    83    27    77    1
    84    30    78    1
    85    30    79    1
    86    31    80    1
    87    32    81    1
    88    32    82    1
    89    35    83    1
    90    35    84    1
    91    37    85    1
    92    39    86    1
    93    41    87    1
    94    41    88    1
    95    45    89    1
    96    48    90    1
    97    49    91    1
    98    50    92    1
    99    51    93    1
