
     RDKit          3D

 93 99  0  0  0  0  0  0  0  0999 V2000
   12.4961    1.5350    0.4925 C   0  0  2  0  0  0  0  0  0  0  0  0
   13.9021    1.5426    0.9910 C   0  0  0  0  0  0  0  0  0  0  0  0
   11.6765    2.3938    1.2381 O   0  0  0  0  0  0  0  0  0  0  0  0
   11.8843    0.1345    0.5248 C   0  0  2  0  0  0  0  0  0  0  0  0
   12.7005   -0.7924   -0.3501 C   0  0  0  0  0  0  0  0  0  0  0  0
   12.1164   -2.2038   -0.3412 C   0  0  0  0  0  0  0  0  0  0  0  0
   10.5696    0.2584   -0.0725 N   0  0  0  0  0  0  0  0  0  0  0  0
   10.3576    0.5821   -1.3379 N   0  0  0  0  0  0  0  0  0  0  0  0
    9.0268    0.6022   -1.5342 C   0  0  0  0  0  0  0  0  0  0  0  0
    8.4564    0.2792   -0.3408 N   0  0  0  0  0  0  0  0  0  0  0  0
    9.4116    0.0618    0.5811 C   0  0  0  0  0  0  0  0  0  0  0  0
    9.2225   -0.2571    1.7919 O   0  0  0  0  0  0  0  0  0  0  0  0
    7.0629    0.1790   -0.0776 C   0  0  0  0  0  0  0  0  0  0  0  0
    6.3492   -0.9355   -0.4605 C   0  0  0  0  0  0  0  0  0  0  0  0
    4.9994   -1.0364   -0.2073 C   0  0  0  0  0  0  0  0  0  0  0  0
    4.2809   -0.0513    0.4333 C   0  0  0  0  0  0  0  0  0  0  0  0
    5.0121    1.0374    0.7994 C   0  0  0  0  0  0  0  0  0  0  0  0
    6.3644    1.1797    0.5661 C   0  0  0  0  0  0  0  0  0  0  0  0
    2.8881   -0.1241    0.7061 N   0  0  0  0  0  0  0  0  0  0  0  0
    2.0949    0.8820    1.3789 C   0  0  0  0  0  0  0  0  0  0  0  0
    0.9057    1.3311    0.5633 C   0  0  0  0  0  0  0  0  0  0  0  0
    0.1965    0.2215   -0.0338 N   0  0  0  0  0  0  0  0  0  0  0  0
    1.0902   -0.6688   -0.7262 C   0  0  0  0  0  0  0  0  0  0  0  0
    2.0382   -1.2354    0.3391 C   0  0  0  0  0  0  0  0  0  0  0  0
   -1.2059    0.0169    0.0328 C   0  0  0  0  0  0  0  0  0  0  0  0
   -1.8581   -1.0789   -0.4825 C   0  0  0  0  0  0  0  0  0  0  0  0
   -3.2185   -1.2812   -0.4285 C   0  0  0  0  0  0  0  0  0  0  0  0
   -4.0204   -0.3431    0.1762 C   0  0  0  0  0  0  0  0  0  0  0  0
   -5.3869   -0.5191    0.2445 O   0  0  0  0  0  0  0  0  0  0  0  0
   -6.0690   -1.6209   -0.2706 C   0  0  0  0  0  0  0  0  0  0  0  0
   -7.5290   -1.4299    0.0014 C   0  0  2  0  0  0  0  0  0  0  0  0
   -8.3998   -2.5637   -0.5100 C   0  0  0  0  0  0  0  0  0  0  0  0
   -9.5391   -2.0104   -1.0544 O   0  0  0  0  0  0  0  0  0  0  0  0
   -9.4993   -0.5955   -0.8546 C   0  0  2  0  0  0  0  0  0  0  0  0
  -10.2318   -0.0763   -2.0829 C   0  0  0  0  0  0  0  0  0  0  0  0
  -10.4019    1.3051   -2.2188 N   0  0  0  0  0  0  0  0  0  0  0  0
  -11.4502    2.1028   -1.8419 C   0  0  0  0  0  0  0  0  0  0  0  0
  -11.1544    3.3907   -2.1843 N   0  0  0  0  0  0  0  0  0  0  0  0
   -9.9315    3.3325   -2.7599 C   0  0  0  0  0  0  0  0  0  0  0  0
   -9.4702    2.0873   -2.7863 N   0  0  0  0  0  0  0  0  0  0  0  0
   -8.0475   -0.3202   -0.9018 C   0  0  0  0  0  0  0  0  0  0  0  0
  -10.1834   -0.3797    0.4130 C   0  0  0  0  0  0  0  0  0  0  0  0
  -10.3467    0.8069    1.0843 C   0  0  0  0  0  0  0  0  0  0  0  0
   -9.7201    1.9148    0.6175 F   0  0  0  0  0  0  0  0  0  0  0  0
  -11.0433    1.0316    2.2461 C   0  0  0  0  0  0  0  0  0  0  0  0
  -11.6676   -0.0403    2.8434 C   0  0  0  0  0  0  0  0  0  0  0  0
  -12.3689    0.1087    3.9861 F   0  0  0  0  0  0  0  0  0  0  0  0
  -11.5751   -1.2857    2.2649 C   0  0  0  0  0  0  0  0  0  0  0  0
  -10.8555   -1.4015    1.1032 C   0  0  0  0  0  0  0  0  0  0  0  0
   -3.4315    0.7792    0.7137 C   0  0  0  0  0  0  0  0  0  0  0  0
   -2.0617    0.9195    0.6249 C   0  0  0  0  0  0  0  0  0  0  0  0
   12.4519    1.8862   -0.5384 H   0  0  0  0  0  0  0  0  0  0  0  0
   14.0351    2.4525    1.6358 H   0  0  0  0  0  0  0  0  0  0  0  0
   14.5865    1.6783    0.1298 H   0  0  0  0  0  0  0  0  0  0  0  0
   14.1593    0.6114    1.5389 H   0  0  0  0  0  0  0  0  0  0  0  0
   11.1678    3.0239    0.6733 H   0  0  0  0  0  0  0  0  0  0  0  0
   11.8097   -0.2463    1.5667 H   0  0  0  0  0  0  0  0  0  0  0  0
   12.5927   -0.4150   -1.4032 H   0  0  0  0  0  0  0  0  0  0  0  0
   13.7649   -0.7845   -0.1142 H   0  0  0  0  0  0  0  0  0  0  0  0
   11.1175   -2.1874   -0.8026 H   0  0  0  0  0  0  0  0  0  0  0  0
   12.7773   -2.8056   -1.0100 H   0  0  0  0  0  0  0  0  0  0  0  0
   12.1288   -2.6204    0.6699 H   0  0  0  0  0  0  0  0  0  0  0  0
    8.5067    0.8350   -2.4761 H   0  0  0  0  0  0  0  0  0  0  0  0
    6.8659   -1.7385   -0.9677 H   0  0  0  0  0  0  0  0  0  0  0  0
    4.5122   -1.9399   -0.5390 H   0  0  0  0  0  0  0  0  0  0  0  0
    4.6159    1.9027    1.3086 H   0  0  0  0  0  0  0  0  0  0  0  0
    6.9629    2.0333    0.8465 H   0  0  0  0  0  0  0  0  0  0  0  0
    1.6805    0.3645    2.2902 H   0  0  0  0  0  0  0  0  0  0  0  0
    2.6807    1.7226    1.7707 H   0  0  0  0  0  0  0  0  0  0  0  0
    0.2869    1.9407    1.2480 H   0  0  0  0  0  0  0  0  0  0  0  0
    1.3009    1.9565   -0.2749 H   0  0  0  0  0  0  0  0  0  0  0  0
    0.6291   -1.4562   -1.3171 H   0  0  0  0  0  0  0  0  0  0  0  0
    1.7571   -0.0404   -1.3909 H   0  0  0  0  0  0  0  0  0  0  0  0
    1.4024   -1.4999    1.2092 H   0  0  0  0  0  0  0  0  0  0  0  0
    2.5824   -2.1154   -0.0567 H   0  0  0  0  0  0  0  0  0  0  0  0
   -1.3049   -1.8630   -0.9730 H   0  0  0  0  0  0  0  0  0  0  0  0
   -3.6842   -2.1504   -0.8432 H   0  0  0  0  0  0  0  0  0  0  0  0
   -5.7138   -2.5343    0.2745 H   0  0  0  0  0  0  0  0  0  0  0  0
   -5.9223   -1.8203   -1.3324 H   0  0  0  0  0  0  0  0  0  0  0  0
   -7.7826   -1.2273    1.0400 H   0  0  0  0  0  0  0  0  0  0  0  0
   -7.8112   -3.1290   -1.2901 H   0  0  0  0  0  0  0  0  0  0  0  0
   -8.6868   -3.2693    0.2898 H   0  0  0  0  0  0  0  0  0  0  0  0
   -9.6824   -0.4827   -2.9670 H   0  0  0  0  0  0  0  0  0  0  0  0
  -11.2383   -0.5935   -2.0309 H   0  0  0  0  0  0  0  0  0  0  0  0
  -12.3301    1.6976   -1.3576 H   0  0  0  0  0  0  0  0  0  0  0  0
   -9.3821    4.1978   -3.1572 H   0  0  0  0  0  0  0  0  0  0  0  0
   -7.6901   -0.5702   -1.9166 H   0  0  0  0  0  0  0  0  0  0  0  0
   -7.7380    0.6759   -0.5639 H   0  0  0  0  0  0  0  0  0  0  0  0
  -11.1406    1.9734    2.7255 H   0  0  0  0  0  0  0  0  0  0  0  0
  -12.0659   -2.1215    2.7393 H   0  0  0  0  0  0  0  0  0  0  0  0
  -10.8451   -2.4298    0.7111 H   0  0  0  0  0  0  0  0  0  0  0  0
   -4.0826    1.4894    1.1770 H   0  0  0  0  0  0  0  0  0  0  0  0
   -1.7097    1.8337    1.0767 H   0  0  0  0  0  0  0  0  0  0  0  0
  1  2  1  0
  1  3  1  0
  1  4  1  0
  4  5  1  0
  5  6  1  0
  4  7  1  0
  7  8  1  0
  8  9  2  0
  9 10  1  0
 10 11  1  0
 11 12  2  0
 10 13  1  0
 13 14  2  0
 14 15  1  0
 15 16  2  0
 16 17  1  0
 17 18  2  0
 16 19  1  0
 19 20  1  0
 20 21  1  0
 21 22  1  0
 22 23  1  0
 23 24  1  0
 22 25  1  0
 25 26  2  0
 26 27  1  0
 27 28  2  0
 28 29  1  0
 29 30  1  0
 30 31  1  0
 31 32  1  0
 32 33  1  0
 33 34  1  0
 34 35  1  6
 35 36  1  0
 36 37  1  0
 37 38  2  0
 38 39  1  0
 39 40  2  0
 34 41  1  0
 34 42  1  0
 42 43  2  0
 43 44  1  0
 43 45  1  0
 45 46  2  0
 46 47  1  0
 46 48  1  0
 48 49  2  0
 28 50  1  0
 50 51  2  0
 11  7  1  0
 18 13  1  0
 24 19  1  0
 51 25  1  0
 41 31  1  0
 49 42  1  0
 40 36  1  0
  1 52  1  6
  2 53  1  0
  2 54  1  0
  2 55  1  0
  3 56  1  0
  4 57  1  1
  5 58  1  0
  5 59  1  0
  6 60  1  0
  6 61  1  0
  6 62  1  0
  9 63  1  0
 14 64  1  0
 15 65  1  0
 17 66  1  0
 18 67  1  0
 20 68  1  0
 20 69  1  0
 21 70  1  0
 21 71  1  0
 23 72  1  0
 23 73  1  0
 24 74  1  0
 24 75  1  0
 26 76  1  0
 27 77  1  0
 30 78  1  0
 30 79  1  0
 31 80  1  1
 32 81  1  0
 32 82  1  0
 35 83  1  0
 35 84  1  0
 37 85  1  0
 39 86  1  0
 41 87  1  0
 41 88  1  0
 45 89  1  0
 48 90  1  0
 49 91  1  0
 50 92  1  0
 51 93  1  0
M  END
$$$$
