@<TRIPOS>MOLECULE
*****
 59 63 0 0 0
SMALL
GASTEIGER

@<TRIPOS>ATOM
      1 C          10.8329   -1.1272   -0.3293 C.3     1  UNL1        0.0596
      2 S           9.5290   -2.3558   -0.3725 S.O2    1  UNL1       -0.0059
      3 O           9.6315   -3.1183   -1.6673 O.2     1  UNL1       -0.1696
      4 O           9.6247   -3.2628    0.8223 O.2     1  UNL1       -0.1696
      5 C           8.0191   -1.5059   -0.2929 C.ar    1  UNL1        0.0879
      6 C           7.3340   -1.0680   -1.4037 C.ar    1  UNL1       -0.0362
      7 C           6.1338   -0.3950   -1.2790 C.ar    1  UNL1       -0.0491
      8 C           5.5696   -0.1324   -0.0400 C.ar    1  UNL1        0.0226
      9 C           4.3011    0.5809    0.0509 C.ar    1  UNL1        0.2021
     10 N           4.0926    1.9009    0.2333 N.ar    1  UNL1       -0.0561
     11 O           2.8147    2.1452    0.2588 O.2     1  UNL1       -0.3374
     12 C           2.1310    1.0194    0.0976 C.ar    1  UNL1        0.2309
     13 C           0.6503    0.8850    0.0691 C.3     1  UNL1        0.0410
     14 C           0.1001    1.6313   -1.0991 C.3     1  UNL1       -0.0257
     15 C          -1.1382    2.4264   -0.7680 C.3     1  UNL1        0.0168
     16 N          -2.0029    1.7611    0.1649 N.am    1  UNL1       -0.2856
     17 C          -3.3905    1.7152   -0.0719 C.2     1  UNL1        0.3024
     18 O          -3.9202    2.2440   -1.0901 O.2     1  UNL1       -0.2526
     19 N          -4.2781    1.0658    0.8298 N.am    1  UNL1       -0.2958
     20 C          -5.6933    0.9860    0.6445 C.3     1  UNL1        0.0320
     21 C          -6.6366    0.9207    1.7810 C.3     1  UNL1       -0.0254
     22 C          -6.2995   -0.3488    1.1019 C.3     1  UNL1        0.0043
     23 C          -7.1853   -0.9386    0.0825 C.ar    1  UNL1       -0.0425
     24 C          -8.0647   -0.2030   -0.6785 C.ar    1  UNL1       -0.0582
     25 C          -8.8639   -0.8242   -1.6147 C.ar    1  UNL1       -0.0615
     26 C          -8.8251   -2.1961   -1.8350 C.ar    1  UNL1       -0.0617
     27 C          -7.9424   -2.9289   -1.0701 C.ar    1  UNL1       -0.0615
     28 C          -7.1437   -2.2968   -0.1324 C.ar    1  UNL1       -0.0582
     29 C          -1.4506    1.1441    1.3377 C.3     1  UNL1        0.0168
     30 C           0.0325    1.3151    1.3826 C.3     1  UNL1       -0.0257
     31 N           3.0706    0.0471   -0.0315 N.ar    1  UNL1       -0.1911
     32 C           6.2582   -0.5722    1.0719 C.ar    1  UNL1       -0.0491
     33 C           7.4618   -1.2469    0.9418 C.ar    1  UNL1       -0.0362
     34 H          11.8210   -1.5898   -0.4570 H       1  UNL1        0.0468
     35 H          10.5854   -0.3973   -1.1261 H       1  UNL1        0.0468
     36 H          10.7647   -0.5754    0.6279 H       1  UNL1        0.0468
     37 H           7.7790   -1.2753   -2.3814 H       1  UNL1        0.0637
     38 H           5.5916   -0.0488   -2.1534 H       1  UNL1        0.0625
     39 H           0.4297   -0.1995   -0.0810 H       1  UNL1        0.0397
     40 H          -0.1156    1.0076   -1.9695 H       1  UNL1        0.0288
     41 H           0.8704    2.3865   -1.4283 H       1  UNL1        0.0288
     42 H          -1.6518    2.6493   -1.7387 H       1  UNL1        0.0465
     43 H          -0.8348    3.4403   -0.3781 H       1  UNL1        0.0465
     44 H          -3.8579    0.6235    1.6760 H       1  UNL1        0.1505
     45 H          -6.0800    1.4665   -0.2657 H       1  UNL1        0.0505
     46 H          -6.2391    1.0479    2.8081 H       1  UNL1        0.0290
     47 H          -7.6520    1.3931    1.6589 H       1  UNL1        0.0290
     48 H          -5.6480   -1.0549    1.6283 H       1  UNL1        0.0367
     49 H          -8.0917    0.8594   -0.5048 H       1  UNL1        0.0620
     50 H          -9.5439   -0.2203   -2.1966 H       1  UNL1        0.0618
     51 H          -9.4545   -2.6411   -2.5637 H       1  UNL1        0.0618
     52 H          -7.8889   -4.0036   -1.2189 H       1  UNL1        0.0618
     53 H          -6.4686   -2.8869    0.4472 H       1  UNL1        0.0620
     54 H          -1.6777    0.0575    1.3537 H       1  UNL1        0.0465
     55 H          -1.9161    1.5831    2.2432 H       1  UNL1        0.0465
     56 H           0.4206    0.6870    2.2092 H       1  UNL1        0.0288
     57 H           0.3356    2.3553    1.5825 H       1  UNL1        0.0288
     58 H           5.8115   -0.3634    2.0353 H       1  UNL1        0.0625
     59 H           7.9586   -1.5687    1.8433 H       1  UNL1        0.0637
@<TRIPOS>BOND
     1     1     2    1
     2     2     3    2
     3     2     4    2
     4     2     5    1
     5     5     6   ar
     6     6     7   ar
     7     7     8   ar
     8     8     9    1
     9     9    10   ar
    10    10    11   ar
    11    11    12   ar
    12    12    13    1
    13    13    14    1
    14    14    15    1
    15    15    16    1
    16    16    17   am
    17    17    18    2
    18    17    19   am
    19    19    20    1
    20    20    21    1
    21    21    22    1
    22    22    23    1
    23    23    24   ar
    24    24    25   ar
    25    25    26   ar
    26    26    27   ar
    27    27    28   ar
    28    16    29    1
    29    29    30    1
    30    12    31   ar
    31     8    32   ar
    32    32    33   ar
    33    33     5   ar
    34    31     9   ar
    35    30    13    1
    36    22    20    1
    37    28    23   ar
    38     1    34    1
    39     1    35    1
    40     1    36    1
    41     6    37    1
    42     7    38    1
    43    13    39    1
    44    14    40    1
    45    14    41    1
    46    15    42    1
    47    15    43    1
    48    19    44    1
    49    20    45    1
    50    21    46    1
    51    21    47    1
    52    22    48    1
    53    24    49    1
    54    25    50    1
    55    26    51    1
    56    27    52    1
    57    28    53    1
    58    29    54    1
    59    29    55    1
    60    30    56    1
    61    30    57    1
    62    32    58    1
    63    33    59    1
