
     RDKit          3D

 59 63  0  0  0  0  0  0  0  0999 V2000
   10.8329   -1.1272   -0.3293 C   0  0  0  0  0  0  0  0  0  0  0  0
    9.5290   -2.3558   -0.3725 S   0  0  0  0  0  6  0  0  0  0  0  0
    9.6315   -3.1183   -1.6673 O   0  0  0  0  0  0  0  0  0  0  0  0
    9.6247   -3.2628    0.8223 O   0  0  0  0  0  0  0  0  0  0  0  0
    8.0191   -1.5059   -0.2929 C   0  0  0  0  0  0  0  0  0  0  0  0
    7.3340   -1.0680   -1.4037 C   0  0  0  0  0  0  0  0  0  0  0  0
    6.1338   -0.3950   -1.2790 C   0  0  0  0  0  0  0  0  0  0  0  0
    5.5696   -0.1324   -0.0400 C   0  0  0  0  0  0  0  0  0  0  0  0
    4.3011    0.5809    0.0509 C   0  0  0  0  0  0  0  0  0  0  0  0
    4.0926    1.9009    0.2333 N   0  0  0  0  0  0  0  0  0  0  0  0
    2.8147    2.1452    0.2588 O   0  0  0  0  0  0  0  0  0  0  0  0
    2.1310    1.0194    0.0976 C   0  0  0  0  0  0  0  0  0  0  0  0
    0.6503    0.8850    0.0691 C   0  0  0  0  0  0  0  0  0  0  0  0
    0.1001    1.6313   -1.0991 C   0  0  0  0  0  0  0  0  0  0  0  0
   -1.1382    2.4264   -0.7680 C   0  0  0  0  0  0  0  0  0  0  0  0
   -2.0029    1.7611    0.1649 N   0  0  0  0  0  0  0  0  0  0  0  0
   -3.3905    1.7152   -0.0719 C   0  0  0  0  0  0  0  0  0  0  0  0
   -3.9202    2.2440   -1.0901 O   0  0  0  0  0  0  0  0  0  0  0  0
   -4.2781    1.0658    0.8298 N   0  0  0  0  0  0  0  0  0  0  0  0
   -5.6933    0.9860    0.6445 C   0  0  0  0  0  0  0  0  0  0  0  0
   -6.6366    0.9207    1.7810 C   0  0  0  0  0  0  0  0  0  0  0  0
   -6.2995   -0.3488    1.1019 C   0  0  0  0  0  0  0  0  0  0  0  0
   -7.1853   -0.9386    0.0825 C   0  0  0  0  0  0  0  0  0  0  0  0
   -8.0647   -0.2030   -0.6785 C   0  0  0  0  0  0  0  0  0  0  0  0
   -8.8639   -0.8242   -1.6147 C   0  0  0  0  0  0  0  0  0  0  0  0
   -8.8251   -2.1961   -1.8350 C   0  0  0  0  0  0  0  0  0  0  0  0
   -7.9424   -2.9289   -1.0701 C   0  0  0  0  0  0  0  0  0  0  0  0
   -7.1437   -2.2968   -0.1324 C   0  0  0  0  0  0  0  0  0  0  0  0
   -1.4506    1.1441    1.3377 C   0  0  0  0  0  0  0  0  0  0  0  0
    0.0325    1.3151    1.3826 C   0  0  0  0  0  0  0  0  0  0  0  0
    3.0706    0.0471   -0.0315 N   0  0  0  0  0  0  0  0  0  0  0  0
    6.2582   -0.5722    1.0719 C   0  0  0  0  0  0  0  0  0  0  0  0
    7.4618   -1.2469    0.9418 C   0  0  0  0  0  0  0  0  0  0  0  0
   11.8210   -1.5898   -0.4570 H   0  0  0  0  0  0  0  0  0  0  0  0
   10.5854   -0.3973   -1.1261 H   0  0  0  0  0  0  0  0  0  0  0  0
   10.7647   -0.5754    0.6279 H   0  0  0  0  0  0  0  0  0  0  0  0
    7.7790   -1.2753   -2.3814 H   0  0  0  0  0  0  0  0  0  0  0  0
    5.5916   -0.0488   -2.1534 H   0  0  0  0  0  0  0  0  0  0  0  0
    0.4297   -0.1995   -0.0810 H   0  0  0  0  0  0  0  0  0  0  0  0
   -0.1156    1.0076   -1.9695 H   0  0  0  0  0  0  0  0  0  0  0  0
    0.8704    2.3865   -1.4283 H   0  0  0  0  0  0  0  0  0  0  0  0
   -1.6518    2.6493   -1.7387 H   0  0  0  0  0  0  0  0  0  0  0  0
   -0.8348    3.4403   -0.3781 H   0  0  0  0  0  0  0  0  0  0  0  0
   -3.8579    0.6235    1.6760 H   0  0  0  0  0  0  0  0  0  0  0  0
   -6.0800    1.4665   -0.2657 H   0  0  0  0  0  0  0  0  0  0  0  0
   -6.2391    1.0479    2.8081 H   0  0  0  0  0  0  0  0  0  0  0  0
   -7.6520    1.3931    1.6589 H   0  0  0  0  0  0  0  0  0  0  0  0
   -5.6480   -1.0549    1.6283 H   0  0  0  0  0  0  0  0  0  0  0  0
   -8.0917    0.8594   -0.5048 H   0  0  0  0  0  0  0  0  0  0  0  0
   -9.5439   -0.2203   -2.1966 H   0  0  0  0  0  0  0  0  0  0  0  0
   -9.4545   -2.6411   -2.5637 H   0  0  0  0  0  0  0  0  0  0  0  0
   -7.8889   -4.0036   -1.2189 H   0  0  0  0  0  0  0  0  0  0  0  0
   -6.4686   -2.8869    0.4472 H   0  0  0  0  0  0  0  0  0  0  0  0
   -1.6777    0.0575    1.3537 H   0  0  0  0  0  0  0  0  0  0  0  0
   -1.9161    1.5831    2.2432 H   0  0  0  0  0  0  0  0  0  0  0  0
    0.4206    0.6870    2.2092 H   0  0  0  0  0  0  0  0  0  0  0  0
    0.3356    2.3553    1.5825 H   0  0  0  0  0  0  0  0  0  0  0  0
    5.8115   -0.3634    2.0353 H   0  0  0  0  0  0  0  0  0  0  0  0
    7.9586   -1.5687    1.8433 H   0  0  0  0  0  0  0  0  0  0  0  0
  1  2  1  0
  2  3  2  0
  2  4  2  0
  2  5  1  0
  5  6  2  0
  6  7  1  0
  7  8  2  0
  8  9  1  0
  9 10  2  0
 10 11  1  0
 11 12  1  0
 12 13  1  0
 13 14  1  0
 14 15  1  0
 15 16  1  0
 16 17  1  0
 17 18  2  0
 17 19  1  0
 19 20  1  0
 20 21  1  0
 21 22  1  0
 22 23  1  0
 23 24  2  0
 24 25  1  0
 25 26  2  0
 26 27  1  0
 27 28  2  0
 16 29  1  0
 29 30  1  0
 12 31  2  0
  8 32  1  0
 32 33  2  0
 33  5  1  0
 31  9  1  0
 30 13  1  0
 22 20  1  0
 28 23  1  0
  1 34  1  0
  1 35  1  0
  1 36  1  0
  6 37  1  0
  7 38  1  0
 13 39  1  0
 14 40  1  0
 14 41  1  0
 15 42  1  0
 15 43  1  0
 19 44  1  0
 20 45  1  0
 21 46  1  0
 21 47  1  0
 22 48  1  0
 24 49  1  0
 25 50  1  0
 26 51  1  0
 27 52  1  0
 28 53  1  0
 29 54  1  0
 29 55  1  0
 30 56  1  0
 30 57  1  0
 32 58  1  0
 33 59  1  0
M  END
$$$$
