
     RDKit          3D

 67 70  0  0  0  0  0  0  0  0999 V2000
    8.1783   -0.2408    0.8736 C   0  0  0  0  0  0  0  0  0  0  0  0
    8.1586   -0.8159   -0.5268 C   0  0  0  0  0  0  0  0  0  0  0  0
    6.9944   -1.5382   -0.7932 O   0  0  0  0  0  0  0  0  0  0  0  0
    5.7165   -0.9881   -0.7427 C   0  0  0  0  0  0  0  0  0  0  0  0
    4.6253   -1.7839   -1.0227 C   0  0  0  0  0  0  0  0  0  0  0  0
    3.3226   -1.2769   -0.9850 C   0  0  0  0  0  0  0  0  0  0  0  0
    3.1105    0.0480   -0.6618 C   0  0  0  0  0  0  0  0  0  0  0  0
    1.7503    0.6285   -0.6092 C   0  0  0  0  0  0  0  0  0  0  0  0
    1.5307    1.9531   -0.9173 C   0  0  0  0  0  0  0  0  0  0  0  0
    0.2547    2.4723   -0.8612 C   0  0  0  0  0  0  0  0  0  0  0  0
   -0.8413    1.7170   -0.5040 C   0  0  0  0  0  0  0  0  0  0  0  0
   -2.1924    2.2542   -0.4413 C   0  0  0  0  0  0  0  0  0  0  0  0
   -2.6521    2.8019    0.7381 C   0  0  0  0  0  0  0  0  0  0  0  0
   -3.9297    3.3340    0.8727 C   0  0  0  0  0  0  0  0  0  0  0  0
   -4.4047    3.9188    2.1517 C   0  0  0  0  0  0  0  0  0  0  0  0
   -4.1198    5.3515    2.2596 C   0  0  0  0  0  0  0  0  0  0  0  0
   -3.5333    5.9765    1.3413 O   0  0  0  0  0  0  0  0  0  0  0  0
   -4.4952    6.0576    3.3901 O   0  0  0  0  0  1  0  0  0  0  0  0
   -4.7451    3.2956   -0.2415 C   0  0  0  0  0  0  0  0  0  0  0  0
   -4.2821    2.7495   -1.4118 C   0  0  0  0  0  0  0  0  0  0  0  0
   -3.0112    2.2189   -1.5497 C   0  0  0  0  0  0  0  0  0  0  0  0
   -2.5959    1.6779   -2.7617 O   0  0  0  0  0  0  0  0  0  0  0  0
   -3.4030    1.6288   -3.9003 C   0  0  0  0  0  0  0  0  0  0  0  0
   -0.6265    0.3933   -0.1954 C   0  0  0  0  0  0  0  0  0  0  0  0
   -1.7898   -0.4310    0.1896 C   0  0  0  0  0  0  0  0  0  0  0  0
   -1.3744   -1.8143    0.4817 N   0  0  0  0  0  0  0  0  0  0  0  0
   -1.3249   -2.7371   -0.6130 C   0  0  0  0  0  0  0  0  0  0  0  0
   -2.5756   -3.5385   -0.8282 C   0  0  0  0  0  0  0  0  0  0  0  0
   -1.0118   -2.1314    1.7942 C   0  0  0  0  0  0  0  0  0  0  0  0
   -1.0194   -1.1100    2.6431 O   0  0  0  0  0  0  0  0  0  0  0  0
   -0.6208   -3.3739    2.4283 C   0  0  0  0  0  0  0  0  0  0  0  0
   -1.8313   -4.3452    2.5693 C   0  0  0  0  0  0  0  0  0  0  0  0
   -0.5484   -4.7239    1.9268 C   0  0  0  0  0  0  0  0  0  0  0  0
    0.6666   -0.1378   -0.2509 C   0  0  0  0  0  0  0  0  0  0  0  0
    4.2327    0.8045   -0.3897 C   0  0  0  0  0  0  0  0  0  0  0  0
    5.4801    0.2990   -0.4309 N   0  0  0  0  0  0  0  0  0  0  0  0
    7.2637   -0.4679    1.4380 H   0  0  0  0  0  0  0  0  0  0  0  0
    8.3087    0.8710    0.7565 H   0  0  0  0  0  0  0  0  0  0  0  0
    9.0381   -0.5860    1.4714 H   0  0  0  0  0  0  0  0  0  0  0  0
    8.3444   -0.0357   -1.3066 H   0  0  0  0  0  0  0  0  0  0  0  0
    9.0189   -1.5207   -0.5881 H   0  0  0  0  0  0  0  0  0  0  0  0
    4.7895   -2.8232   -1.2764 H   0  0  0  0  0  0  0  0  0  0  0  0
    2.4657   -1.9122   -1.2075 H   0  0  0  0  0  0  0  0  0  0  0  0
    2.3349    2.5866   -1.1999 H   0  0  0  0  0  0  0  0  0  0  0  0
    0.0509    3.5268   -1.1022 H   0  0  0  0  0  0  0  0  0  0  0  0
   -2.0222    2.8407    1.6280 H   0  0  0  0  0  0  0  0  0  0  0  0
   -5.4780    3.6756    2.2892 H   0  0  0  0  0  0  0  0  0  0  0  0
   -3.8428    3.4115    2.9881 H   0  0  0  0  0  0  0  0  0  0  0  0
   -5.7471    3.7101   -0.1448 H   0  0  0  0  0  0  0  0  0  0  0  0
   -4.9441    2.7273   -2.2872 H   0  0  0  0  0  0  0  0  0  0  0  0
   -4.1544    0.8123   -3.7464 H   0  0  0  0  0  0  0  0  0  0  0  0
   -2.8227    1.3358   -4.7985 H   0  0  0  0  0  0  0  0  0  0  0  0
   -3.9481    2.5874   -4.0598 H   0  0  0  0  0  0  0  0  0  0  0  0
   -2.2862    0.0207    1.0747 H   0  0  0  0  0  0  0  0  0  0  0  0
   -2.5162   -0.4418   -0.6222 H   0  0  0  0  0  0  0  0  0  0  0  0
   -0.4692   -3.4194   -0.4917 H   0  0  0  0  0  0  0  0  0  0  0  0
   -1.1740   -2.1513   -1.5939 H   0  0  0  0  0  0  0  0  0  0  0  0
   -2.9178   -3.5372   -1.8850 H   0  0  0  0  0  0  0  0  0  0  0  0
   -3.3754   -3.2085   -0.1320 H   0  0  0  0  0  0  0  0  0  0  0  0
   -2.3622   -4.5955   -0.5911 H   0  0  0  0  0  0  0  0  0  0  0  0
   -0.2036   -3.2073    3.4830 H   0  0  0  0  0  0  0  0  0  0  0  0
   -2.0746   -4.7270    3.5738 H   0  0  0  0  0  0  0  0  0  0  0  0
   -2.7060   -4.1825    1.9464 H   0  0  0  0  0  0  0  0  0  0  0  0
   -0.6199   -5.1218    0.9260 H   0  0  0  0  0  0  0  0  0  0  0  0
    0.0627   -5.4443    2.5807 H   0  0  0  0  0  0  0  0  0  0  0  0
    0.8312   -1.1695   -0.0100 H   0  0  0  0  0  0  0  0  0  0  0  0
    4.0632    1.8517   -0.1343 H   0  0  0  0  0  0  0  0  0  0  0  0
  1  2  1  0
  2  3  1  0
  3  4  1  0
  4  5  2  0
  5  6  1  0
  6  7  2  0
  7  8  1  0
  8  9  2  0
  9 10  1  0
 10 11  2  0
 11 12  1  0
 12 13  2  0
 13 14  1  0
 14 15  1  0
 15 16  1  0
 16 17  2  0
 16 18  1  0
 14 19  2  0
 19 20  1  0
 20 21  2  0
 21 22  1  0
 22 23  1  0
 11 24  1  0
 24 25  1  0
 25 26  1  0
 26 27  1  0
 27 28  1  0
 26 29  1  0
 29 30  2  0
 29 31  1  0
 31 32  1  0
 32 33  1  0
 24 34  2  0
  7 35  1  0
 35 36  2  0
 36  4  1  0
 34  8  1  0
 21 12  1  0
 33 31  1  0
  1 37  1  0
  1 38  1  0
  1 39  1  0
  2 40  1  0
  2 41  1  0
  5 42  1  0
  6 43  1  0
  9 44  1  0
 10 45  1  0
 13 46  1  0
 15 47  1  0
 15 48  1  0
 19 49  1  0
 20 50  1  0
 23 51  1  0
 23 52  1  0
 23 53  1  0
 25 54  1  0
 25 55  1  0
 27 56  1  0
 27 57  1  0
 28 58  1  0
 28 59  1  0
 28 60  1  0
 31 61  1  0
 32 62  1  0
 32 63  1  0
 33 64  1  0
 33 65  1  0
 34 66  1  0
 35 67  1  0
M  CHG  1  18  -1
M  END
$$$$
