@<TRIPOS>MOLECULE
*****
 67 70 0 0 0
SMALL
GASTEIGER

@<TRIPOS>ATOM
      1 C           8.1783   -0.2408    0.8736 C.3     1  UNL1       -0.0306
      2 C           8.1586   -0.8159   -0.5268 C.3     1  UNL1        0.0884
      3 O           6.9944   -1.5382   -0.7932 O.3     1  UNL1       -0.4766
      4 C           5.7165   -0.9881   -0.7427 C.ar    1  UNL1        0.2147
      5 C           4.6253   -1.7839   -1.0227 C.ar    1  UNL1        0.0006
      6 C           3.3226   -1.2769   -0.9850 C.ar    1  UNL1       -0.0476
      7 C           3.1105    0.0480   -0.6618 C.ar    1  UNL1        0.0005
      8 C           1.7503    0.6285   -0.6092 C.ar    1  UNL1       -0.0161
      9 C           1.5307    1.9531   -0.9173 C.ar    1  UNL1       -0.0534
     10 C           0.2547    2.4723   -0.8612 C.ar    1  UNL1       -0.0530
     11 C          -0.8413    1.7170   -0.5040 C.ar    1  UNL1       -0.0097
     12 C          -2.1924    2.2542   -0.4413 C.ar    1  UNL1        0.0244
     13 C          -2.6521    2.8019    0.7381 C.ar    1  UNL1       -0.0470
     14 C          -3.9297    3.3340    0.8727 C.ar    1  UNL1       -0.0411
     15 C          -4.4047    3.9188    2.1517 C.3     1  UNL1        0.0121
     16 C          -4.1198    5.3515    2.2596 C.2     1  UNL1        0.0460
     17 O          -3.5333    5.9765    1.3413 O.co2   1  UNL1       -0.5495
     18 O          -4.4952    6.0576    3.3901 O.co2   1  UNL1       -0.5495
     19 C          -4.7451    3.2956   -0.2415 C.ar    1  UNL1       -0.0547
     20 C          -4.2821    2.7495   -1.4118 C.ar    1  UNL1       -0.0191
     21 C          -3.0112    2.2189   -1.5497 C.ar    1  UNL1        0.1278
     22 O          -2.5959    1.6779   -2.7617 O.3     1  UNL1       -0.4945
     23 C          -3.4030    1.6288   -3.9003 C.3     1  UNL1        0.0788
     24 C          -0.6265    0.3933   -0.1954 C.ar    1  UNL1       -0.0217
     25 C          -1.7898   -0.4310    0.1896 C.3     1  UNL1        0.0403
     26 N          -1.3744   -1.8143    0.4817 N.am    1  UNL1       -0.2972
     27 C          -1.3249   -2.7371   -0.6130 C.3     1  UNL1        0.0122
     28 C          -2.5756   -3.5385   -0.8282 C.3     1  UNL1       -0.0493
     29 C          -1.0118   -2.1314    1.7942 C.2     1  UNL1        0.2189
     30 O          -1.0194   -1.1100    2.6431 O.2     1  UNL1       -0.2753
     31 C          -0.6208   -3.3739    2.4283 C.3     1  UNL1        0.0358
     32 C          -1.8313   -4.3452    2.5693 C.3     1  UNL1       -0.0412
     33 C          -0.5484   -4.7239    1.9268 C.3     1  UNL1       -0.0412
     34 C           0.6666   -0.1378   -0.2509 C.ar    1  UNL1       -0.0487
     35 C           4.2327    0.8045   -0.3897 C.ar    1  UNL1        0.0391
     36 N           5.4801    0.2990   -0.4309 N.ar    1  UNL1       -0.2207
     37 H           7.2637   -0.4679    1.4380 H       1  UNL1        0.0262
     38 H           8.3087    0.8710    0.7565 H       1  UNL1        0.0262
     39 H           9.0381   -0.5860    1.4714 H       1  UNL1        0.0262
     40 H           8.3444   -0.0357   -1.3066 H       1  UNL1        0.0694
     41 H           9.0189   -1.5207   -0.5881 H       1  UNL1        0.0694
     42 H           4.7895   -2.8232   -1.2764 H       1  UNL1        0.0671
     43 H           2.4657   -1.9122   -1.2075 H       1  UNL1        0.0626
     44 H           2.3349    2.5866   -1.1999 H       1  UNL1        0.0624
     45 H           0.0509    3.5268   -1.1022 H       1  UNL1        0.0624
     46 H          -2.0222    2.8407    1.6280 H       1  UNL1        0.0628
     47 H          -5.4780    3.6756    2.2892 H       1  UNL1        0.0373
     48 H          -3.8428    3.4115    2.9881 H       1  UNL1        0.0373
     49 H          -5.7471    3.7101   -0.1448 H       1  UNL1        0.0622
     50 H          -4.9441    2.7273   -2.2872 H       1  UNL1        0.0654
     51 H          -4.1544    0.8123   -3.7464 H       1  UNL1        0.0660
     52 H          -2.8227    1.3358   -4.7985 H       1  UNL1        0.0660
     53 H          -3.9481    2.5874   -4.0598 H       1  UNL1        0.0660
     54 H          -2.2862    0.0207    1.0747 H       1  UNL1        0.0514
     55 H          -2.5162   -0.4418   -0.6222 H       1  UNL1        0.0514
     56 H          -0.4692   -3.4194   -0.4917 H       1  UNL1        0.0462
     57 H          -1.1740   -2.1513   -1.5939 H       1  UNL1        0.0462
     58 H          -2.9178   -3.5372   -1.8850 H       1  UNL1        0.0245
     59 H          -3.3754   -3.2085   -0.1320 H       1  UNL1        0.0245
     60 H          -2.3622   -4.5955   -0.5911 H       1  UNL1        0.0245
     61 H          -0.2036   -3.2073    3.4830 H       1  UNL1        0.0394
     62 H          -2.0746   -4.7270    3.5738 H       1  UNL1        0.0273
     63 H          -2.7060   -4.1825    1.9464 H       1  UNL1        0.0273
     64 H          -0.6199   -5.1218    0.9260 H       1  UNL1        0.0273
     65 H           0.0627   -5.4443    2.5807 H       1  UNL1        0.0273
     66 H           0.8312   -1.1695   -0.0100 H       1  UNL1        0.0627
     67 H           4.0632    1.8517   -0.1343 H       1  UNL1        0.0837
@<TRIPOS>UNITY_ATOM_ATTR
18 1
charge -1
@<TRIPOS>BOND
     1     1     2    1
     2     2     3    1
     3     3     4    1
     4     4     5   ar
     5     5     6   ar
     6     6     7   ar
     7     7     8    1
     8     8     9   ar
     9     9    10   ar
    10    10    11   ar
    11    11    12    1
    12    12    13   ar
    13    13    14   ar
    14    14    15    1
    15    15    16    1
    16    16    17   ar
    17    16    18   ar
    18    14    19   ar
    19    19    20   ar
    20    20    21   ar
    21    21    22    1
    22    22    23    1
    23    11    24   ar
    24    24    25    1
    25    25    26    1
    26    26    27    1
    27    27    28    1
    28    26    29   am
    29    29    30    2
    30    29    31    1
    31    31    32    1
    32    32    33    1
    33    24    34   ar
    34     7    35   ar
    35    35    36   ar
    36    36     4   ar
    37    34     8   ar
    38    21    12   ar
    39    33    31    1
    40     1    37    1
    41     1    38    1
    42     1    39    1
    43     2    40    1
    44     2    41    1
    45     5    42    1
    46     6    43    1
    47     9    44    1
    48    10    45    1
    49    13    46    1
    50    15    47    1
    51    15    48    1
    52    19    49    1
    53    20    50    1
    54    23    51    1
    55    23    52    1
    56    23    53    1
    57    25    54    1
    58    25    55    1
    59    27    56    1
    60    27    57    1
    61    28    58    1
    62    28    59    1
    63    28    60    1
    64    31    61    1
    65    32    62    1
    66    32    63    1
    67    33    64    1
    68    33    65    1
    69    34    66    1
    70    35    67    1
