
     RDKit          3D

 66 67  0  0  0  0  0  0  0  0999 V2000
   -2.5816    5.8468    0.1209 C   0  0  0  0  0  0  0  0  0  0  0  0
   -2.6033    5.0587   -1.1746 C   0  0  0  0  0  0  0  0  0  0  0  0
   -3.9833    4.4925   -1.4561 C   0  0  0  0  0  0  0  0  0  0  0  0
   -2.1170    5.9448   -2.2950 C   0  0  0  0  0  0  0  0  0  0  0  0
   -1.6333    3.9279   -0.9724 C   0  0  0  0  0  0  0  0  0  0  0  0
   -0.5933    3.5829   -1.5549 O   0  0  0  0  0  0  0  0  0  0  0  0
   -1.9077    3.0549    0.0696 O   0  0  0  0  0  0  0  0  0  0  0  0
   -1.0719    1.9417    0.3718 C   0  0  0  0  0  0  0  0  0  0  0  0
   -1.6252    1.2913    1.4502 O   0  0  0  0  0  0  0  0  0  0  0  0
   -0.7885   -0.0569    1.9682 P   0  0  0  0  0  0  0  0  0  0  0  0
   -0.8434   -0.0855    3.4891 O   0  0  0  0  0  0  0  0  0  0  0  0
    0.9800    0.0026    1.5208 C   0  0  0  0  0  0  0  0  0  0  0  0
    1.1552   -0.1383    0.1595 O   0  0  0  0  0  0  0  0  0  0  0  0
    2.4718   -0.0583   -0.1744 C   0  0  0  0  0  0  0  0  0  0  0  0
    3.3246   -1.1210    0.4722 C   0  0  0  0  0  0  0  0  0  0  0  0
    4.7154   -0.9705    0.0423 N   0  0  0  0  0  0  0  0  0  0  0  0
    5.1902   -1.5974   -1.0537 C   0  0  0  0  0  0  0  0  0  0  0  0
    6.4816   -1.2869   -1.2138 N   0  0  0  0  0  0  0  0  0  0  0  0
    6.8500   -0.4673   -0.2363 C   0  0  0  0  0  0  0  0  0  0  0  0
    8.0318    0.1762    0.1202 C   0  0  0  0  0  0  0  0  0  0  0  0
    9.1194   -0.0784   -0.7370 N   0  0  0  0  0  0  0  0  0  0  0  0
    8.0603    0.9735    1.2229 N   0  0  0  0  0  0  0  0  0  0  0  0
    6.9301    1.1363    1.9712 C   0  0  0  0  0  0  0  0  0  0  0  0
    5.7567    0.5213    1.6508 N   0  0  0  0  0  0  0  0  0  0  0  0
    5.7240   -0.2640    0.5668 C   0  0  0  0  0  0  0  0  0  0  0  0
   -1.4044   -1.5092    1.4004 O   0  0  0  0  0  0  0  0  0  0  0  0
   -2.3432   -1.3870    0.4025 C   0  0  0  0  0  0  0  0  0  0  0  0
   -2.8525   -2.6301   -0.0647 O   0  0  0  0  0  0  0  0  0  0  0  0
   -3.5083   -3.5128    0.7821 C   0  0  0  0  0  0  0  0  0  0  0  0
   -3.6577   -3.2040    2.0040 O   0  0  0  0  0  0  0  0  0  0  0  0
   -3.9537   -4.7400    0.0913 C   0  0  0  0  0  0  0  0  0  0  0  0
   -2.7595   -5.4669   -0.4921 C   0  0  0  0  0  0  0  0  0  0  0  0
   -5.0224   -4.4693   -0.9471 C   0  0  0  0  0  0  0  0  0  0  0  0
   -4.6245   -5.6129    1.1586 C   0  0  0  0  0  0  0  0  0  0  0  0
   -1.8324    6.6541    0.0402 H   0  0  0  0  0  0  0  0  0  0  0  0
   -2.3649    5.1573    0.9682 H   0  0  0  0  0  0  0  0  0  0  0  0
   -3.5594    6.3255    0.3201 H   0  0  0  0  0  0  0  0  0  0  0  0
   -4.4163    4.8727   -2.4026 H   0  0  0  0  0  0  0  0  0  0  0  0
   -4.6192    4.7300   -0.5729 H   0  0  0  0  0  0  0  0  0  0  0  0
   -3.9669    3.3892   -1.5324 H   0  0  0  0  0  0  0  0  0  0  0  0
   -1.6628    6.8840   -1.8916 H   0  0  0  0  0  0  0  0  0  0  0  0
   -1.3631    5.4263   -2.9372 H   0  0  0  0  0  0  0  0  0  0  0  0
   -2.9376    6.2188   -3.0016 H   0  0  0  0  0  0  0  0  0  0  0  0
   -0.1116    2.3873    0.7169 H   0  0  0  0  0  0  0  0  0  0  0  0
   -0.8917    1.3149   -0.5087 H   0  0  0  0  0  0  0  0  0  0  0  0
    1.5102    0.8440    1.9745 H   0  0  0  0  0  0  0  0  0  0  0  0
    1.4018   -0.9317    2.0028 H   0  0  0  0  0  0  0  0  0  0  0  0
    2.9015    0.9504    0.0522 H   0  0  0  0  0  0  0  0  0  0  0  0
    2.5779   -0.2451   -1.2856 H   0  0  0  0  0  0  0  0  0  0  0  0
    3.3246   -1.0621    1.5937 H   0  0  0  0  0  0  0  0  0  0  0  0
    2.9293   -2.1088    0.1690 H   0  0  0  0  0  0  0  0  0  0  0  0
    4.6600   -2.2600   -1.7369 H   0  0  0  0  0  0  0  0  0  0  0  0
   10.0962   -0.4125   -0.6127 H   0  0  0  0  0  0  0  0  0  0  0  0
    8.9720    0.0919   -1.7724 H   0  0  0  0  0  0  0  0  0  0  0  0
    7.1022    1.7880    2.8042 H   0  0  0  0  0  0  0  0  0  0  0  0
   -1.8043   -0.9188   -0.4710 H   0  0  0  0  0  0  0  0  0  0  0  0
   -3.1778   -0.7495    0.7369 H   0  0  0  0  0  0  0  0  0  0  0  0
   -1.8150   -4.9095   -0.3320 H   0  0  0  0  0  0  0  0  0  0  0  0
   -2.6423   -6.4853   -0.0733 H   0  0  0  0  0  0  0  0  0  0  0  0
   -2.8777   -5.5523   -1.5960 H   0  0  0  0  0  0  0  0  0  0  0  0
   -5.6287   -3.6386   -0.5572 H   0  0  0  0  0  0  0  0  0  0  0  0
   -5.6289   -5.3941   -1.0402 H   0  0  0  0  0  0  0  0  0  0  0  0
   -4.6077   -4.2805   -1.9520 H   0  0  0  0  0  0  0  0  0  0  0  0
   -3.8812   -6.2175    1.7094 H   0  0  0  0  0  0  0  0  0  0  0  0
   -5.4183   -6.2516    0.7022 H   0  0  0  0  0  0  0  0  0  0  0  0
   -5.1843   -4.9110    1.8228 H   0  0  0  0  0  0  0  0  0  0  0  0
  1  2  1  0
  2  3  1  0
  2  4  1  0
  2  5  1  0
  5  6  2  0
  5  7  1  0
  7  8  1  0
  8  9  1  0
  9 10  1  0
 10 11  2  0
 10 12  1  0
 12 13  1  0
 13 14  1  0
 14 15  1  0
 15 16  1  0
 16 17  1  0
 17 18  2  0
 18 19  1  0
 19 20  2  0
 20 21  1  0
 20 22  1  0
 22 23  2  0
 23 24  1  0
 24 25  2  0
 10 26  1  0
 26 27  1  0
 27 28  1  0
 28 29  1  0
 29 30  2  0
 29 31  1  0
 31 32  1  0
 31 33  1  0
 31 34  1  0
 25 16  1  0
 25 19  1  0
  1 35  1  0
  1 36  1  0
  1 37  1  0
  3 38  1  0
  3 39  1  0
  3 40  1  0
  4 41  1  0
  4 42  1  0
  4 43  1  0
  8 44  1  0
  8 45  1  0
 12 46  1  0
 12 47  1  0
 14 48  1  0
 14 49  1  0
 15 50  1  0
 15 51  1  0
 17 52  1  0
 21 53  1  0
 21 54  1  0
 23 55  1  0
 27 56  1  0
 27 57  1  0
 32 58  1  0
 32 59  1  0
 32 60  1  0
 33 61  1  0
 33 62  1  0
 33 63  1  0
 34 64  1  0
 34 65  1  0
 34 66  1  0
M  END
$$$$
