@<TRIPOS>MOLECULE
*****
 68 71 0 0 0
SMALL
GASTEIGER

@<TRIPOS>ATOM
      1 C          -4.1071    3.7850    3.6084 C.3     1  UNL1       -0.0155
      2 N          -4.0485    2.7606    2.5910 N.3     1  UNL1       -0.3147
      3 C          -3.2291    1.6742    3.0800 C.3     1  UNL1        0.0245
      4 C          -1.8507    2.1113    3.5143 C.3     1  UNL1       -0.0202
      5 C          -1.1871    0.7439    3.5197 C.3     1  UNL1        0.0162
      6 N          -1.4792    0.3290    2.1257 N.am    1  UNL1       -0.2984
      7 C          -0.5055   -0.2751    1.3191 C.2     1  UNL1        0.2382
      8 O           0.6795   -0.3823    1.8215 O.2     1  UNL1       -0.2735
      9 C          -0.6054   -0.8211   -0.0421 C.3     1  UNL1        0.1233
     10 C          -1.4065   -0.1314   -1.0403 C.3     1  UNL1        0.0750
     11 O          -1.6224   -0.8738   -2.1896 O.3     1  UNL1       -0.3729
     12 C          -2.3427   -2.0130   -2.0805 C.3     1  UNL1        0.0728
     13 C          -3.7554   -1.7757   -1.6404 C.ar    1  UNL1       -0.0219
     14 C          -4.0776   -1.8399   -0.3269 C.ar    1  UNL1       -0.0564
     15 C          -5.3903   -1.6283    0.0884 C.ar    1  UNL1       -0.0614
     16 C          -6.3007   -1.3591   -0.9017 C.ar    1  UNL1       -0.0617
     17 C          -6.0055   -1.2896   -2.2256 C.ar    1  UNL1       -0.0614
     18 C          -4.7112   -1.5008   -2.6177 C.ar    1  UNL1       -0.0564
     19 N           0.7501   -1.1072   -0.5001 N.am    1  UNL1       -0.2979
     20 C           1.2260   -2.3876   -0.6797 C.2     1  UNL1        0.2499
     21 O           0.4103   -3.3493   -0.4639 O.2     1  UNL1       -0.2700
     22 C           2.5611   -2.7388   -1.0730 C.ar    1  UNL1        0.0985
     23 C           2.7962   -4.0895   -1.3880 C.ar    1  UNL1       -0.0430
     24 C           4.0393   -4.4553   -1.8433 C.ar    1  UNL1       -0.0426
     25 C           5.0155   -3.5062   -1.9781 C.ar    1  UNL1        0.0314
     26 N           4.7314   -2.2588   -1.6657 N.ar    1  UNL1       -0.2203
     27 C           3.5501   -1.7852   -1.2097 C.ar    1  UNL1        0.2327
     28 O           3.4026   -0.4640   -0.9127 O.3     1  UNL1       -0.4358
     29 C           4.3460    0.5205   -1.0024 C.ar    1  UNL1        0.1486
     30 C           5.6225    0.3800   -1.4960 C.ar    1  UNL1       -0.0173
     31 C           6.5442    1.4382   -1.5487 C.ar    1  UNL1       -0.0466
     32 C           6.2080    2.6698   -1.1022 C.ar    1  UNL1        0.0564
     33 C           7.1632    3.8191   -1.1442 C.3     1  UNL1        0.4175
     34 F           7.9394    3.7354   -2.2665 F       1  UNL1       -0.1659
     35 F           7.9992    3.6445   -0.0144 F       1  UNL1       -0.1659
     36 F           6.5008    4.9900   -0.9876 F       1  UNL1       -0.1659
     37 C           4.9511    2.8608   -0.6057 C.ar    1  UNL1       -0.0282
     38 C           4.0392    1.8153   -0.5558 C.ar    1  UNL1        0.0837
     39 CL          2.4826    2.1612    0.1061 Cl      1  UNL1       -0.0797
     40 C          -2.8483    0.7335    1.9227 C.3     1  UNL1        0.0302
     41 H          -3.0903    4.2344    3.7989 H       1  UNL1        0.0388
     42 H          -4.4695    3.4303    4.5897 H       1  UNL1        0.0388
     43 H          -4.7924    4.6253    3.3179 H       1  UNL1        0.0388
     44 H          -5.0246    2.3783    2.5047 H       1  UNL1        0.1219
     45 H          -3.6898    1.1033    3.9035 H       1  UNL1        0.0476
     46 H          -1.8446    2.5847    4.5009 H       1  UNL1        0.0296
     47 H          -1.4333    2.7725    2.7116 H       1  UNL1        0.0296
     48 H          -0.1263    0.7903    3.7362 H       1  UNL1        0.0465
     49 H          -1.7904    0.1336    4.2236 H       1  UNL1        0.0465
     50 H          -1.0750   -1.8551    0.1143 H       1  UNL1        0.0618
     51 H          -0.9411    0.8318   -1.4133 H       1  UNL1        0.0583
     52 H          -2.4644    0.0927   -0.6909 H       1  UNL1        0.0583
     53 H          -2.4405   -2.4317   -3.1363 H       1  UNL1        0.0610
     54 H          -1.9499   -2.8436   -1.5011 H       1  UNL1        0.0610
     55 H          -3.3478   -2.0524    0.4559 H       1  UNL1        0.0621
     56 H          -5.6076   -1.6863    1.1347 H       1  UNL1        0.0618
     57 H          -7.3394   -1.1924   -0.5793 H       1  UNL1        0.0618
     58 H          -6.7660   -1.0695   -2.9804 H       1  UNL1        0.0618
     59 H          -4.4119   -1.4595   -3.6661 H       1  UNL1        0.0621
     60 H           1.3007   -0.2359   -0.7011 H       1  UNL1        0.1499
     61 H           2.0040   -4.8495   -1.2706 H       1  UNL1        0.0627
     62 H           4.1974   -5.5048   -2.0843 H       1  UNL1        0.0633
     63 H           5.9846   -3.7908   -2.3367 H       1  UNL1        0.0831
     64 H           5.9313   -0.5759   -1.8747 H       1  UNL1        0.0655
     65 H           7.5192    1.2491   -1.9379 H       1  UNL1        0.0624
     66 H           4.6990    3.8502   -0.2553 H       1  UNL1        0.0639
     67 H          -2.9355    1.4133    1.0371 H       1  UNL1        0.0480
     68 H          -3.5810   -0.0825    1.9520 H       1  UNL1        0.0480
@<TRIPOS>BOND
     1     1     2    1
     2     2     3    1
     3     3     4    1
     4     4     5    1
     5     5     6    1
     6     6     7   am
     7     7     8    2
     8     7     9    1
     9     9    10    1
    10    10    11    1
    11    11    12    1
    12    12    13    1
    13    13    14   ar
    14    14    15   ar
    15    15    16   ar
    16    16    17   ar
    17    17    18   ar
    18     9    19    1
    19    19    20   am
    20    20    21    2
    21    20    22    1
    22    22    23   ar
    23    23    24   ar
    24    24    25   ar
    25    25    26   ar
    26    26    27   ar
    27    27    28    1
    28    28    29    1
    29    29    30   ar
    30    30    31   ar
    31    31    32   ar
    32    32    33    1
    33    33    34    1
    34    33    35    1
    35    33    36    1
    36    32    37   ar
    37    37    38   ar
    38    38    39    1
    39     6    40    1
    40    40     3    1
    41    18    13   ar
    42    27    22   ar
    43    38    29   ar
    44     1    41    1
    45     1    42    1
    46     1    43    1
    47     2    44    1
    48     3    45    1
    49     4    46    1
    50     4    47    1
    51     5    48    1
    52     5    49    1
    53     9    50    1
    54    10    51    1
    55    10    52    1
    56    12    53    1
    57    12    54    1
    58    14    55    1
    59    15    56    1
    60    16    57    1
    61    17    58    1
    62    18    59    1
    63    19    60    1
    64    23    61    1
    65    24    62    1
    66    25    63    1
    67    30    64    1
    68    31    65    1
    69    37    66    1
    70    40    67    1
    71    40    68    1
