
     RDKit          3D

 68 71  0  0  0  0  0  0  0  0999 V2000
   -4.1071    3.7850    3.6084 C   0  0  0  0  0  0  0  0  0  0  0  0
   -4.0485    2.7606    2.5910 N   0  0  0  0  0  0  0  0  0  0  0  0
   -3.2291    1.6742    3.0800 C   0  0  2  0  0  0  0  0  0  0  0  0
   -1.8507    2.1113    3.5143 C   0  0  0  0  0  0  0  0  0  0  0  0
   -1.1871    0.7439    3.5197 C   0  0  0  0  0  0  0  0  0  0  0  0
   -1.4792    0.3290    2.1257 N   0  0  0  0  0  0  0  0  0  0  0  0
   -0.5055   -0.2751    1.3191 C   0  0  0  0  0  0  0  0  0  0  0  0
    0.6795   -0.3823    1.8215 O   0  0  0  0  0  0  0  0  0  0  0  0
   -0.6054   -0.8211   -0.0421 C   0  0  1  0  0  0  0  0  0  0  0  0
   -1.4065   -0.1314   -1.0403 C   0  0  0  0  0  0  0  0  0  0  0  0
   -1.6224   -0.8738   -2.1896 O   0  0  0  0  0  0  0  0  0  0  0  0
   -2.3427   -2.0130   -2.0805 C   0  0  0  0  0  0  0  0  0  0  0  0
   -3.7554   -1.7757   -1.6404 C   0  0  0  0  0  0  0  0  0  0  0  0
   -4.0776   -1.8399   -0.3269 C   0  0  0  0  0  0  0  0  0  0  0  0
   -5.3903   -1.6283    0.0884 C   0  0  0  0  0  0  0  0  0  0  0  0
   -6.3007   -1.3591   -0.9017 C   0  0  0  0  0  0  0  0  0  0  0  0
   -6.0055   -1.2896   -2.2256 C   0  0  0  0  0  0  0  0  0  0  0  0
   -4.7112   -1.5008   -2.6177 C   0  0  0  0  0  0  0  0  0  0  0  0
    0.7501   -1.1072   -0.5001 N   0  0  0  0  0  0  0  0  0  0  0  0
    1.2260   -2.3876   -0.6797 C   0  0  0  0  0  0  0  0  0  0  0  0
    0.4103   -3.3493   -0.4639 O   0  0  0  0  0  0  0  0  0  0  0  0
    2.5611   -2.7388   -1.0730 C   0  0  0  0  0  0  0  0  0  0  0  0
    2.7962   -4.0895   -1.3880 C   0  0  0  0  0  0  0  0  0  0  0  0
    4.0393   -4.4553   -1.8433 C   0  0  0  0  0  0  0  0  0  0  0  0
    5.0155   -3.5062   -1.9781 C   0  0  0  0  0  0  0  0  0  0  0  0
    4.7314   -2.2588   -1.6657 N   0  0  0  0  0  0  0  0  0  0  0  0
    3.5501   -1.7852   -1.2097 C   0  0  0  0  0  0  0  0  0  0  0  0
    3.4026   -0.4640   -0.9127 O   0  0  0  0  0  0  0  0  0  0  0  0
    4.3460    0.5205   -1.0024 C   0  0  0  0  0  0  0  0  0  0  0  0
    5.6225    0.3800   -1.4960 C   0  0  0  0  0  0  0  0  0  0  0  0
    6.5442    1.4382   -1.5487 C   0  0  0  0  0  0  0  0  0  0  0  0
    6.2080    2.6698   -1.1022 C   0  0  0  0  0  0  0  0  0  0  0  0
    7.1632    3.8191   -1.1442 C   0  0  0  0  0  0  0  0  0  0  0  0
    7.9394    3.7354   -2.2665 F   0  0  0  0  0  0  0  0  0  0  0  0
    7.9992    3.6445   -0.0144 F   0  0  0  0  0  0  0  0  0  0  0  0
    6.5008    4.9900   -0.9876 F   0  0  0  0  0  0  0  0  0  0  0  0
    4.9511    2.8608   -0.6057 C   0  0  0  0  0  0  0  0  0  0  0  0
    4.0392    1.8153   -0.5558 C   0  0  0  0  0  0  0  0  0  0  0  0
    2.4826    2.1612    0.1061 Cl  0  0  0  0  0  0  0  0  0  0  0  0
   -2.8483    0.7335    1.9227 C   0  0  0  0  0  0  0  0  0  0  0  0
   -3.0903    4.2344    3.7989 H   0  0  0  0  0  0  0  0  0  0  0  0
   -4.4695    3.4303    4.5897 H   0  0  0  0  0  0  0  0  0  0  0  0
   -4.7924    4.6253    3.3179 H   0  0  0  0  0  0  0  0  0  0  0  0
   -5.0246    2.3783    2.5047 H   0  0  0  0  0  0  0  0  0  0  0  0
   -3.6898    1.1033    3.9035 H   0  0  0  0  0  0  0  0  0  0  0  0
   -1.8446    2.5847    4.5009 H   0  0  0  0  0  0  0  0  0  0  0  0
   -1.4333    2.7725    2.7116 H   0  0  0  0  0  0  0  0  0  0  0  0
   -0.1263    0.7903    3.7362 H   0  0  0  0  0  0  0  0  0  0  0  0
   -1.7904    0.1336    4.2236 H   0  0  0  0  0  0  0  0  0  0  0  0
   -1.0750   -1.8551    0.1143 H   0  0  0  0  0  0  0  0  0  0  0  0
   -0.9411    0.8318   -1.4133 H   0  0  0  0  0  0  0  0  0  0  0  0
   -2.4644    0.0927   -0.6909 H   0  0  0  0  0  0  0  0  0  0  0  0
   -2.4405   -2.4317   -3.1363 H   0  0  0  0  0  0  0  0  0  0  0  0
   -1.9499   -2.8436   -1.5011 H   0  0  0  0  0  0  0  0  0  0  0  0
   -3.3478   -2.0524    0.4559 H   0  0  0  0  0  0  0  0  0  0  0  0
   -5.6076   -1.6863    1.1347 H   0  0  0  0  0  0  0  0  0  0  0  0
   -7.3394   -1.1924   -0.5793 H   0  0  0  0  0  0  0  0  0  0  0  0
   -6.7660   -1.0695   -2.9804 H   0  0  0  0  0  0  0  0  0  0  0  0
   -4.4119   -1.4595   -3.6661 H   0  0  0  0  0  0  0  0  0  0  0  0
    1.3007   -0.2359   -0.7011 H   0  0  0  0  0  0  0  0  0  0  0  0
    2.0040   -4.8495   -1.2706 H   0  0  0  0  0  0  0  0  0  0  0  0
    4.1974   -5.5048   -2.0843 H   0  0  0  0  0  0  0  0  0  0  0  0
    5.9846   -3.7908   -2.3367 H   0  0  0  0  0  0  0  0  0  0  0  0
    5.9313   -0.5759   -1.8747 H   0  0  0  0  0  0  0  0  0  0  0  0
    7.5192    1.2491   -1.9379 H   0  0  0  0  0  0  0  0  0  0  0  0
    4.6990    3.8502   -0.2553 H   0  0  0  0  0  0  0  0  0  0  0  0
   -2.9355    1.4133    1.0371 H   0  0  0  0  0  0  0  0  0  0  0  0
   -3.5810   -0.0825    1.9520 H   0  0  0  0  0  0  0  0  0  0  0  0
  1  2  1  0
  2  3  1  0
  3  4  1  0
  4  5  1  0
  5  6  1  0
  6  7  1  0
  7  8  2  0
  7  9  1  0
  9 10  1  0
 10 11  1  0
 11 12  1  0
 12 13  1  0
 13 14  2  0
 14 15  1  0
 15 16  2  0
 16 17  1  0
 17 18  2  0
  9 19  1  0
 19 20  1  0
 20 21  2  0
 20 22  1  0
 22 23  2  0
 23 24  1  0
 24 25  2  0
 25 26  1  0
 26 27  2  0
 27 28  1  0
 28 29  1  0
 29 30  2  0
 30 31  1  0
 31 32  2  0
 32 33  1  0
 33 34  1  0
 33 35  1  0
 33 36  1  0
 32 37  1  0
 37 38  2  0
 38 39  1  0
  6 40  1  0
 40  3  1  0
 18 13  1  0
 27 22  1  0
 38 29  1  0
  1 41  1  0
  1 42  1  0
  1 43  1  0
  2 44  1  0
  3 45  1  1
  4 46  1  0
  4 47  1  0
  5 48  1  0
  5 49  1  0
  9 50  1  1
 10 51  1  0
 10 52  1  0
 12 53  1  0
 12 54  1  0
 14 55  1  0
 15 56  1  0
 16 57  1  0
 17 58  1  0
 18 59  1  0
 19 60  1  0
 23 61  1  0
 24 62  1  0
 25 63  1  0
 30 64  1  0
 31 65  1  0
 37 66  1  0
 40 67  1  0
 40 68  1  0
M  END
$$$$
