
     RDKit          3D

 38 37  0  0  0  0  0  0  0  0999 V2000
   -2.2731    3.1785    0.8110 C   0  0  0  0  0  0  0  0  0  0  0  0
   -2.3064    1.9609   -0.0853 C   0  0  0  0  0  0  0  0  0  0  0  0
   -1.7401    0.8889    0.5821 O   0  0  0  0  0  0  0  0  0  0  0  0
   -1.7411   -0.5189   -0.3663 P   0  0  0  0  0  0  0  0  0  0  0  0
   -2.8044   -0.4218   -1.4204 O   0  0  0  0  0  0  0  0  0  0  0  0
   -1.9237   -1.8332    0.6446 O   0  0  0  0  0  0  0  0  0  0  0  0
   -3.1680   -2.4098    0.6492 C   0  0  0  0  0  0  0  0  0  0  0  0
   -3.2703   -3.5945    1.5837 C   0  0  0  0  0  0  0  0  0  0  0  0
   -0.1351   -0.5725   -1.2080 C   0  0  1  0  0  0  0  0  0  0  0  0
   -0.2876   -0.3897   -2.7073 C   0  0  0  0  0  0  0  0  0  0  0  0
    0.7690    0.4681   -0.7470 N   0  0  0  0  0  0  0  0  0  0  0  0
    1.9934    0.1235   -0.1183 C   0  0  0  0  0  0  0  0  0  0  0  0
    2.3500   -1.0706    0.0675 O   0  0  0  0  0  0  0  0  0  0  0  0
    2.9982    0.9845    0.3948 N   0  0  0  0  0  0  0  0  0  0  0  0
    4.1287    0.3266    0.9762 C   0  0  0  0  0  0  0  0  0  0  0  0
    5.2072    0.0721   -0.0626 C   0  0  0  0  0  0  0  0  0  0  0  0
    6.5453   -0.7465    0.7962 Cl  0  0  0  0  0  0  0  0  0  0  0  0
    2.8392    2.3680    0.3097 N   0  0  0  0  0  0  0  0  0  0  0  0
    3.2599    3.1290    1.1917 O   0  0  0  0  0  0  0  0  0  0  0  0
   -2.0847    4.0982    0.2128 H   0  0  0  0  0  0  0  0  0  0  0  0
   -1.3799    3.0610    1.4521 H   0  0  0  0  0  0  0  0  0  0  0  0
   -3.2195    3.2364    1.3677 H   0  0  0  0  0  0  0  0  0  0  0  0
   -1.6761    2.1801   -0.9709 H   0  0  0  0  0  0  0  0  0  0  0  0
   -3.3275    1.7486   -0.4615 H   0  0  0  0  0  0  0  0  0  0  0  0
   -3.8715   -1.6432    1.0888 H   0  0  0  0  0  0  0  0  0  0  0  0
   -3.5923   -2.6673   -0.3222 H   0  0  0  0  0  0  0  0  0  0  0  0
   -4.3424   -3.7268    1.8369 H   0  0  0  0  0  0  0  0  0  0  0  0
   -2.7272   -3.4408    2.5259 H   0  0  0  0  0  0  0  0  0  0  0  0
   -2.9443   -4.4830    1.0058 H   0  0  0  0  0  0  0  0  0  0  0  0
    0.3582   -1.5349   -0.9529 H   0  0  0  0  0  0  0  0  0  0  0  0
    0.6119    0.0034   -3.1828 H   0  0  0  0  0  0  0  0  0  0  0  0
   -1.1383    0.2931   -2.8878 H   0  0  0  0  0  0  0  0  0  0  0  0
   -0.5469   -1.3821   -3.1310 H   0  0  0  0  0  0  0  0  0  0  0  0
    0.6489    1.4907   -0.8111 H   0  0  0  0  0  0  0  0  0  0  0  0
    3.8427   -0.6398    1.4496 H   0  0  0  0  0  0  0  0  0  0  0  0
    4.6164    0.9445    1.7790 H   0  0  0  0  0  0  0  0  0  0  0  0
    5.5225    1.0717   -0.4253 H   0  0  0  0  0  0  0  0  0  0  0  0
    4.8092   -0.5521   -0.8646 H   0  0  0  0  0  0  0  0  0  0  0  0
  1  2  1  0
  2  3  1  0
  3  4  1  0
  4  5  2  0
  4  6  1  0
  6  7  1  0
  7  8  1  0
  4  9  1  0
  9 10  1  0
  9 11  1  0
 11 12  1  0
 12 13  2  0
 12 14  1  0
 14 15  1  0
 15 16  1  0
 16 17  1  0
 14 18  1  0
 18 19  2  0
  1 20  1  0
  1 21  1  0
  1 22  1  0
  2 23  1  0
  2 24  1  0
  7 25  1  0
  7 26  1  0
  8 27  1  0
  8 28  1  0
  8 29  1  0
  9 30  1  6
 10 31  1  0
 10 32  1  0
 10 33  1  0
 11 34  1  0
 15 35  1  0
 15 36  1  0
 16 37  1  0
 16 38  1  0
M  END
$$$$
