@<TRIPOS>MOLECULE
*****
 38 37 0 0 0
SMALL
GASTEIGER

@<TRIPOS>ATOM
      1 C          -2.2731    3.1785    0.8110 C.3     1  UNL1       -0.0411
      2 C          -2.3064    1.9609   -0.0853 C.3     1  UNL1        0.0542
      3 O          -1.7401    0.8889    0.5821 O.3     1  UNL1       -0.3069
      4 P          -1.7411   -0.5189   -0.3663 P.3     1  UNL1        0.3525
      5 O          -2.8044   -0.4218   -1.4204 O.2     1  UNL1       -0.2565
      6 O          -1.9237   -1.8332    0.6446 O.3     1  UNL1       -0.3069
      7 C          -3.1680   -2.4098    0.6492 C.3     1  UNL1        0.0542
      8 C          -3.2703   -3.5945    1.5837 C.3     1  UNL1       -0.0411
      9 C          -0.1351   -0.5725   -1.2080 C.3     1  UNL1        0.1234
     10 C          -0.2876   -0.3897   -2.7073 C.3     1  UNL1       -0.0353
     11 N           0.7690    0.4681   -0.7470 N.am    1  UNL1       -0.2841
     12 C           1.9934    0.1235   -0.1183 C.2     1  UNL1        0.3248
     13 O           2.3500   -1.0706    0.0675 O.2     1  UNL1       -0.2507
     14 N           2.9982    0.9845    0.3948 N.am    1  UNL1       -0.1401
     15 C           4.1287    0.3266    0.9762 C.3     1  UNL1        0.0557
     16 C           5.2072    0.0721   -0.0626 C.3     1  UNL1        0.0405
     17 CL          6.5453   -0.7465    0.7962 Cl      1  UNL1       -0.1237
     18 N           2.8392    2.3680    0.3097 N.2     1  UNL1        0.0527
     19 O           3.2599    3.1290    1.1917 O.2     1  UNL1       -0.1256
     20 H          -2.0847    4.0982    0.2128 H       1  UNL1        0.0252
     21 H          -1.3799    3.0610    1.4521 H       1  UNL1        0.0252
     22 H          -3.2195    3.2364    1.3677 H       1  UNL1        0.0252
     23 H          -1.6761    2.1801   -0.9709 H       1  UNL1        0.0562
     24 H          -3.3275    1.7486   -0.4615 H       1  UNL1        0.0562
     25 H          -3.8715   -1.6432    1.0888 H       1  UNL1        0.0562
     26 H          -3.5923   -2.6673   -0.3222 H       1  UNL1        0.0562
     27 H          -4.3424   -3.7268    1.8369 H       1  UNL1        0.0252
     28 H          -2.7272   -3.4408    2.5259 H       1  UNL1        0.0252
     29 H          -2.9443   -4.4830    1.0058 H       1  UNL1        0.0252
     30 H           0.3582   -1.5349   -0.9529 H       1  UNL1        0.0622
     31 H           0.6119    0.0034   -3.1828 H       1  UNL1        0.0253
     32 H          -1.1383    0.2931   -2.8878 H       1  UNL1        0.0253
     33 H          -0.5469   -1.3821   -3.1310 H       1  UNL1        0.0253
     34 H           0.6489    1.4907   -0.8111 H       1  UNL1        0.1512
     35 H           3.8427   -0.6398    1.4496 H       1  UNL1        0.0498
     36 H           4.6164    0.9445    1.7790 H       1  UNL1        0.0498
     37 H           5.5225    1.0717   -0.4253 H       1  UNL1        0.0446
     38 H           4.8092   -0.5521   -0.8646 H       1  UNL1        0.0446
@<TRIPOS>BOND
     1     1     2    1
     2     2     3    1
     3     3     4    1
     4     4     5    2
     5     4     6    1
     6     6     7    1
     7     7     8    1
     8     4     9    1
     9     9    10    1
    10     9    11    1
    11    11    12   am
    12    12    13    2
    13    12    14   am
    14    14    15    1
    15    15    16    1
    16    16    17    1
    17    14    18    1
    18    18    19    2
    19     1    20    1
    20     1    21    1
    21     1    22    1
    22     2    23    1
    23     2    24    1
    24     7    25    1
    25     7    26    1
    26     8    27    1
    27     8    28    1
    28     8    29    1
    29     9    30    1
    30    10    31    1
    31    10    32    1
    32    10    33    1
    33    11    34    1
    34    15    35    1
    35    15    36    1
    36    16    37    1
    37    16    38    1
