
     RDKit          3D

 52 55  0  0  0  0  0  0  0  0999 V2000
   -4.1505   -0.4293    0.6704 C   0  0  0  0  0  0  0  0  0  0  0  0
   -3.4124    0.8363    0.6889 C   0  0  0  0  0  0  0  0  0  0  0  0
   -1.9695    0.8921    0.5599 C   0  0  0  0  0  0  0  0  0  0  0  0
   -1.1807   -0.0442    0.1284 C   0  0  0  0  0  0  0  0  0  0  0  0
    0.2995    0.0860    0.0387 C   0  0  0  0  0  0  0  0  0  0  0  0
    0.8875   -0.3320   -1.1304 C   0  0  0  0  0  0  0  0  0  0  0  0
    2.2662   -0.2385   -1.2269 C   0  0  0  0  0  0  0  0  0  0  0  0
    3.0636    0.2508   -0.2097 C   0  0  0  0  0  0  0  0  0  0  0  0
    4.5018    0.3244   -0.3898 C   0  0  0  0  0  0  0  0  0  0  0  0
    5.3471    0.7609    0.5148 C   0  0  0  0  0  0  0  0  0  0  0  0
    6.7853    0.8148    0.2802 C   0  0  0  0  0  0  0  0  0  0  0  0
    7.5496    1.2414    1.1911 O   0  0  0  0  0  0  0  0  0  0  0  0
    7.3577    0.4130   -0.9160 O   0  0  0  0  0  0  0  0  0  0  0  0
    2.4366    0.6572    0.9431 C   0  0  0  0  0  0  0  0  0  0  0  0
    1.0455    0.5718    1.0625 C   0  0  0  0  0  0  0  0  0  0  0  0
   -1.6578   -1.3219   -0.4327 C   0  0  0  0  0  0  0  0  0  0  0  0
   -2.5168   -1.4283   -1.4835 C   0  0  0  0  0  0  0  0  0  0  0  0
   -2.9038   -2.6533   -1.9454 C   0  0  0  0  0  0  0  0  0  0  0  0
   -2.4319   -3.8201   -1.3564 C   0  0  0  0  0  0  0  0  0  0  0  0
   -2.6536   -5.1342   -1.6123 N   0  0  0  0  0  0  0  0  0  0  0  0
   -1.9544   -5.8694   -0.7470 N   0  0  0  0  0  0  0  0  0  0  0  0
   -1.2855   -5.0358    0.0623 C   0  0  0  0  0  0  0  0  0  0  0  0
   -1.5534   -3.7359   -0.2817 C   0  0  0  0  0  0  0  0  0  0  0  0
   -1.1830   -2.4854    0.1597 C   0  0  0  0  0  0  0  0  0  0  0  0
   -1.2784    2.1824    0.8960 C   0  0  0  0  0  0  0  0  0  0  0  0
   -0.4729    2.6943   -0.0887 C   0  0  0  0  0  0  0  0  0  0  0  0
    0.2203    3.8709    0.1014 C   0  0  0  0  0  0  0  0  0  0  0  0
    0.0757    4.5103    1.3082 C   0  0  0  0  0  0  0  0  0  0  0  0
    0.7751    5.6757    1.4693 F   0  0  0  0  0  0  0  0  0  0  0  0
   -0.7202    4.0235    2.3087 C   0  0  0  0  0  0  0  0  0  0  0  0
   -1.4077    2.8244    2.0768 C   0  0  0  0  0  0  0  0  0  0  0  0
   -2.3832    2.1934    3.3604 Cl  0  0  0  0  0  0  0  0  0  0  0  0
   -4.7899   -0.6110   -0.2275 H   0  0  0  0  0  0  0  0  0  0  0  0
   -4.9860   -0.3227    1.4827 H   0  0  0  0  0  0  0  0  0  0  0  0
   -3.6293   -1.3303    1.0492 H   0  0  0  0  0  0  0  0  0  0  0  0
   -3.7982    1.4757    1.5286 H   0  0  0  0  0  0  0  0  0  0  0  0
   -3.8003    1.4407   -0.2277 H   0  0  0  0  0  0  0  0  0  0  0  0
    0.3027   -0.7220   -1.9520 H   0  0  0  0  0  0  0  0  0  0  0  0
    2.7169   -0.5766   -2.1670 H   0  0  0  0  0  0  0  0  0  0  0  0
    4.9158   -0.0008   -1.3332 H   0  0  0  0  0  0  0  0  0  0  0  0
    4.9665    1.0985    1.4839 H   0  0  0  0  0  0  0  0  0  0  0  0
    8.1699    0.8949   -1.2839 H   0  0  0  0  0  0  0  0  0  0  0  0
    2.9856    1.0513    1.7858 H   0  0  0  0  0  0  0  0  0  0  0  0
    0.6266    0.8959    1.9955 H   0  0  0  0  0  0  0  0  0  0  0  0
   -2.8922   -0.5423   -1.9521 H   0  0  0  0  0  0  0  0  0  0  0  0
   -3.5968   -2.7734   -2.7936 H   0  0  0  0  0  0  0  0  0  0  0  0
   -3.2599   -5.5284   -2.3492 H   0  0  0  0  0  0  0  0  0  0  0  0
   -0.6353   -5.3375    0.8628 H   0  0  0  0  0  0  0  0  0  0  0  0
   -0.4861   -2.4426    1.0124 H   0  0  0  0  0  0  0  0  0  0  0  0
   -0.3521    2.2174   -1.0436 H   0  0  0  0  0  0  0  0  0  0  0  0
    0.8477    4.2580   -0.6820 H   0  0  0  0  0  0  0  0  0  0  0  0
   -0.8017    4.5599    3.2352 H   0  0  0  0  0  0  0  0  0  0  0  0
  1  2  1  0
  2  3  1  0
  3  4  2  0
  4  5  1  0
  5  6  2  0
  6  7  1  0
  7  8  2  0
  8  9  1  0
  9 10  2  0
 10 11  1  0
 11 12  2  0
 11 13  1  0
  8 14  1  0
 14 15  2  0
  4 16  1  0
 16 17  2  0
 17 18  1  0
 18 19  2  0
 19 20  1  0
 20 21  1  0
 21 22  2  0
 22 23  1  0
 23 24  2  0
  3 25  1  0
 25 26  2  0
 26 27  1  0
 27 28  2  0
 28 29  1  0
 28 30  1  0
 30 31  2  0
 31 32  1  0
 15  5  1  0
 24 16  1  0
 31 25  1  0
 23 19  1  0
  1 33  1  0
  1 34  1  0
  1 35  1  0
  2 36  1  0
  2 37  1  0
  6 38  1  0
  7 39  1  0
  9 40  1  0
 10 41  1  0
 13 42  1  0
 14 43  1  0
 15 44  1  0
 17 45  1  0
 18 46  1  0
 20 47  1  0
 22 48  1  0
 24 49  1  0
 26 50  1  0
 27 51  1  0
 30 52  1  0
M  END
$$$$
