@<TRIPOS>MOLECULE
*****
 52 55 0 0 0
SMALL
GASTEIGER

@<TRIPOS>ATOM
      1 C          -4.1505   -0.4293    0.6704 C.3     1  UNL1       -0.0612
      2 C          -3.4124    0.8363    0.6889 C.3     1  UNL1       -0.0293
      3 C          -1.9695    0.8921    0.5599 C.2     1  UNL1       -0.0308
      4 C          -1.1807   -0.0442    0.1284 C.2     1  UNL1       -0.0070
      5 C           0.2995    0.0860    0.0387 C.ar    1  UNL1       -0.0170
      6 C           0.8875   -0.3320   -1.1304 C.ar    1  UNL1       -0.0534
      7 C           2.2662   -0.2385   -1.2269 C.ar    1  UNL1       -0.0540
      8 C           3.0636    0.2508   -0.2097 C.ar    1  UNL1       -0.0248
      9 C           4.5018    0.3244   -0.3898 C.2     1  UNL1       -0.0478
     10 C           5.3471    0.7609    0.5148 C.2     1  UNL1        0.0229
     11 C           6.7853    0.8148    0.2802 C.2     1  UNL1        0.3296
     12 O           7.5496    1.2414    1.1911 O.2     1  UNL1       -0.2458
     13 O           7.3577    0.4130   -0.9160 O.3     1  UNL1       -0.4775
     14 C           2.4366    0.6572    0.9431 C.ar    1  UNL1       -0.0540
     15 C           1.0455    0.5718    1.0625 C.ar    1  UNL1       -0.0534
     16 C          -1.6578   -1.3219   -0.4327 C.ar    1  UNL1       -0.0163
     17 C          -2.5168   -1.4283   -1.4835 C.ar    1  UNL1       -0.0520
     18 C          -2.9038   -2.6533   -1.9454 C.ar    1  UNL1       -0.0357
     19 C          -2.4319   -3.8201   -1.3564 C.ar    1  UNL1        0.0658
     20 N          -2.6536   -5.1342   -1.6123 N.ar    1  UNL1       -0.2770
     21 N          -1.9544   -5.8694   -0.7470 N.ar    1  UNL1       -0.1812
     22 C          -1.2855   -5.0358    0.0623 C.ar    1  UNL1        0.0569
     23 C          -1.5534   -3.7359   -0.2817 C.ar    1  UNL1        0.0200
     24 C          -1.1830   -2.4854    0.1597 C.ar    1  UNL1       -0.0433
     25 C          -1.2784    2.1824    0.8960 C.ar    1  UNL1       -0.0028
     26 C          -0.4729    2.6943   -0.0887 C.ar    1  UNL1       -0.0502
     27 C           0.2203    3.8709    0.1014 C.ar    1  UNL1       -0.0258
     28 C           0.0757    4.5103    1.3082 C.ar    1  UNL1        0.1248
     29 F           0.7751    5.6757    1.4693 F       1  UNL1       -0.2054
     30 C          -0.7202    4.0235    2.3087 C.ar    1  UNL1       -0.0075
     31 C          -1.4077    2.8244    2.0768 C.ar    1  UNL1        0.0511
     32 CL         -2.3832    2.1934    3.3604 Cl      1  UNL1       -0.0828
     33 H          -4.7899   -0.6110   -0.2275 H       1  UNL1        0.0233
     34 H          -4.9860   -0.3227    1.4827 H       1  UNL1        0.0233
     35 H          -3.6293   -1.3303    1.0492 H       1  UNL1        0.0233
     36 H          -3.7982    1.4757    1.5286 H       1  UNL1        0.0311
     37 H          -3.8003    1.4407   -0.2277 H       1  UNL1        0.0311
     38 H           0.3027   -0.7220   -1.9520 H       1  UNL1        0.0624
     39 H           2.7169   -0.5766   -2.1670 H       1  UNL1        0.0624
     40 H           4.9158   -0.0008   -1.3332 H       1  UNL1        0.0626
     41 H           4.9665    1.0985    1.4839 H       1  UNL1        0.0689
     42 H           8.1699    0.8949   -1.2839 H       1  UNL1        0.2954
     43 H           2.9856    1.0513    1.7858 H       1  UNL1        0.0624
     44 H           0.6266    0.8959    1.9955 H       1  UNL1        0.0624
     45 H          -2.8922   -0.5423   -1.9521 H       1  UNL1        0.0624
     46 H          -3.5968   -2.7734   -2.7936 H       1  UNL1        0.0639
     47 H          -3.2599   -5.5284   -2.3492 H       1  UNL1        0.1889
     48 H          -0.6353   -5.3375    0.8628 H       1  UNL1        0.0854
     49 H          -0.4861   -2.4426    1.0124 H       1  UNL1        0.0631
     50 H          -0.3521    2.2174   -1.0436 H       1  UNL1        0.0625
     51 H           0.8477    4.2580   -0.6820 H       1  UNL1        0.0646
     52 H          -0.8017    4.5599    3.2352 H       1  UNL1        0.0661
@<TRIPOS>BOND
     1     1     2    1
     2     2     3    1
     3     3     4    2
     4     4     5    1
     5     5     6   ar
     6     6     7   ar
     7     7     8   ar
     8     8     9    1
     9     9    10    2
    10    10    11    1
    11    11    12    2
    12    11    13    1
    13     8    14   ar
    14    14    15   ar
    15     4    16    1
    16    16    17   ar
    17    17    18   ar
    18    18    19   ar
    19    19    20   ar
    20    20    21   ar
    21    21    22   ar
    22    22    23   ar
    23    23    24   ar
    24     3    25    1
    25    25    26   ar
    26    26    27   ar
    27    27    28   ar
    28    28    29    1
    29    28    30   ar
    30    30    31   ar
    31    31    32    1
    32    15     5   ar
    33    24    16   ar
    34    31    25   ar
    35    23    19   ar
    36     1    33    1
    37     1    34    1
    38     1    35    1
    39     2    36    1
    40     2    37    1
    41     6    38    1
    42     7    39    1
    43     9    40    1
    44    10    41    1
    45    13    42    1
    46    14    43    1
    47    15    44    1
    48    17    45    1
    49    18    46    1
    50    20    47    1
    51    22    48    1
    52    24    49    1
    53    26    50    1
    54    27    51    1
    55    30    52    1
