
     RDKit          3D

 95 98  0  0  0  0  0  0  0  0999 V2000
    0.4777    0.0261   -2.1211 C   0  0  0  0  0  0  0  0  0  0  0  0
    1.6805    0.1648   -1.2840 C   0  0  0  0  0  0  0  0  0  0  0  0
    1.4643    0.1276    0.1810 N   0  0  0  0  0  0  0  0  0  0  0  0
    0.1726    0.5214    0.6453 C   0  0  0  0  0  0  0  0  0  0  0  0
   -0.2203    1.8200    0.4552 C   0  0  0  0  0  0  0  0  0  0  0  0
   -1.5549    2.3095    0.6903 C   0  0  0  0  0  0  0  0  0  0  0  0
   -1.7936    3.3344   -0.3212 C   0  0  0  0  0  0  0  0  0  0  0  0
   -1.9709    4.1783   -1.1369 C   0  0  0  0  0  0  0  0  0  0  0  0
   -2.1872    5.2893   -2.2070 C   0  0  0  0  0  0  0  0  0  0  0  0
   -2.8151    6.3599   -1.3594 N   0  0  0  0  0  0  0  0  0  0  0  0
   -2.0349    6.8626   -0.3091 C   0  0  0  0  0  0  0  0  0  0  0  0
   -2.6729    8.0421    0.4273 C   0  0  0  0  0  0  0  0  0  0  0  0
   -3.9861    8.1508    0.0268 O   0  0  0  0  0  0  0  0  0  0  0  0
   -4.6729    6.9810    0.0703 C   0  0  0  0  0  0  0  0  0  0  0  0
   -4.1058    5.9678   -0.8821 C   0  0  0  0  0  0  0  0  0  0  0  0
   -2.4581    1.4258    1.1593 C   0  0  0  0  0  0  0  0  0  0  0  0
   -2.0991    0.1170    1.3598 C   0  0  0  0  0  0  0  0  0  0  0  0
   -3.0223   -0.9417    1.8307 C   0  0  0  0  0  0  0  0  0  0  0  0
   -3.3197   -0.8636    3.0466 O   0  0  0  0  0  0  0  0  0  0  0  0
   -3.4678   -1.9304    0.9296 N   0  0  0  0  0  0  0  0  0  0  0  0
   -4.2874   -3.0353    1.3614 C   0  0  0  0  0  0  0  0  0  0  0  0
   -4.9069   -3.9120    0.4261 C   0  0  0  0  0  0  0  0  0  0  0  0
   -6.3669   -4.2234    0.8085 C   0  0  0  0  0  0  0  0  0  0  0  0
   -6.9037   -3.8272    2.0603 C   0  0  0  0  0  0  0  0  0  0  0  0
   -6.9571   -4.9884   -0.1465 C   0  0  0  0  0  0  0  0  0  0  0  0
   -6.5695   -5.5185   -1.2947 C   0  0  0  0  0  0  0  0  0  0  0  0
   -7.3153   -6.2707   -2.2656 C   0  0  0  0  0  0  0  0  0  0  0  0
   -5.1290   -5.2205   -1.6203 N   0  0  0  0  0  0  0  0  0  0  0  0
   -4.6265   -4.4878   -0.7033 C   0  0  0  0  0  0  0  0  0  0  0  0
   -3.2840   -4.2055   -1.0251 O   0  0  0  0  0  0  0  0  0  0  0  0
   -0.7902   -0.3319    1.1058 C   0  0  0  0  0  0  0  0  0  0  0  0
   -0.5002   -1.7655    1.2686 C   0  0  0  0  0  0  0  0  0  0  0  0
    2.6203   -0.2660    0.9266 C   0  0  1  0  0  0  0  0  0  0  0  0
    2.9704   -1.6403    0.4025 C   0  0  0  0  0  0  0  0  0  0  0  0
    4.3580   -1.9815    0.2348 C   0  0  0  0  0  0  0  0  0  0  0  0
    5.1549   -0.8528   -0.3377 C   0  0  2  0  0  0  0  0  0  0  0  0
    6.5256   -1.3982   -0.4392 N   0  0  0  0  0  0  0  0  0  0  0  0
    6.6629   -2.1048   -1.6333 C   0  0  0  0  0  0  0  0  0  0  0  0
    7.5361   -0.5478   -0.0742 C   0  0  0  0  0  0  0  0  0  0  0  0
    8.8683   -1.2394   -0.0079 C   0  0  0  0  0  0  0  0  0  0  0  0
    9.9320   -0.3871    0.3334 O   0  0  0  0  0  0  0  0  0  0  0  0
    9.6797    0.1737    1.5671 C   0  0  0  0  0  0  0  0  0  0  0  0
    5.0522    0.3325    0.5287 C   0  0  0  0  0  0  0  0  0  0  0  0
    3.6729    0.7637    0.7751 C   0  0  0  0  0  0  0  0  0  0  0  0
    0.4602    0.8550   -2.8768 H   0  0  0  0  0  0  0  0  0  0  0  0
   -0.4822   -0.0055   -1.5603 H   0  0  0  0  0  0  0  0  0  0  0  0
    0.6064   -0.9272   -2.7453 H   0  0  0  0  0  0  0  0  0  0  0  0
    2.4952   -0.4461   -1.6478 H   0  0  0  0  0  0  0  0  0  0  0  0
    2.0896    1.2545   -1.4303 H   0  0  0  0  0  0  0  0  0  0  0  0
    0.4988    2.5524    0.1418 H   0  0  0  0  0  0  0  0  0  0  0  0
   -1.2128    5.6759   -2.4202 H   0  0  0  0  0  0  0  0  0  0  0  0
   -2.8442    4.9142   -2.9429 H   0  0  0  0  0  0  0  0  0  0  0  0
   -2.0135    6.0374    0.5037 H   0  0  0  0  0  0  0  0  0  0  0  0
   -0.9502    7.0571   -0.5301 H   0  0  0  0  0  0  0  0  0  0  0  0
   -2.5984    7.9256    1.5405 H   0  0  0  0  0  0  0  0  0  0  0  0
   -2.1482    8.9886    0.1188 H   0  0  0  0  0  0  0  0  0  0  0  0
   -5.7419    7.2097   -0.1665 H   0  0  0  0  0  0  0  0  0  0  0  0
   -4.6794    6.5448    1.1021 H   0  0  0  0  0  0  0  0  0  0  0  0
   -4.8046    5.8527   -1.7418 H   0  0  0  0  0  0  0  0  0  0  0  0
   -4.0147    4.9757   -0.3555 H   0  0  0  0  0  0  0  0  0  0  0  0
   -3.4752    1.8066    1.3468 H   0  0  0  0  0  0  0  0  0  0  0  0
   -3.1873   -1.8969   -0.0430 H   0  0  0  0  0  0  0  0  0  0  0  0
   -3.6655   -3.5286    2.1805 H   0  0  0  0  0  0  0  0  0  0  0  0
   -5.1176   -2.4839    1.9659 H   0  0  0  0  0  0  0  0  0  0  0  0
   -7.5475   -4.7070    2.4427 H   0  0  0  0  0  0  0  0  0  0  0  0
   -7.4886   -2.9087    2.0339 H   0  0  0  0  0  0  0  0  0  0  0  0
   -6.1071   -3.6921    2.8710 H   0  0  0  0  0  0  0  0  0  0  0  0
   -8.0826   -5.1714    0.1383 H   0  0  0  0  0  0  0  0  0  0  0  0
   -8.3975   -5.9157   -2.2451 H   0  0  0  0  0  0  0  0  0  0  0  0
   -7.3411   -7.3629   -2.1423 H   0  0  0  0  0  0  0  0  0  0  0  0
   -6.9808   -6.0411   -3.3090 H   0  0  0  0  0  0  0  0  0  0  0  0
   -4.7896   -5.6111   -2.4764 H   0  0  0  0  0  0  0  0  0  0  0  0
   -1.3045   -2.3926    1.6180 H   0  0  0  0  0  0  0  0  0  0  0  0
   -0.2392   -2.1884    0.2531 H   0  0  0  0  0  0  0  0  0  0  0  0
    0.3612   -1.9584    1.9321 H   0  0  0  0  0  0  0  0  0  0  0  0
    2.2954   -0.3623    1.9770 H   0  0  0  0  0  0  0  0  0  0  0  0
    2.4272   -1.8598   -0.5633 H   0  0  0  0  0  0  0  0  0  0  0  0
    2.5166   -2.4263    1.0919 H   0  0  0  0  0  0  0  0  0  0  0  0
    4.8406   -2.2616    1.2423 H   0  0  0  0  0  0  0  0  0  0  0  0
    4.4409   -2.9192   -0.3561 H   0  0  0  0  0  0  0  0  0  0  0  0
    4.8377   -0.6332   -1.3832 H   0  0  0  0  0  0  0  0  0  0  0  0
    5.8183   -2.8058   -1.8917 H   0  0  0  0  0  0  0  0  0  0  0  0
    7.6232   -2.5908   -1.8302 H   0  0  0  0  0  0  0  0  0  0  0  0
    6.5727   -1.3450   -2.4785 H   0  0  0  0  0  0  0  0  0  0  0  0
    7.3987   -0.0090    0.9057 H   0  0  0  0  0  0  0  0  0  0  0  0
    7.7064    0.3343   -0.7849 H   0  0  0  0  0  0  0  0  0  0  0  0
    8.9138   -2.0473    0.7702 H   0  0  0  0  0  0  0  0  0  0  0  0
    9.1095   -1.7647   -0.9671 H   0  0  0  0  0  0  0  0  0  0  0  0
    9.5009   -0.5599    2.3826 H   0  0  0  0  0  0  0  0  0  0  0  0
    8.9703    1.0005    1.5904 H   0  0  0  0  0  0  0  0  0  0  0  0
   10.6711    0.6451    1.8778 H   0  0  0  0  0  0  0  0  0  0  0  0
    5.5529    0.0516    1.5122 H   0  0  0  0  0  0  0  0  0  0  0  0
    5.6388    1.2048    0.1755 H   0  0  0  0  0  0  0  0  0  0  0  0
    3.4209    1.5480   -0.0072 H   0  0  0  0  0  0  0  0  0  0  0  0
    3.6372    1.3802    1.7284 H   0  0  0  0  0  0  0  0  0  0  0  0
  1  2  1  0
  2  3  1  0
  3  4  1  0
  4  5  2  0
  5  6  1  0
  6  7  1  0
  7  8  3  0
  8  9  1  0
  9 10  1  0
 10 11  1  0
 11 12  1  0
 12 13  1  0
 13 14  1  0
 14 15  1  0
  6 16  2  0
 16 17  1  0
 17 18  1  0
 18 19  2  0
 18 20  1  0
 20 21  1  0
 21 22  1  0
 22 23  2  0
 23 24  1  0
 23 25  1  0
 25 26  2  0
 26 27  1  0
 26 28  1  0
 28 29  1  0
 29 30  2  0
 17 31  2  0
 31 32  1  0
  3 33  1  0
 33 34  1  0
 34 35  1  0
 35 36  1  0
 36 37  1  0
 37 38  1  0
 37 39  1  0
 39 40  1  0
 40 41  1  0
 41 42  1  0
 36 43  1  0
 43 44  1  0
 31  4  1  0
 44 33  1  0
 15 10  1  0
 29 22  1  0
  1 45  1  0
  1 46  1  0
  1 47  1  0
  2 48  1  0
  2 49  1  0
  5 50  1  0
  9 51  1  0
  9 52  1  0
 11 53  1  0
 11 54  1  0
 12 55  1  0
 12 56  1  0
 14 57  1  0
 14 58  1  0
 15 59  1  0
 15 60  1  0
 16 61  1  0
 20 62  1  0
 21 63  1  0
 21 64  1  0
 24 65  1  0
 24 66  1  0
 24 67  1  0
 25 68  1  0
 27 69  1  0
 27 70  1  0
 27 71  1  0
 28 72  1  0
 32 73  1  0
 32 74  1  0
 32 75  1  0
 33 76  1  1
 34 77  1  0
 34 78  1  0
 35 79  1  0
 35 80  1  0
 36 81  1  6
 38 82  1  0
 38 83  1  0
 38 84  1  0
 39 85  1  0
 39 86  1  0
 40 87  1  0
 40 88  1  0
 42 89  1  0
 42 90  1  0
 42 91  1  0
 43 92  1  0
 43 93  1  0
 44 94  1  0
 44 95  1  0
M  END
$$$$
