@<TRIPOS>MOLECULE
*****
 95 98 0 0 0
SMALL
GASTEIGER

@<TRIPOS>ATOM
      1 C           0.4777    0.0261   -2.1211 C.3     1  UNL1       -0.0494
      2 C           1.6805    0.1648   -1.2840 C.3     1  UNL1        0.0097
      3 N           1.4643    0.1276    0.1810 N.pl3   1  UNL1       -0.3268
      4 C           0.1726    0.5214    0.6453 C.ar    1  UNL1        0.0347
      5 C          -0.2203    1.8200    0.4552 C.ar    1  UNL1       -0.0249
      6 C          -1.5549    2.3095    0.6903 C.ar    1  UNL1        0.0274
      7 C          -1.7936    3.3344   -0.3212 C.1     1  UNL1       -0.0649
      8 C          -1.9709    4.1783   -1.1369 C.1     1  UNL1       -0.0814
      9 C          -2.1872    5.2893   -2.2070 C.3     1  UNL1        0.0614
     10 N          -2.8151    6.3599   -1.3594 N.3     1  UNL1       -0.2872
     11 C          -2.0349    6.8626   -0.3091 C.3     1  UNL1        0.0233
     12 C          -2.6729    8.0421    0.4273 C.3     1  UNL1        0.0605
     13 O          -3.9861    8.1508    0.0268 O.3     1  UNL1       -0.3772
     14 C          -4.6729    6.9810    0.0703 C.3     1  UNL1        0.0605
     15 C          -4.1058    5.9678   -0.8821 C.3     1  UNL1        0.0233
     16 C          -2.4581    1.4258    1.1593 C.ar    1  UNL1       -0.0338
     17 C          -2.0991    0.1170    1.3598 C.ar    1  UNL1        0.0425
     18 C          -3.0223   -0.9417    1.8307 C.2     1  UNL1        0.2447
     19 O          -3.3197   -0.8636    3.0466 O.2     1  UNL1       -0.2702
     20 N          -3.4678   -1.9304    0.9296 N.am    1  UNL1       -0.3070
     21 C          -4.2874   -3.0353    1.3614 C.3     1  UNL1        0.0425
     22 C          -4.9069   -3.9120    0.4261 C.ar    1  UNL1        0.0368
     23 C          -6.3669   -4.2234    0.8085 C.ar    1  UNL1       -0.0390
     24 C          -6.9037   -3.8272    2.0603 C.3     1  UNL1       -0.0392
     25 C          -6.9571   -4.9884   -0.1465 C.ar    1  UNL1       -0.0393
     26 C          -6.5695   -5.5185   -1.2947 C.ar    1  UNL1        0.0162
     27 C          -7.3153   -6.2707   -2.2656 C.3     1  UNL1       -0.0244
     28 N          -5.1290   -5.2205   -1.6203 N.ar    1  UNL1       -0.3262
     29 C          -4.6265   -4.4878   -0.7033 C.ar    1  UNL1        0.2539
     30 O          -3.2840   -4.2055   -1.0251 O.2     1  UNL1       -0.2675
     31 C          -0.7902   -0.3319    1.1058 C.ar    1  UNL1       -0.0173
     32 C          -0.5002   -1.7655    1.2686 C.3     1  UNL1       -0.0372
     33 C           2.6203   -0.2660    0.9266 C.3     1  UNL1        0.0236
     34 C           2.9704   -1.6403    0.4025 C.3     1  UNL1       -0.0330
     35 C           4.3580   -1.9815    0.2348 C.3     1  UNL1       -0.0357
     36 C           5.1549   -0.8528   -0.3377 C.3     1  UNL1        0.0103
     37 N           6.5256   -1.3982   -0.4392 N.3     1  UNL1       -0.3002
     38 C           6.6629   -2.1048   -1.6333 C.3     1  UNL1       -0.0124
     39 C           7.5361   -0.5478   -0.0742 C.3     1  UNL1        0.0223
     40 C           8.8683   -1.2394   -0.0079 C.3     1  UNL1        0.0600
     41 O           9.9320   -0.3871    0.3334 O.3     1  UNL1       -0.3817
     42 C           9.6797    0.1737    1.5671 C.3     1  UNL1        0.0365
     43 C           5.0522    0.3325    0.5287 C.3     1  UNL1       -0.0357
     44 C           3.6729    0.7637    0.7751 C.3     1  UNL1       -0.0330
     45 H           0.4602    0.8550   -2.8768 H       1  UNL1        0.0245
     46 H          -0.4822   -0.0055   -1.5603 H       1  UNL1        0.0245
     47 H           0.6064   -0.9272   -2.7453 H       1  UNL1        0.0245
     48 H           2.4952   -0.4461   -1.6478 H       1  UNL1        0.0461
     49 H           2.0896    1.2545   -1.4303 H       1  UNL1        0.0461
     50 H           0.4988    2.5524    0.1418 H       1  UNL1        0.0648
     51 H          -1.2128    5.6759   -2.4202 H       1  UNL1        0.0563
     52 H          -2.8442    4.9142   -2.9429 H       1  UNL1        0.0563
     53 H          -2.0135    6.0374    0.5037 H       1  UNL1        0.0449
     54 H          -0.9502    7.0571   -0.5301 H       1  UNL1        0.0449
     55 H          -2.5984    7.9256    1.5405 H       1  UNL1        0.0572
     56 H          -2.1482    8.9886    0.1188 H       1  UNL1        0.0572
     57 H          -5.7419    7.2097   -0.1665 H       1  UNL1        0.0572
     58 H          -4.6794    6.5448    1.1021 H       1  UNL1        0.0572
     59 H          -4.8046    5.8527   -1.7418 H       1  UNL1        0.0449
     60 H          -4.0147    4.9757   -0.3555 H       1  UNL1        0.0449
     61 H          -3.4752    1.8066    1.3468 H       1  UNL1        0.0637
     62 H          -3.1873   -1.8969   -0.0430 H       1  UNL1        0.1493
     63 H          -3.6655   -3.5286    2.1805 H       1  UNL1        0.0513
     64 H          -5.1176   -2.4839    1.9659 H       1  UNL1        0.0513
     65 H          -7.5475   -4.7070    2.4427 H       1  UNL1        0.0278
     66 H          -7.4886   -2.9087    2.0339 H       1  UNL1        0.0278
     67 H          -6.1071   -3.6921    2.8710 H       1  UNL1        0.0278
     68 H          -8.0826   -5.1714    0.1383 H       1  UNL1        0.0637
     69 H          -8.3975   -5.9157   -2.2451 H       1  UNL1        0.0292
     70 H          -7.3411   -7.3629   -2.1423 H       1  UNL1        0.0292
     71 H          -6.9808   -6.0411   -3.3090 H       1  UNL1        0.0292
     72 H          -4.7896   -5.6111   -2.4764 H       1  UNL1        0.1686
     73 H          -1.3045   -2.3926    1.6180 H       1  UNL1        0.0278
     74 H          -0.2392   -2.1884    0.2531 H       1  UNL1        0.0278
     75 H           0.3612   -1.9584    1.9321 H       1  UNL1        0.0278
     76 H           2.2954   -0.3623    1.9770 H       1  UNL1        0.0500
     77 H           2.4272   -1.8598   -0.5633 H       1  UNL1        0.0284
     78 H           2.5166   -2.4263    1.0919 H       1  UNL1        0.0284
     79 H           4.8406   -2.2616    1.2423 H       1  UNL1        0.0281
     80 H           4.4409   -2.9192   -0.3561 H       1  UNL1        0.0281
     81 H           4.8377   -0.6332   -1.3832 H       1  UNL1        0.0462
     82 H           5.8183   -2.8058   -1.8917 H       1  UNL1        0.0391
     83 H           7.6232   -2.5908   -1.8302 H       1  UNL1        0.0391
     84 H           6.5727   -1.3450   -2.4785 H       1  UNL1        0.0391
     85 H           7.3987   -0.0090    0.9057 H       1  UNL1        0.0449
     86 H           7.7064    0.3343   -0.7849 H       1  UNL1        0.0449
     87 H           8.9138   -2.0473    0.7702 H       1  UNL1        0.0572
     88 H           9.1095   -1.7647   -0.9671 H       1  UNL1        0.0572
     89 H           9.5009   -0.5599    2.3826 H       1  UNL1        0.0523
     90 H           8.9703    1.0005    1.5904 H       1  UNL1        0.0523
     91 H          10.6711    0.6451    1.8778 H       1  UNL1        0.0523
     92 H           5.5529    0.0516    1.5122 H       1  UNL1        0.0281
     93 H           5.6388    1.2048    0.1755 H       1  UNL1        0.0281
     94 H           3.4209    1.5480   -0.0072 H       1  UNL1        0.0284
     95 H           3.6372    1.3802    1.7284 H       1  UNL1        0.0284
@<TRIPOS>BOND
     1     1     2    1
     2     2     3    1
     3     3     4    1
     4     4     5   ar
     5     5     6   ar
     6     6     7    1
     7     7     8    3
     8     8     9    1
     9     9    10    1
    10    10    11    1
    11    11    12    1
    12    12    13    1
    13    13    14    1
    14    14    15    1
    15     6    16   ar
    16    16    17   ar
    17    17    18    1
    18    18    19    2
    19    18    20   am
    20    20    21    1
    21    21    22    1
    22    22    23   ar
    23    23    24    1
    24    23    25   ar
    25    25    26   ar
    26    26    27    1
    27    26    28   ar
    28    28    29   ar
    29    29    30    2
    30    17    31   ar
    31    31    32    1
    32     3    33    1
    33    33    34    1
    34    34    35    1
    35    35    36    1
    36    36    37    1
    37    37    38    1
    38    37    39    1
    39    39    40    1
    40    40    41    1
    41    41    42    1
    42    36    43    1
    43    43    44    1
    44    31     4   ar
    45    44    33    1
    46    15    10    1
    47    29    22   ar
    48     1    45    1
    49     1    46    1
    50     1    47    1
    51     2    48    1
    52     2    49    1
    53     5    50    1
    54     9    51    1
    55     9    52    1
    56    11    53    1
    57    11    54    1
    58    12    55    1
    59    12    56    1
    60    14    57    1
    61    14    58    1
    62    15    59    1
    63    15    60    1
    64    16    61    1
    65    20    62    1
    66    21    63    1
    67    21    64    1
    68    24    65    1
    69    24    66    1
    70    24    67    1
    71    25    68    1
    72    27    69    1
    73    27    70    1
    74    27    71    1
    75    28    72    1
    76    32    73    1
    77    32    74    1
    78    32    75    1
    79    33    76    1
    80    34    77    1
    81    34    78    1
    82    35    79    1
    83    35    80    1
    84    36    81    1
    85    38    82    1
    86    38    83    1
    87    38    84    1
    88    39    85    1
    89    39    86    1
    90    40    87    1
    91    40    88    1
    92    42    89    1
    93    42    90    1
    94    42    91    1
    95    43    92    1
    96    43    93    1
    97    44    94    1
    98    44    95    1
