
     RDKit          3D

 48 52  0  0  0  0  0  0  0  0999 V2000
   -3.1209   -3.0373   -1.6914 C   0  0  0  0  0  0  0  0  0  0  0  0
   -2.5336   -2.6842   -0.3670 C   0  0  0  0  0  0  0  0  0  0  0  0
   -2.8253   -3.4393    0.7612 C   0  0  0  0  0  0  0  0  0  0  0  0
   -2.3005   -3.1400    1.9995 C   0  0  0  0  0  0  0  0  0  0  0  0
   -1.4599   -2.0538    2.1101 C   0  0  0  0  0  0  0  0  0  0  0  0
   -1.1694   -1.3037    0.9926 C   0  0  0  0  0  0  0  0  0  0  0  0
   -0.2838   -0.1649    1.1399 C   0  0  0  0  0  0  0  0  0  0  0  0
    1.0079   -0.2233    1.5828 N   0  0  0  0  0  0  0  0  0  0  0  0
    1.5372    0.9979    1.6012 C   0  0  0  0  0  0  0  0  0  0  0  0
    2.9143    1.4662    1.9919 C   0  0  0  0  0  0  0  0  0  0  0  0
    3.8128    1.6046    0.9014 N   0  0  0  0  0  0  0  0  0  0  0  0
    4.4553    0.5176    0.2857 C   0  0  0  0  0  0  0  0  0  0  0  0
    4.3182   -0.7747    0.7327 C   0  0  0  0  0  0  0  0  0  0  0  0
    4.9780   -1.8456    0.1436 C   0  0  0  0  0  0  0  0  0  0  0  0
    5.7996   -1.6005   -0.9271 C   0  0  0  0  0  0  0  0  0  0  0  0
    5.9587   -0.3070   -1.4003 C   0  0  0  0  0  0  0  0  0  0  0  0
    5.2927    0.7243   -0.7956 C   0  0  0  0  0  0  0  0  0  0  0  0
    5.4188    2.0168   -1.2287 F   0  0  0  0  0  0  0  0  0  0  0  0
    0.5458    1.8287    1.1588 N   0  0  0  0  0  0  0  0  0  0  0  0
   -0.5698    1.1516    0.8715 C   0  0  0  0  0  0  0  0  0  0  0  0
   -1.8491    1.6556    0.3738 C   0  0  0  0  0  0  0  0  0  0  0  0
   -3.0301    1.5435    1.0769 C   0  0  0  0  0  0  0  0  0  0  0  0
   -4.2290    2.0250    0.5937 C   0  0  0  0  0  0  0  0  0  0  0  0
   -4.2440    2.6456   -0.6481 C   0  0  0  0  0  0  0  0  0  0  0  0
   -5.2377    3.2042   -1.3687 N   0  0  0  0  0  0  0  0  0  0  0  0
   -4.7176    3.6643   -2.5037 C   0  0  0  0  0  0  0  0  0  0  0  0
   -3.3982    3.3800   -2.4662 N   0  0  0  0  0  0  0  0  0  0  0  0
   -3.0989    2.7590   -1.3393 N   0  0  0  0  0  0  0  0  0  0  0  0
   -1.9150    2.2803   -0.8558 C   0  0  0  0  0  0  0  0  0  0  0  0
   -1.7133   -1.6454   -0.1932 N   0  0  0  0  0  0  0  0  0  0  0  0
   -4.0954   -3.5180   -1.5155 H   0  0  0  0  0  0  0  0  0  0  0  0
   -3.3204   -2.1082   -2.2586 H   0  0  0  0  0  0  0  0  0  0  0  0
   -2.4138   -3.7108   -2.2007 H   0  0  0  0  0  0  0  0  0  0  0  0
   -3.4892   -4.2850    0.6350 H   0  0  0  0  0  0  0  0  0  0  0  0
   -2.5450   -3.7515    2.8793 H   0  0  0  0  0  0  0  0  0  0  0  0
   -1.0184   -1.7746    3.0662 H   0  0  0  0  0  0  0  0  0  0  0  0
    1.4509   -1.1250    1.8593 H   0  0  0  0  0  0  0  0  0  0  0  0
    2.7402    2.4509    2.5021 H   0  0  0  0  0  0  0  0  0  0  0  0
    3.2709    0.7773    2.7860 H   0  0  0  0  0  0  0  0  0  0  0  0
    4.0064    2.5880    0.5355 H   0  0  0  0  0  0  0  0  0  0  0  0
    3.6976   -1.0264    1.5887 H   0  0  0  0  0  0  0  0  0  0  0  0
    4.8336   -2.8619    0.5397 H   0  0  0  0  0  0  0  0  0  0  0  0
    6.3414   -2.4017   -1.4279 H   0  0  0  0  0  0  0  0  0  0  0  0
    6.6013   -0.0786   -2.2449 H   0  0  0  0  0  0  0  0  0  0  0  0
   -3.0459    1.0658    2.0437 H   0  0  0  0  0  0  0  0  0  0  0  0
   -5.1547    1.9392    1.1400 H   0  0  0  0  0  0  0  0  0  0  0  0
   -5.1649    4.1712   -3.3413 H   0  0  0  0  0  0  0  0  0  0  0  0
   -1.0378    2.4036   -1.4585 H   0  0  0  0  0  0  0  0  0  0  0  0
  1  2  1  0
  2  3  2  0
  3  4  1  0
  4  5  2  0
  5  6  1  0
  6  7  1  0
  7  8  1  0
  8  9  1  0
  9 10  1  0
 10 11  1  0
 11 12  1  0
 12 13  2  0
 13 14  1  0
 14 15  2  0
 15 16  1  0
 16 17  2  0
 17 18  1  0
  9 19  2  0
 19 20  1  0
 20 21  1  0
 21 22  1  0
 22 23  2  0
 23 24  1  0
 24 25  2  0
 25 26  1  0
 26 27  2  0
 27 28  1  0
 28 29  1  0
  6 30  2  0
 30  2  1  0
 20  7  2  0
 29 21  2  0
 17 12  1  0
 28 24  1  0
  1 31  1  0
  1 32  1  0
  1 33  1  0
  3 34  1  0
  4 35  1  0
  5 36  1  0
  8 37  1  0
 10 38  1  0
 10 39  1  0
 11 40  1  0
 13 41  1  0
 14 42  1  0
 15 43  1  0
 16 44  1  0
 22 45  1  0
 23 46  1  0
 26 47  1  0
 29 48  1  0
M  END
$$$$
