@<TRIPOS>MOLECULE
*****
 48 52 0 0 0
SMALL
GASTEIGER

@<TRIPOS>ATOM
      1 C          -3.1209   -3.0373   -1.6914 C.3     1  UNL1       -0.0223
      2 C          -2.5336   -2.6842   -0.3670 C.ar    1  UNL1        0.0390
      3 C          -2.8253   -3.4393    0.7612 C.ar    1  UNL1       -0.0406
      4 C          -2.3005   -3.1400    1.9995 C.ar    1  UNL1       -0.0580
      5 C          -1.4599   -2.0538    2.1101 C.ar    1  UNL1       -0.0342
      6 C          -1.1694   -1.3037    0.9926 C.ar    1  UNL1        0.0895
      7 C          -0.2838   -0.1649    1.1399 C.ar    1  UNL1        0.0926
      8 N           1.0079   -0.2233    1.5828 N.ar    1  UNL1       -0.3389
      9 C           1.5372    0.9979    1.6012 C.ar    1  UNL1        0.1254
     10 C           2.9143    1.4662    1.9919 C.3     1  UNL1        0.0673
     11 N           3.8128    1.6046    0.9014 N.pl3   1  UNL1       -0.3345
     12 C           4.4553    0.5176    0.2857 C.ar    1  UNL1        0.0631
     13 C           4.3182   -0.7747    0.7327 C.ar    1  UNL1       -0.0380
     14 C           4.9780   -1.8456    0.1436 C.ar    1  UNL1       -0.0598
     15 C           5.7996   -1.6005   -0.9271 C.ar    1  UNL1       -0.0589
     16 C           5.9587   -0.3070   -1.4003 C.ar    1  UNL1       -0.0246
     17 C           5.2927    0.7243   -0.7956 C.ar    1  UNL1        0.1441
     18 F           5.4188    2.0168   -1.2287 F       1  UNL1       -0.2036
     19 N           0.5458    1.8287    1.1588 N.ar    1  UNL1       -0.2302
     20 C          -0.5698    1.1516    0.8715 C.ar    1  UNL1        0.0998
     21 C          -1.8491    1.6556    0.3738 C.ar    1  UNL1        0.0208
     22 C          -3.0301    1.5435    1.0769 C.ar    1  UNL1       -0.0475
     23 C          -4.2290    2.0250    0.5937 C.ar    1  UNL1       -0.0167
     24 C          -4.2440    2.6456   -0.6481 C.ar    1  UNL1        0.1557
     25 N          -5.2377    3.2042   -1.3687 N.ar    1  UNL1       -0.2149
     26 C          -4.7176    3.6643   -2.5037 C.ar    1  UNL1        0.1390
     27 N          -3.3982    3.3800   -2.4662 N.ar    1  UNL1       -0.1535
     28 N          -3.0989    2.7590   -1.3393 N.ar    1  UNL1       -0.2198
     29 C          -1.9150    2.2803   -0.8558 C.ar    1  UNL1        0.0407
     30 N          -1.7133   -1.6454   -0.1932 N.ar    1  UNL1       -0.2503
     31 H          -4.0954   -3.5180   -1.5155 H       1  UNL1        0.0292
     32 H          -3.3204   -2.1082   -2.2586 H       1  UNL1        0.0292
     33 H          -2.4138   -3.7108   -2.2007 H       1  UNL1        0.0292
     34 H          -3.4892   -4.2850    0.6350 H       1  UNL1        0.0635
     35 H          -2.5450   -3.7515    2.8793 H       1  UNL1        0.0619
     36 H          -1.0184   -1.7746    3.0662 H       1  UNL1        0.0639
     37 H           1.4509   -1.1250    1.8593 H       1  UNL1        0.1672
     38 H           2.7402    2.4509    2.5021 H       1  UNL1        0.0541
     39 H           3.2709    0.7773    2.7860 H       1  UNL1        0.0541
     40 H           4.0064    2.5880    0.5355 H       1  UNL1        0.1466
     41 H           3.6976   -1.0264    1.5887 H       1  UNL1        0.0637
     42 H           4.8336   -2.8619    0.5397 H       1  UNL1        0.0618
     43 H           6.3414   -2.4017   -1.4279 H       1  UNL1        0.0618
     44 H           6.6013   -0.0786   -2.2449 H       1  UNL1        0.0647
     45 H          -3.0459    1.0658    2.0437 H       1  UNL1        0.0626
     46 H          -5.1547    1.9392    1.1400 H       1  UNL1        0.0655
     47 H          -5.1649    4.1712   -3.3413 H       1  UNL1        0.1066
     48 H          -1.0378    2.4036   -1.4585 H       1  UNL1        0.0837
@<TRIPOS>BOND
     1     1     2    1
     2     2     3   ar
     3     3     4   ar
     4     4     5   ar
     5     5     6   ar
     6     6     7    1
     7     7     8   ar
     8     8     9   ar
     9     9    10    1
    10    10    11    1
    11    11    12    1
    12    12    13   ar
    13    13    14   ar
    14    14    15   ar
    15    15    16   ar
    16    16    17   ar
    17    17    18    1
    18     9    19   ar
    19    19    20   ar
    20    20    21    1
    21    21    22   ar
    22    22    23   ar
    23    23    24   ar
    24    24    25   ar
    25    25    26   ar
    26    26    27   ar
    27    27    28   ar
    28    28    29   ar
    29     6    30   ar
    30    30     2   ar
    31    20     7   ar
    32    29    21   ar
    33    17    12   ar
    34    28    24   ar
    35     1    31    1
    36     1    32    1
    37     1    33    1
    38     3    34    1
    39     4    35    1
    40     5    36    1
    41     8    37    1
    42    10    38    1
    43    10    39    1
    44    11    40    1
    45    13    41    1
    46    14    42    1
    47    15    43    1
    48    16    44    1
    49    22    45    1
    50    23    46    1
    51    26    47    1
    52    29    48    1
