@<TRIPOS>MOLECULE
*****
 46 47 0 0 0
SMALL
GASTEIGER

@<TRIPOS>ATOM
      1 C          -4.3015   -0.9805   -0.9074 C.3     1  UNL1        0.0788
      2 O          -3.0750   -1.2638   -0.3361 O.3     1  UNL1       -0.4946
      3 C          -1.8578   -0.6559   -0.5300 C.ar    1  UNL1        0.1267
      4 C          -1.0562   -1.1363   -1.5434 C.ar    1  UNL1       -0.0082
      5 C          -1.5478   -2.2674   -2.3590 C.3     1  UNL1       -0.0362
      6 C           0.2035   -0.5933   -1.8256 C.ar    1  UNL1       -0.0519
      7 C           0.7006    0.4541   -1.0949 C.ar    1  UNL1       -0.0422
      8 C           2.0357    1.0758   -1.3263 C.3     1  UNL1        0.0023
      9 C           3.0950    0.5487   -0.4712 C.ar    1  UNL1        0.0146
     10 C           3.5001    1.2567    0.6598 C.ar    1  UNL1        0.0379
     11 N           4.4524    0.7943    1.4738 N.ar    1  UNL1       -0.2227
     12 C           5.0699   -0.3964    1.2293 C.ar    1  UNL1        0.2142
     13 N           6.0845   -0.8798    2.1146 N.pl3   1  UNL1       -0.3274
     14 N           4.6853   -1.0774    0.1471 N.ar    1  UNL1       -0.1999
     15 C           3.7181   -0.6477   -0.7147 C.ar    1  UNL1        0.1247
     16 N           3.3843   -1.4337   -1.8479 N.pl3   1  UNL1       -0.3428
     17 C          -0.1206    0.9363   -0.0680 C.ar    1  UNL1       -0.0511
     18 C          -1.3619    0.3988    0.2064 C.ar    1  UNL1        0.0002
     19 C          -2.2023    0.9550    1.2929 C.3     1  UNL1       -0.0092
     20 C          -2.4878   -0.1259    2.2939 C.3     1  UNL1       -0.0559
     21 C          -1.4146    2.0488    2.0227 C.3     1  UNL1       -0.0559
     22 C          -3.4375    1.6409    0.7597 C.3     1  UNL1       -0.0559
     23 H          -5.0418   -0.8314   -0.0675 H       1  UNL1        0.0660
     24 H          -4.3661   -0.1100   -1.5598 H       1  UNL1        0.0660
     25 H          -4.7325   -1.8767   -1.4470 H       1  UNL1        0.0660
     26 H          -1.8616   -1.8830   -3.3528 H       1  UNL1        0.0279
     27 H          -2.3472   -2.8437   -1.8419 H       1  UNL1        0.0279
     28 H          -0.7156   -2.9787   -2.5494 H       1  UNL1        0.0279
     29 H           0.7901   -1.0024   -2.6413 H       1  UNL1        0.0624
     30 H           2.2628    0.9053   -2.4187 H       1  UNL1        0.0363
     31 H           1.9532    2.1995   -1.2671 H       1  UNL1        0.0363
     32 H           3.0306    2.2009    0.8804 H       1  UNL1        0.0834
     33 H           5.8085   -1.4285    2.9386 H       1  UNL1        0.1452
     34 H           7.0808   -0.6823    1.9330 H       1  UNL1        0.1452
     35 H           3.1183   -2.4333   -1.7455 H       1  UNL1        0.1437
     36 H           3.4270   -0.9311   -2.7726 H       1  UNL1        0.1437
     37 H           0.2983    1.7678    0.4984 H       1  UNL1        0.0624
     38 H          -1.8915   -1.0496    2.0583 H       1  UNL1        0.0238
     39 H          -3.5802   -0.4130    2.2855 H       1  UNL1        0.0238
     40 H          -2.1805    0.1683    3.3297 H       1  UNL1        0.0238
     41 H          -2.1587    2.4894    2.7560 H       1  UNL1        0.0238
     42 H          -1.1455    2.8882    1.3539 H       1  UNL1        0.0238
     43 H          -0.5768    1.6668    2.6059 H       1  UNL1        0.0238
     44 H          -3.4071    1.7077   -0.3633 H       1  UNL1        0.0238
     45 H          -3.5063    2.7146    1.0743 H       1  UNL1        0.0238
     46 H          -4.3244    1.1038    1.1372 H       1  UNL1        0.0238
@<TRIPOS>BOND
     1     1     2    1
     2     2     3    1
     3     3     4   ar
     4     4     5    1
     5     4     6   ar
     6     6     7   ar
     7     7     8    1
     8     8     9    1
     9     9    10   ar
    10    10    11   ar
    11    11    12   ar
    12    12    13    1
    13    12    14   ar
    14    14    15   ar
    15    15    16    1
    16     7    17   ar
    17    17    18   ar
    18    18    19    1
    19    19    20    1
    20    19    21    1
    21    19    22    1
    22    18     3   ar
    23    15     9   ar
    24     1    23    1
    25     1    24    1
    26     1    25    1
    27     5    26    1
    28     5    27    1
    29     5    28    1
    30     6    29    1
    31     8    30    1
    32     8    31    1
    33    10    32    1
    34    13    33    1
    35    13    34    1
    36    16    35    1
    37    16    36    1
    38    17    37    1
    39    20    38    1
    40    20    39    1
    41    20    40    1
    42    21    41    1
    43    21    42    1
    44    21    43    1
    45    22    44    1
    46    22    45    1
    47    22    46    1
