
     RDKit          3D

 46 47  0  0  0  0  0  0  0  0999 V2000
   -4.3015   -0.9805   -0.9074 C   0  0  0  0  0  0  0  0  0  0  0  0
   -3.0750   -1.2638   -0.3361 O   0  0  0  0  0  0  0  0  0  0  0  0
   -1.8578   -0.6559   -0.5300 C   0  0  0  0  0  0  0  0  0  0  0  0
   -1.0562   -1.1363   -1.5434 C   0  0  0  0  0  0  0  0  0  0  0  0
   -1.5478   -2.2674   -2.3590 C   0  0  0  0  0  0  0  0  0  0  0  0
    0.2035   -0.5933   -1.8256 C   0  0  0  0  0  0  0  0  0  0  0  0
    0.7006    0.4541   -1.0949 C   0  0  0  0  0  0  0  0  0  0  0  0
    2.0357    1.0758   -1.3263 C   0  0  0  0  0  0  0  0  0  0  0  0
    3.0950    0.5487   -0.4712 C   0  0  0  0  0  0  0  0  0  0  0  0
    3.5001    1.2567    0.6598 C   0  0  0  0  0  0  0  0  0  0  0  0
    4.4524    0.7943    1.4738 N   0  0  0  0  0  0  0  0  0  0  0  0
    5.0699   -0.3964    1.2293 C   0  0  0  0  0  0  0  0  0  0  0  0
    6.0845   -0.8798    2.1146 N   0  0  0  0  0  0  0  0  0  0  0  0
    4.6853   -1.0774    0.1471 N   0  0  0  0  0  0  0  0  0  0  0  0
    3.7181   -0.6477   -0.7147 C   0  0  0  0  0  0  0  0  0  0  0  0
    3.3843   -1.4337   -1.8479 N   0  0  0  0  0  0  0  0  0  0  0  0
   -0.1206    0.9363   -0.0680 C   0  0  0  0  0  0  0  0  0  0  0  0
   -1.3619    0.3988    0.2064 C   0  0  0  0  0  0  0  0  0  0  0  0
   -2.2023    0.9550    1.2929 C   0  0  0  0  0  0  0  0  0  0  0  0
   -2.4878   -0.1259    2.2939 C   0  0  0  0  0  0  0  0  0  0  0  0
   -1.4146    2.0488    2.0227 C   0  0  0  0  0  0  0  0  0  0  0  0
   -3.4375    1.6409    0.7597 C   0  0  0  0  0  0  0  0  0  0  0  0
   -5.0418   -0.8314   -0.0675 H   0  0  0  0  0  0  0  0  0  0  0  0
   -4.3661   -0.1100   -1.5598 H   0  0  0  0  0  0  0  0  0  0  0  0
   -4.7325   -1.8767   -1.4470 H   0  0  0  0  0  0  0  0  0  0  0  0
   -1.8616   -1.8830   -3.3528 H   0  0  0  0  0  0  0  0  0  0  0  0
   -2.3472   -2.8437   -1.8419 H   0  0  0  0  0  0  0  0  0  0  0  0
   -0.7156   -2.9787   -2.5494 H   0  0  0  0  0  0  0  0  0  0  0  0
    0.7901   -1.0024   -2.6413 H   0  0  0  0  0  0  0  0  0  0  0  0
    2.2628    0.9053   -2.4187 H   0  0  0  0  0  0  0  0  0  0  0  0
    1.9532    2.1995   -1.2671 H   0  0  0  0  0  0  0  0  0  0  0  0
    3.0306    2.2009    0.8804 H   0  0  0  0  0  0  0  0  0  0  0  0
    5.8085   -1.4285    2.9386 H   0  0  0  0  0  0  0  0  0  0  0  0
    7.0808   -0.6823    1.9330 H   0  0  0  0  0  0  0  0  0  0  0  0
    3.1183   -2.4333   -1.7455 H   0  0  0  0  0  0  0  0  0  0  0  0
    3.4270   -0.9311   -2.7726 H   0  0  0  0  0  0  0  0  0  0  0  0
    0.2983    1.7678    0.4984 H   0  0  0  0  0  0  0  0  0  0  0  0
   -1.8915   -1.0496    2.0583 H   0  0  0  0  0  0  0  0  0  0  0  0
   -3.5802   -0.4130    2.2855 H   0  0  0  0  0  0  0  0  0  0  0  0
   -2.1805    0.1683    3.3297 H   0  0  0  0  0  0  0  0  0  0  0  0
   -2.1587    2.4894    2.7560 H   0  0  0  0  0  0  0  0  0  0  0  0
   -1.1455    2.8882    1.3539 H   0  0  0  0  0  0  0  0  0  0  0  0
   -0.5768    1.6668    2.6059 H   0  0  0  0  0  0  0  0  0  0  0  0
   -3.4071    1.7077   -0.3633 H   0  0  0  0  0  0  0  0  0  0  0  0
   -3.5063    2.7146    1.0743 H   0  0  0  0  0  0  0  0  0  0  0  0
   -4.3244    1.1038    1.1372 H   0  0  0  0  0  0  0  0  0  0  0  0
  1  2  1  0
  2  3  1  0
  3  4  2  0
  4  5  1  0
  4  6  1  0
  6  7  2  0
  7  8  1  0
  8  9  1  0
  9 10  2  0
 10 11  1  0
 11 12  2  0
 12 13  1  0
 12 14  1  0
 14 15  2  0
 15 16  1  0
  7 17  1  0
 17 18  2  0
 18 19  1  0
 19 20  1  0
 19 21  1  0
 19 22  1  0
 18  3  1  0
 15  9  1  0
  1 23  1  0
  1 24  1  0
  1 25  1  0
  5 26  1  0
  5 27  1  0
  5 28  1  0
  6 29  1  0
  8 30  1  0
  8 31  1  0
 10 32  1  0
 13 33  1  0
 13 34  1  0
 16 35  1  0
 16 36  1  0
 17 37  1  0
 20 38  1  0
 20 39  1  0
 20 40  1  0
 21 41  1  0
 21 42  1  0
 21 43  1  0
 22 44  1  0
 22 45  1  0
 22 46  1  0
M  END
$$$$
