@<TRIPOS>MOLECULE
*****
 40 43 0 0 0
SMALL
GASTEIGER

@<TRIPOS>ATOM
      1 N          -2.5715   -3.6354    1.3687 N.pl3   1  UNL1       -0.3380
      2 C          -1.6839   -2.8492    0.6200 C.2     1  UNL1        0.1476
      3 N          -1.5417   -1.6315    0.8340 N.2     1  UNL1       -0.2495
      4 C          -0.7343   -0.6112    0.2462 C.3     1  UNL1        0.1185
      5 C          -1.6350    0.5841    0.1653 C.ar    1  UNL1        0.0178
      6 C          -1.9836    1.2355   -0.9696 C.ar    1  UNL1       -0.0507
      7 C          -2.8192    2.3394   -0.9933 C.ar    1  UNL1       -0.0259
      8 C          -3.3413    2.8260    0.1894 C.ar    1  UNL1        0.1261
      9 F          -4.1683    3.9073    0.2339 F       1  UNL1       -0.2054
     10 C          -2.9960    2.1714    1.3669 C.ar    1  UNL1        0.0091
     11 C          -2.1605    1.0712    1.3687 C.ar    1  UNL1        0.1317
     12 F          -1.8839    0.4959    2.5693 F       1  UNL1       -0.2050
     13 C           0.3091   -0.2345    1.3040 C.3     1  UNL1        0.0777
     14 O           1.5975   -0.2925    0.7792 O.3     1  UNL1       -0.3735
     15 C           1.6219    0.6844   -0.2442 C.3     1  UNL1        0.0620
     16 C           2.9979    1.2016   -0.5044 C.3     1  UNL1       -0.0147
     17 C           4.1125    0.3665   -0.9304 C.3     1  UNL1       -0.0475
     18 C           4.0920    0.8470    0.4858 C.3     1  UNL1       -0.0475
     19 C           1.0276   -0.0151   -1.4474 C.3     1  UNL1       -0.0202
     20 C          -0.0852   -0.9464   -1.0573 C.3     1  UNL1        0.0024
     21 C           0.5117   -2.3398   -1.0903 C.3     1  UNL1        0.0064
     22 S          -0.7292   -3.5960   -0.6703 S.3     1  UNL1       -0.0907
     23 H          -3.5974   -3.4778    1.3716 H       1  UNL1        0.1442
     24 H          -2.1971   -4.4114    1.9489 H       1  UNL1        0.1442
     25 H          -1.6174    0.9146   -1.9306 H       1  UNL1        0.0623
     26 H          -3.0816    2.8413   -1.9150 H       1  UNL1        0.0646
     27 H          -3.4206    2.5759    2.2773 H       1  UNL1        0.0675
     28 H           0.1881    0.7999    1.6751 H       1  UNL1        0.0587
     29 H           0.2919   -0.9028    2.1824 H       1  UNL1        0.0587
     30 H           0.9320    1.5056    0.0279 H       1  UNL1        0.0599
     31 H           3.0237    2.2792   -0.8037 H       1  UNL1        0.0326
     32 H           4.0435   -0.7288   -1.0712 H       1  UNL1        0.0269
     33 H           4.8984    0.8198   -1.6026 H       1  UNL1        0.0269
     34 H           3.8002    0.1551    1.3048 H       1  UNL1        0.0269
     35 H           4.8002    1.6349    0.8146 H       1  UNL1        0.0269
     36 H           1.8763   -0.5555   -1.9336 H       1  UNL1        0.0294
     37 H           0.7418    0.7681   -2.1760 H       1  UNL1        0.0294
     38 H          -0.8387   -0.9161   -1.8576 H       1  UNL1        0.0337
     39 H           1.2944   -2.3931   -0.2951 H       1  UNL1        0.0384
     40 H           0.9259   -2.4879   -2.0942 H       1  UNL1        0.0384
@<TRIPOS>BOND
     1     1     2    1
     2     2     3    2
     3     3     4    1
     4     4     5    1
     5     5     6   ar
     6     6     7   ar
     7     7     8   ar
     8     8     9    1
     9     8    10   ar
    10    10    11   ar
    11    11    12    1
    12     4    13    1
    13    13    14    1
    14    14    15    1
    15    15    16    1
    16    16    17    1
    17    17    18    1
    18    15    19    1
    19    19    20    1
    20    20    21    1
    21    21    22    1
    22    22     2    1
    23    20     4    1
    24    11     5   ar
    25    18    16    1
    26     1    23    1
    27     1    24    1
    28     6    25    1
    29     7    26    1
    30    10    27    1
    31    13    28    1
    32    13    29    1
    33    15    30    1
    34    16    31    1
    35    17    32    1
    36    17    33    1
    37    18    34    1
    38    18    35    1
    39    19    36    1
    40    19    37    1
    41    20    38    1
    42    21    39    1
    43    21    40    1
