
     RDKit          3D

 40 43  0  0  0  0  0  0  0  0999 V2000
   -2.5715   -3.6354    1.3687 N   0  0  0  0  0  0  0  0  0  0  0  0
   -1.6839   -2.8492    0.6200 C   0  0  0  0  0  0  0  0  0  0  0  0
   -1.5417   -1.6315    0.8340 N   0  0  0  0  0  0  0  0  0  0  0  0
   -0.7343   -0.6112    0.2462 C   0  0  1  0  0  0  0  0  0  0  0  0
   -1.6350    0.5841    0.1653 C   0  0  0  0  0  0  0  0  0  0  0  0
   -1.9836    1.2355   -0.9696 C   0  0  0  0  0  0  0  0  0  0  0  0
   -2.8192    2.3394   -0.9933 C   0  0  0  0  0  0  0  0  0  0  0  0
   -3.3413    2.8260    0.1894 C   0  0  0  0  0  0  0  0  0  0  0  0
   -4.1683    3.9073    0.2339 F   0  0  0  0  0  0  0  0  0  0  0  0
   -2.9960    2.1714    1.3669 C   0  0  0  0  0  0  0  0  0  0  0  0
   -2.1605    1.0712    1.3687 C   0  0  0  0  0  0  0  0  0  0  0  0
   -1.8839    0.4959    2.5693 F   0  0  0  0  0  0  0  0  0  0  0  0
    0.3091   -0.2345    1.3040 C   0  0  0  0  0  0  0  0  0  0  0  0
    1.5975   -0.2925    0.7792 O   0  0  0  0  0  0  0  0  0  0  0  0
    1.6219    0.6844   -0.2442 C   0  0  1  0  0  0  0  0  0  0  0  0
    2.9979    1.2016   -0.5044 C   0  0  0  0  0  0  0  0  0  0  0  0
    4.1125    0.3665   -0.9304 C   0  0  0  0  0  0  0  0  0  0  0  0
    4.0920    0.8470    0.4858 C   0  0  0  0  0  0  0  0  0  0  0  0
    1.0276   -0.0151   -1.4474 C   0  0  0  0  0  0  0  0  0  0  0  0
   -0.0852   -0.9464   -1.0573 C   0  0  1  0  0  0  0  0  0  0  0  0
    0.5117   -2.3398   -1.0903 C   0  0  0  0  0  0  0  0  0  0  0  0
   -0.7292   -3.5960   -0.6703 S   0  0  0  0  0  0  0  0  0  0  0  0
   -3.5974   -3.4778    1.3716 H   0  0  0  0  0  0  0  0  0  0  0  0
   -2.1971   -4.4114    1.9489 H   0  0  0  0  0  0  0  0  0  0  0  0
   -1.6174    0.9146   -1.9306 H   0  0  0  0  0  0  0  0  0  0  0  0
   -3.0816    2.8413   -1.9150 H   0  0  0  0  0  0  0  0  0  0  0  0
   -3.4206    2.5759    2.2773 H   0  0  0  0  0  0  0  0  0  0  0  0
    0.1881    0.7999    1.6751 H   0  0  0  0  0  0  0  0  0  0  0  0
    0.2919   -0.9028    2.1824 H   0  0  0  0  0  0  0  0  0  0  0  0
    0.9320    1.5056    0.0279 H   0  0  0  0  0  0  0  0  0  0  0  0
    3.0237    2.2792   -0.8037 H   0  0  0  0  0  0  0  0  0  0  0  0
    4.0435   -0.7288   -1.0712 H   0  0  0  0  0  0  0  0  0  0  0  0
    4.8984    0.8198   -1.6026 H   0  0  0  0  0  0  0  0  0  0  0  0
    3.8002    0.1551    1.3048 H   0  0  0  0  0  0  0  0  0  0  0  0
    4.8002    1.6349    0.8146 H   0  0  0  0  0  0  0  0  0  0  0  0
    1.8763   -0.5555   -1.9336 H   0  0  0  0  0  0  0  0  0  0  0  0
    0.7418    0.7681   -2.1760 H   0  0  0  0  0  0  0  0  0  0  0  0
   -0.8387   -0.9161   -1.8576 H   0  0  0  0  0  0  0  0  0  0  0  0
    1.2944   -2.3931   -0.2951 H   0  0  0  0  0  0  0  0  0  0  0  0
    0.9259   -2.4879   -2.0942 H   0  0  0  0  0  0  0  0  0  0  0  0
  1  2  1  0
  2  3  2  0
  3  4  1  0
  4  5  1  6
  5  6  2  0
  6  7  1  0
  7  8  2  0
  8  9  1  0
  8 10  1  0
 10 11  2  0
 11 12  1  0
  4 13  1  0
 13 14  1  0
 14 15  1  0
 15 16  1  0
 16 17  1  0
 17 18  1  0
 15 19  1  0
 19 20  1  0
 20 21  1  0
 21 22  1  0
 22  2  1  0
 20  4  1  0
 11  5  1  0
 18 16  1  0
  1 23  1  0
  1 24  1  0
  6 25  1  0
  7 26  1  0
 10 27  1  0
 13 28  1  0
 13 29  1  0
 15 30  1  1
 16 31  1  0
 17 32  1  0
 17 33  1  0
 18 34  1  0
 18 35  1  0
 19 36  1  0
 19 37  1  0
 20 38  1  6
 21 39  1  0
 21 40  1  0
M  END
$$$$
