
     RDKit          3D

 58 60  0  0  0  0  0  0  0  0999 V2000
    7.1331   -1.5612    0.1369 C   0  0  0  0  0  0  0  0  0  0  0  0
    6.1897   -1.5557    1.2952 C   0  0  0  0  0  0  0  0  0  0  0  0
    4.7694   -1.8805    0.8951 C   0  0  0  0  0  0  0  0  0  0  0  0
    4.1232   -0.7155   -0.2821 S   0  0  0  0  0  6  0  0  0  0  0  0
    4.9484   -0.8530   -1.5384 O   0  0  0  0  0  0  0  0  0  0  0  0
    4.2387    0.6925    0.2146 O   0  0  0  0  0  0  0  0  0  0  0  0
    2.5268   -1.1731   -0.6616 N   0  0  0  0  0  0  0  0  0  0  0  0
    1.6276   -1.1608    0.4716 C   0  0  0  0  0  0  0  0  0  0  0  0
    0.2208   -1.0753   -0.0904 C   0  0  0  0  0  0  0  0  0  0  0  0
   -0.1021    0.2943   -0.6523 C   0  0  0  0  0  0  0  0  0  0  0  0
   -1.1001    0.1624   -1.7460 C   0  0  0  0  0  0  0  0  0  0  0  0
   -2.3411   -0.4482   -1.4795 N   0  0  0  0  0  0  0  0  0  0  0  0
   -3.3681   -0.0688   -0.5866 C   0  0  0  0  0  0  0  0  0  0  0  0
   -3.2483    0.9439    0.1052 O   0  0  0  0  0  0  0  0  0  0  0  0
   -4.6199   -0.8284   -0.4183 C   0  0  0  0  0  0  0  0  0  0  0  0
   -5.7766   -0.1391   -0.7415 C   0  0  0  0  0  0  0  0  0  0  0  0
   -7.0257   -0.7367   -0.6296 C   0  0  0  0  0  0  0  0  0  0  0  0
   -7.0936   -2.0238   -0.1925 C   0  0  0  0  0  0  0  0  0  0  0  0
   -8.6689   -2.7857   -0.0486 Cl  0  0  0  0  0  0  0  0  0  0  0  0
   -5.9279   -2.7159    0.1324 C   0  0  0  0  0  0  0  0  0  0  0  0
   -4.6853   -2.1093    0.0169 C   0  0  0  0  0  0  0  0  0  0  0  0
   -3.2086   -2.9496    0.4164 Cl  0  0  0  0  0  0  0  0  0  0  0  0
   -0.4391    1.3012    0.3578 C   0  0  0  0  0  0  0  0  0  0  0  0
   -0.6279    2.6295    0.0379 C   0  0  0  0  0  0  0  0  0  0  0  0
   -0.9310    3.5518    1.0223 C   0  0  0  0  0  0  0  0  0  0  0  0
   -1.1361    4.9778    0.6949 C   0  0  0  0  0  0  0  0  0  0  0  0
   -1.0462    3.1348    2.3462 C   0  0  0  0  0  0  0  0  0  0  0  0
   -0.8504    1.8017    2.6244 C   0  0  0  0  0  0  0  0  0  0  0  0
   -0.5620    0.9555    1.6484 N   0  0  0  0  0  0  0  0  0  0  0  0
    1.2607    0.7436   -1.2748 C   0  0  0  0  0  0  0  0  0  0  0  0
    1.9666   -0.4798   -1.8032 C   0  0  0  0  0  0  0  0  0  0  0  0
    8.1095   -2.0183    0.4634 H   0  0  0  0  0  0  0  0  0  0  0  0
    7.3767   -0.5040   -0.1020 H   0  0  0  0  0  0  0  0  0  0  0  0
    6.7900   -2.1268   -0.7332 H   0  0  0  0  0  0  0  0  0  0  0  0
    6.2231   -0.5988    1.8551 H   0  0  0  0  0  0  0  0  0  0  0  0
    6.5020   -2.3412    2.0119 H   0  0  0  0  0  0  0  0  0  0  0  0
    4.7623   -2.8796    0.4324 H   0  0  0  0  0  0  0  0  0  0  0  0
    4.1341   -1.8418    1.8027 H   0  0  0  0  0  0  0  0  0  0  0  0
    1.8493   -0.3990    1.2138 H   0  0  0  0  0  0  0  0  0  0  0  0
    1.7038   -2.1536    0.9601 H   0  0  0  0  0  0  0  0  0  0  0  0
    0.1754   -1.8075   -0.9205 H   0  0  0  0  0  0  0  0  0  0  0  0
   -0.4686   -1.3451    0.7418 H   0  0  0  0  0  0  0  0  0  0  0  0
   -0.5957   -0.4435   -2.5583 H   0  0  0  0  0  0  0  0  0  0  0  0
   -1.2054    1.1709   -2.2612 H   0  0  0  0  0  0  0  0  0  0  0  0
   -2.6138   -1.3588   -2.0109 H   0  0  0  0  0  0  0  0  0  0  0  0
   -5.7750    0.8840   -1.0929 H   0  0  0  0  0  0  0  0  0  0  0  0
   -7.9152   -0.1822   -0.8865 H   0  0  0  0  0  0  0  0  0  0  0  0
   -6.0192   -3.7206    0.4707 H   0  0  0  0  0  0  0  0  0  0  0  0
   -0.5491    3.0019   -0.9766 H   0  0  0  0  0  0  0  0  0  0  0  0
   -0.9412    5.1480   -0.3850 H   0  0  0  0  0  0  0  0  0  0  0  0
   -2.1745    5.2826    0.8987 H   0  0  0  0  0  0  0  0  0  0  0  0
   -0.4634    5.6467    1.2644 H   0  0  0  0  0  0  0  0  0  0  0  0
   -1.2809    3.8212    3.1425 H   0  0  0  0  0  0  0  0  0  0  0  0
   -0.9330    1.4526    3.6366 H   0  0  0  0  0  0  0  0  0  0  0  0
    1.0807    1.4369   -2.1050 H   0  0  0  0  0  0  0  0  0  0  0  0
    1.8544    1.1566   -0.4608 H   0  0  0  0  0  0  0  0  0  0  0  0
    1.3191   -1.0885   -2.4377 H   0  0  0  0  0  0  0  0  0  0  0  0
    2.8081   -0.1203   -2.4671 H   0  0  0  0  0  0  0  0  0  0  0  0
  1  2  1  0
  2  3  1  0
  3  4  1  0
  4  5  2  0
  4  6  2  0
  4  7  1  0
  7  8  1  0
  8  9  1  0
  9 10  1  0
 10 11  1  0
 11 12  1  0
 12 13  1  0
 13 14  2  0
 13 15  1  0
 15 16  2  0
 16 17  1  0
 17 18  2  0
 18 19  1  0
 18 20  1  0
 20 21  2  0
 21 22  1  0
 10 23  1  0
 23 24  2  0
 24 25  1  0
 25 26  1  0
 25 27  2  0
 27 28  1  0
 28 29  2  0
 10 30  1  0
 30 31  1  0
 31  7  1  0
 21 15  1  0
 29 23  1  0
  1 32  1  0
  1 33  1  0
  1 34  1  0
  2 35  1  0
  2 36  1  0
  3 37  1  0
  3 38  1  0
  8 39  1  0
  8 40  1  0
  9 41  1  0
  9 42  1  0
 11 43  1  0
 11 44  1  0
 12 45  1  0
 16 46  1  0
 17 47  1  0
 20 48  1  0
 24 49  1  0
 26 50  1  0
 26 51  1  0
 26 52  1  0
 27 53  1  0
 28 54  1  0
 30 55  1  0
 30 56  1  0
 31 57  1  0
 31 58  1  0
M  END
$$$$
