@<TRIPOS>MOLECULE
*****
 58 60 0 0 0
SMALL
GASTEIGER

@<TRIPOS>ATOM
      1 C           7.1331   -1.5612    0.1369 C.3     1  UNL1       -0.0638
      2 C           6.1897   -1.5557    1.2952 C.3     1  UNL1       -0.0350
      3 C           4.7694   -1.8805    0.8951 C.3     1  UNL1        0.0817
      4 S           4.1232   -0.7155   -0.2821 S.O2    1  UNL1        0.0318
      5 O           4.9484   -0.8530   -1.5384 O.2     1  UNL1       -0.1580
      6 O           4.2387    0.6925    0.2146 O.2     1  UNL1       -0.1580
      7 N           2.5268   -1.1731   -0.6616 N.3     1  UNL1       -0.1811
      8 C           1.6276   -1.1608    0.4716 C.3     1  UNL1        0.0210
      9 C           0.2208   -1.0753   -0.0904 C.3     1  UNL1       -0.0260
     10 C          -0.1021    0.2943   -0.6523 C.3     1  UNL1        0.0308
     11 C          -1.1001    0.1624   -1.7460 C.3     1  UNL1        0.0230
     12 N          -2.3411   -0.4482   -1.4795 N.am    1  UNL1       -0.3104
     13 C          -3.3681   -0.0688   -0.5866 C.2     1  UNL1        0.2455
     14 O          -3.2483    0.9439    0.1052 O.2     1  UNL1       -0.2702
     15 C          -4.6199   -0.8284   -0.4183 C.ar    1  UNL1        0.0550
     16 C          -5.7766   -0.1391   -0.7415 C.ar    1  UNL1       -0.0468
     17 C          -7.0257   -0.7367   -0.6296 C.ar    1  UNL1       -0.0426
     18 C          -7.0936   -2.0238   -0.1925 C.ar    1  UNL1        0.0424
     19 CL         -8.6689   -2.7857   -0.0486 Cl      1  UNL1       -0.0835
     20 C          -5.9279   -2.7159    0.1324 C.ar    1  UNL1       -0.0243
     21 C          -4.6853   -2.1093    0.0169 C.ar    1  UNL1        0.0544
     22 CL         -3.2086   -2.9496    0.4164 Cl      1  UNL1       -0.0827
     23 C          -0.4391    1.3012    0.3578 C.ar    1  UNL1        0.0492
     24 C          -0.6279    2.6295    0.0379 C.ar    1  UNL1       -0.0369
     25 C          -0.9310    3.5518    1.0223 C.ar    1  UNL1       -0.0473
     26 C          -1.1361    4.9778    0.6949 C.3     1  UNL1       -0.0396
     27 C          -1.0462    3.1348    2.3462 C.ar    1  UNL1       -0.0407
     28 C          -0.8504    1.8017    2.6244 C.ar    1  UNL1        0.0281
     29 N          -0.5620    0.9555    1.6484 N.ar    1  UNL1       -0.2593
     30 C           1.2607    0.7436   -1.2748 C.3     1  UNL1       -0.0260
     31 C           1.9666   -0.4798   -1.8032 C.3     1  UNL1        0.0210
     32 H           8.1095   -2.0183    0.4634 H       1  UNL1        0.0230
     33 H           7.3767   -0.5040   -0.1020 H       1  UNL1        0.0230
     34 H           6.7900   -2.1268   -0.7332 H       1  UNL1        0.0230
     35 H           6.2231   -0.5988    1.8551 H       1  UNL1        0.0279
     36 H           6.5020   -2.3412    2.0119 H       1  UNL1        0.0279
     37 H           4.7623   -2.8796    0.4324 H       1  UNL1        0.0515
     38 H           4.1341   -1.8418    1.8027 H       1  UNL1        0.0515
     39 H           1.8493   -0.3990    1.2138 H       1  UNL1        0.0444
     40 H           1.7038   -2.1536    0.9601 H       1  UNL1        0.0444
     41 H           0.1754   -1.8075   -0.9205 H       1  UNL1        0.0288
     42 H          -0.4686   -1.3451    0.7418 H       1  UNL1        0.0288
     43 H          -0.5957   -0.4435   -2.5583 H       1  UNL1        0.0471
     44 H          -1.2054    1.1709   -2.2612 H       1  UNL1        0.0471
     45 H          -2.6138   -1.3588   -2.0109 H       1  UNL1        0.1490
     46 H          -5.7750    0.8840   -1.0929 H       1  UNL1        0.0626
     47 H          -7.9152   -0.1822   -0.8865 H       1  UNL1        0.0632
     48 H          -6.0192   -3.7206    0.4707 H       1  UNL1        0.0647
     49 H          -0.5491    3.0019   -0.9766 H       1  UNL1        0.0638
     50 H          -0.9412    5.1480   -0.3850 H       1  UNL1        0.0278
     51 H          -2.1745    5.2826    0.8987 H       1  UNL1        0.0278
     52 H          -0.4634    5.6467    1.2644 H       1  UNL1        0.0278
     53 H          -1.2809    3.8212    3.1425 H       1  UNL1        0.0635
     54 H          -0.9330    1.4526    3.6366 H       1  UNL1        0.0830
     55 H           1.0807    1.4369   -2.1050 H       1  UNL1        0.0288
     56 H           1.8544    1.1566   -0.4608 H       1  UNL1        0.0288
     57 H           1.3191   -1.0885   -2.4377 H       1  UNL1        0.0444
     58 H           2.8081   -0.1203   -2.4671 H       1  UNL1        0.0444
@<TRIPOS>BOND
     1     1     2    1
     2     2     3    1
     3     3     4    1
     4     4     5    2
     5     4     6    2
     6     4     7    1
     7     7     8    1
     8     8     9    1
     9     9    10    1
    10    10    11    1
    11    11    12    1
    12    12    13   am
    13    13    14    2
    14    13    15    1
    15    15    16   ar
    16    16    17   ar
    17    17    18   ar
    18    18    19    1
    19    18    20   ar
    20    20    21   ar
    21    21    22    1
    22    10    23    1
    23    23    24   ar
    24    24    25   ar
    25    25    26    1
    26    25    27   ar
    27    27    28   ar
    28    28    29   ar
    29    10    30    1
    30    30    31    1
    31    31     7    1
    32    21    15   ar
    33    29    23   ar
    34     1    32    1
    35     1    33    1
    36     1    34    1
    37     2    35    1
    38     2    36    1
    39     3    37    1
    40     3    38    1
    41     8    39    1
    42     8    40    1
    43     9    41    1
    44     9    42    1
    45    11    43    1
    46    11    44    1
    47    12    45    1
    48    16    46    1
    49    17    47    1
    50    20    48    1
    51    24    49    1
    52    26    50    1
    53    26    51    1
    54    26    52    1
    55    27    53    1
    56    28    54    1
    57    30    55    1
    58    30    56    1
    59    31    57    1
    60    31    58    1
