@<TRIPOS>MOLECULE
*****
 63 67 0 0 0
SMALL
GASTEIGER

@<TRIPOS>ATOM
      1 C           8.9495    0.5851    1.9125 C.3     1  UNL1        0.0001
      2 N           7.8085    0.1716    1.1080 N.am    1  UNL1       -0.3173
      3 C           7.3628    1.0265    0.0723 C.2     1  UNL1        0.2269
      4 O           8.0347    2.1199   -0.0857 O.2     1  UNL1       -0.2744
      5 C           6.2242    0.7804   -0.8262 C.3     1  UNL1        0.0757
      6 N           5.4979   -0.3889   -0.5010 N.3     1  UNL1       -0.2939
      7 C           4.6005   -0.8323   -1.5433 C.3     1  UNL1        0.0013
      8 C           3.4853    0.1193   -1.8714 C.3     1  UNL1       -0.0176
      9 C           2.9636    0.8390   -0.6846 C.3     1  UNL1        0.0553
     10 N           1.5228    1.0267   -0.6824 N.ar    1  UNL1       -0.2634
     11 N           0.9017    2.1844   -0.3728 N.ar    1  UNL1       -0.1741
     12 C          -0.4220    2.0709   -0.4615 C.ar    1  UNL1        0.0814
     13 C          -1.4861    3.0819   -0.2092 C.3     1  UNL1       -0.0188
     14 C          -0.6704    0.7638   -0.8524 C.ar    1  UNL1        0.0774
     15 N          -1.9494    0.2163   -1.0605 N.pl3   1  UNL1       -0.2807
     16 C          -2.6761   -0.5679   -0.1135 C.ar    1  UNL1        0.2202
     17 N          -2.1120   -1.0356    1.0067 N.ar    1  UNL1       -0.2212
     18 C          -2.8079   -1.7461    1.8913 C.ar    1  UNL1        0.0516
     19 C          -4.1586   -2.0253    1.6732 C.ar    1  UNL1        0.0852
     20 CL         -5.0624   -2.9559    2.8222 Cl      1  UNL1       -0.0797
     21 C          -4.7469   -1.5532    0.5325 C.ar    1  UNL1        0.0979
     22 C          -6.1526   -1.7762    0.2763 C.ar    1  UNL1        0.0470
     23 C          -6.8468   -2.9724    0.1655 C.ar    1  UNL1        0.0596
     24 N          -8.1510   -2.6746   -0.0984 N.ar    1  UNL1       -0.1741
     25 N          -8.3133   -1.3645   -0.1583 N.ar    1  UNL1       -0.2392
     26 C          -9.4150   -0.6432   -0.3826 C.ar    1  UNL1        0.0298
     27 C          -9.3208    0.7402   -0.3849 C.ar    1  UNL1       -0.0435
     28 C          -8.0951    1.3248   -0.1566 C.ar    1  UNL1       -0.0583
     29 C          -6.9629    0.5695    0.0734 C.ar    1  UNL1       -0.0355
     30 C          -7.1262   -0.8021    0.0631 C.ar    1  UNL1        0.0760
     31 N          -3.9824   -0.8462   -0.3120 N.ar    1  UNL1       -0.2126
     32 C           0.5459    0.1386   -0.9807 C.ar    1  UNL1        0.0579
     33 C           0.7064   -1.2793   -1.3567 C.3     1  UNL1       -0.0208
     34 C           3.3984    0.2986    0.6281 C.3     1  UNL1       -0.0176
     35 C           4.7498   -0.2868    0.7279 C.3     1  UNL1        0.0013
     36 H           9.8079   -0.0619    1.7151 H       1  UNL1        0.0426
     37 H           8.7142    0.5395    3.0005 H       1  UNL1        0.0426
     38 H           9.2456    1.6285    1.6900 H       1  UNL1        0.0426
     39 H           7.3405   -0.7419    1.2677 H       1  UNL1        0.1484
     40 H           5.6530    1.7262   -0.8811 H       1  UNL1        0.0522
     41 H           6.5890    0.6342   -1.8945 H       1  UNL1        0.0522
     42 H           5.2279   -1.0892   -2.4178 H       1  UNL1        0.0427
     43 H           4.1835   -1.8237   -1.1833 H       1  UNL1        0.0427
     44 H           2.7311   -0.4251   -2.4669 H       1  UNL1        0.0298
     45 H           3.9090    0.8703   -2.6043 H       1  UNL1        0.0298
     46 H           3.3691    1.8967   -0.7184 H       1  UNL1        0.0546
     47 H          -2.4217    2.7699   -0.6922 H       1  UNL1        0.0294
     48 H          -1.1600    4.0903   -0.4819 H       1  UNL1        0.0294
     49 H          -1.6934    3.0801    0.8831 H       1  UNL1        0.0294
     50 H          -2.4445    0.3805   -1.9910 H       1  UNL1        0.1551
     51 H          -2.3208   -2.1066    2.7883 H       1  UNL1        0.0846
     52 H          -6.4820   -3.9649    0.2612 H       1  UNL1        0.0855
     53 H         -10.3864   -1.0553   -0.5665 H       1  UNL1        0.0830
     54 H         -10.2098    1.3635   -0.5654 H       1  UNL1        0.0633
     55 H          -8.0623    2.4250   -0.1624 H       1  UNL1        0.0619
     56 H          -6.0134    1.0057    0.2504 H       1  UNL1        0.0639
     57 H           1.5939   -1.7776   -0.8853 H       1  UNL1        0.0293
     58 H          -0.1557   -1.8498   -0.8808 H       1  UNL1        0.0293
     59 H           0.6134   -1.4928   -2.4358 H       1  UNL1        0.0293
     60 H           3.3325    1.1218    1.4169 H       1  UNL1        0.0298
     61 H           2.6454   -0.4440    1.0419 H       1  UNL1        0.0298
     62 H           5.3762    0.3148    1.4549 H       1  UNL1        0.0427
     63 H           4.7234   -1.3211    1.1765 H       1  UNL1        0.0427
@<TRIPOS>BOND
     1     1     2    1
     2     2     3   am
     3     3     4    2
     4     3     5    1
     5     5     6    1
     6     6     7    1
     7     7     8    1
     8     8     9    1
     9     9    10    1
    10    10    11   ar
    11    11    12   ar
    12    12    13    1
    13    12    14   ar
    14    14    15    1
    15    15    16    1
    16    16    17   ar
    17    17    18   ar
    18    18    19   ar
    19    19    20    1
    20    19    21   ar
    21    21    22    1
    22    22    23   ar
    23    23    24   ar
    24    24    25   ar
    25    25    26   ar
    26    26    27   ar
    27    27    28   ar
    28    28    29   ar
    29    29    30   ar
    30    21    31   ar
    31    14    32   ar
    32    32    33    1
    33     9    34    1
    34    34    35    1
    35    35     6    1
    36    32    10   ar
    37    31    16   ar
    38    30    22   ar
    39    30    25   ar
    40     1    36    1
    41     1    37    1
    42     1    38    1
    43     2    39    1
    44     5    40    1
    45     5    41    1
    46     7    42    1
    47     7    43    1
    48     8    44    1
    49     8    45    1
    50     9    46    1
    51    13    47    1
    52    13    48    1
    53    13    49    1
    54    15    50    1
    55    18    51    1
    56    23    52    1
    57    26    53    1
    58    27    54    1
    59    28    55    1
    60    29    56    1
    61    33    57    1
    62    33    58    1
    63    33    59    1
    64    34    60    1
    65    34    61    1
    66    35    62    1
    67    35    63    1
