
     RDKit          3D

 63 67  0  0  0  0  0  0  0  0999 V2000
    8.9495    0.5851    1.9125 C   0  0  0  0  0  0  0  0  0  0  0  0
    7.8085    0.1716    1.1080 N   0  0  0  0  0  0  0  0  0  0  0  0
    7.3628    1.0265    0.0723 C   0  0  0  0  0  0  0  0  0  0  0  0
    8.0347    2.1199   -0.0857 O   0  0  0  0  0  0  0  0  0  0  0  0
    6.2242    0.7804   -0.8262 C   0  0  0  0  0  0  0  0  0  0  0  0
    5.4979   -0.3889   -0.5010 N   0  0  0  0  0  0  0  0  0  0  0  0
    4.6005   -0.8323   -1.5433 C   0  0  0  0  0  0  0  0  0  0  0  0
    3.4853    0.1193   -1.8714 C   0  0  0  0  0  0  0  0  0  0  0  0
    2.9636    0.8390   -0.6846 C   0  0  0  0  0  0  0  0  0  0  0  0
    1.5228    1.0267   -0.6824 N   0  0  0  0  0  0  0  0  0  0  0  0
    0.9017    2.1844   -0.3728 N   0  0  0  0  0  0  0  0  0  0  0  0
   -0.4220    2.0709   -0.4615 C   0  0  0  0  0  0  0  0  0  0  0  0
   -1.4861    3.0819   -0.2092 C   0  0  0  0  0  0  0  0  0  0  0  0
   -0.6704    0.7638   -0.8524 C   0  0  0  0  0  0  0  0  0  0  0  0
   -1.9494    0.2163   -1.0605 N   0  0  0  0  0  0  0  0  0  0  0  0
   -2.6761   -0.5679   -0.1135 C   0  0  0  0  0  0  0  0  0  0  0  0
   -2.1120   -1.0356    1.0067 N   0  0  0  0  0  0  0  0  0  0  0  0
   -2.8079   -1.7461    1.8913 C   0  0  0  0  0  0  0  0  0  0  0  0
   -4.1586   -2.0253    1.6732 C   0  0  0  0  0  0  0  0  0  0  0  0
   -5.0624   -2.9559    2.8222 Cl  0  0  0  0  0  0  0  0  0  0  0  0
   -4.7469   -1.5532    0.5325 C   0  0  0  0  0  0  0  0  0  0  0  0
   -6.1526   -1.7762    0.2763 C   0  0  0  0  0  0  0  0  0  0  0  0
   -6.8468   -2.9724    0.1655 C   0  0  0  0  0  0  0  0  0  0  0  0
   -8.1510   -2.6746   -0.0984 N   0  0  0  0  0  0  0  0  0  0  0  0
   -8.3133   -1.3645   -0.1583 N   0  0  0  0  0  0  0  0  0  0  0  0
   -9.4150   -0.6432   -0.3826 C   0  0  0  0  0  0  0  0  0  0  0  0
   -9.3208    0.7402   -0.3849 C   0  0  0  0  0  0  0  0  0  0  0  0
   -8.0951    1.3248   -0.1566 C   0  0  0  0  0  0  0  0  0  0  0  0
   -6.9629    0.5695    0.0734 C   0  0  0  0  0  0  0  0  0  0  0  0
   -7.1262   -0.8021    0.0631 C   0  0  0  0  0  0  0  0  0  0  0  0
   -3.9824   -0.8462   -0.3120 N   0  0  0  0  0  0  0  0  0  0  0  0
    0.5459    0.1386   -0.9807 C   0  0  0  0  0  0  0  0  0  0  0  0
    0.7064   -1.2793   -1.3567 C   0  0  0  0  0  0  0  0  0  0  0  0
    3.3984    0.2986    0.6281 C   0  0  0  0  0  0  0  0  0  0  0  0
    4.7498   -0.2868    0.7279 C   0  0  0  0  0  0  0  0  0  0  0  0
    9.8079   -0.0619    1.7151 H   0  0  0  0  0  0  0  0  0  0  0  0
    8.7142    0.5395    3.0005 H   0  0  0  0  0  0  0  0  0  0  0  0
    9.2456    1.6285    1.6900 H   0  0  0  0  0  0  0  0  0  0  0  0
    7.3405   -0.7419    1.2677 H   0  0  0  0  0  0  0  0  0  0  0  0
    5.6530    1.7262   -0.8811 H   0  0  0  0  0  0  0  0  0  0  0  0
    6.5890    0.6342   -1.8945 H   0  0  0  0  0  0  0  0  0  0  0  0
    5.2279   -1.0892   -2.4178 H   0  0  0  0  0  0  0  0  0  0  0  0
    4.1835   -1.8237   -1.1833 H   0  0  0  0  0  0  0  0  0  0  0  0
    2.7311   -0.4251   -2.4669 H   0  0  0  0  0  0  0  0  0  0  0  0
    3.9090    0.8703   -2.6043 H   0  0  0  0  0  0  0  0  0  0  0  0
    3.3691    1.8967   -0.7184 H   0  0  0  0  0  0  0  0  0  0  0  0
   -2.4217    2.7699   -0.6922 H   0  0  0  0  0  0  0  0  0  0  0  0
   -1.1600    4.0903   -0.4819 H   0  0  0  0  0  0  0  0  0  0  0  0
   -1.6934    3.0801    0.8831 H   0  0  0  0  0  0  0  0  0  0  0  0
   -2.4445    0.3805   -1.9910 H   0  0  0  0  0  0  0  0  0  0  0  0
   -2.3208   -2.1066    2.7883 H   0  0  0  0  0  0  0  0  0  0  0  0
   -6.4820   -3.9649    0.2612 H   0  0  0  0  0  0  0  0  0  0  0  0
  -10.3864   -1.0553   -0.5665 H   0  0  0  0  0  0  0  0  0  0  0  0
  -10.2098    1.3635   -0.5654 H   0  0  0  0  0  0  0  0  0  0  0  0
   -8.0623    2.4250   -0.1624 H   0  0  0  0  0  0  0  0  0  0  0  0
   -6.0134    1.0057    0.2504 H   0  0  0  0  0  0  0  0  0  0  0  0
    1.5939   -1.7776   -0.8853 H   0  0  0  0  0  0  0  0  0  0  0  0
   -0.1557   -1.8498   -0.8808 H   0  0  0  0  0  0  0  0  0  0  0  0
    0.6134   -1.4928   -2.4358 H   0  0  0  0  0  0  0  0  0  0  0  0
    3.3325    1.1218    1.4169 H   0  0  0  0  0  0  0  0  0  0  0  0
    2.6454   -0.4440    1.0419 H   0  0  0  0  0  0  0  0  0  0  0  0
    5.3762    0.3148    1.4549 H   0  0  0  0  0  0  0  0  0  0  0  0
    4.7234   -1.3211    1.1765 H   0  0  0  0  0  0  0  0  0  0  0  0
  1  2  1  0
  2  3  1  0
  3  4  2  0
  3  5  1  0
  5  6  1  0
  6  7  1  0
  7  8  1  0
  8  9  1  0
  9 10  1  0
 10 11  1  0
 11 12  2  0
 12 13  1  0
 12 14  1  0
 14 15  1  0
 15 16  1  0
 16 17  2  0
 17 18  1  0
 18 19  2  0
 19 20  1  0
 19 21  1  0
 21 22  1  0
 22 23  1  0
 23 24  2  0
 24 25  1  0
 25 26  1  0
 26 27  2  0
 27 28  1  0
 28 29  2  0
 29 30  1  0
 21 31  2  0
 14 32  2  0
 32 33  1  0
  9 34  1  0
 34 35  1  0
 35  6  1  0
 32 10  1  0
 31 16  1  0
 30 22  2  0
 30 25  1  0
  1 36  1  0
  1 37  1  0
  1 38  1  0
  2 39  1  0
  5 40  1  0
  5 41  1  0
  7 42  1  0
  7 43  1  0
  8 44  1  0
  8 45  1  0
  9 46  1  0
 13 47  1  0
 13 48  1  0
 13 49  1  0
 15 50  1  0
 18 51  1  0
 23 52  1  0
 26 53  1  0
 27 54  1  0
 28 55  1  0
 29 56  1  0
 33 57  1  0
 33 58  1  0
 33 59  1  0
 34 60  1  0
 34 61  1  0
 35 62  1  0
 35 63  1  0
M  END
$$$$
