
     RDKit          3D

 32 32  0  0  0  0  0  0  0  0999 V2000
    0.0944    0.6895    0.7924 C   0  0  1  0  0  0  0  0  0  0  0  0
    0.9987    1.7435    1.4467 C   0  0  0  0  0  0  0  0  0  0  0  0
    1.4289    2.9641    0.2053 S   0  0  0  0  0  0  0  0  0  0  0  0
   -1.1097    1.4414    0.3043 C   0  0  0  0  0  0  0  0  0  0  0  0
   -2.1016    0.5632   -0.3596 C   0  0  0  0  0  0  0  0  0  0  0  0
   -3.0346    0.0042    0.5089 C   0  0  0  0  0  0  0  0  0  0  0  0
   -4.0558   -0.8408    0.1254 C   0  0  0  0  0  0  0  0  0  0  0  0
   -4.1671   -1.1592   -1.2115 C   0  0  0  0  0  0  0  0  0  0  0  0
   -3.2510   -0.6142   -2.0868 C   0  0  0  0  0  0  0  0  0  0  0  0
   -2.2374    0.2282   -1.6853 C   0  0  0  0  0  0  0  0  0  0  0  0
    0.9092    0.0961   -0.2982 C   0  0  0  0  0  0  0  0  0  0  0  0
    0.9920   -0.0997   -1.5372 O   0  0  0  0  0  0  0  0  0  0  0  0
    2.1048   -0.5188    0.2363 N   0  0  0  0  0  0  0  0  0  0  0  0
    3.0039   -1.1462   -0.7414 C   0  0  0  0  0  0  0  0  0  0  0  0
    4.1898   -1.7473   -0.1377 C   0  0  0  0  0  0  0  0  0  0  0  0
    5.0685   -2.3507   -1.0110 O   0  0  0  0  0  0  0  0  0  0  0  0
    4.5490   -1.8048    1.0855 O   0  0  0  0  0  0  0  0  0  0  0  0
   -0.1739   -0.0575    1.5481 H   0  0  0  0  0  0  0  0  0  0  0  0
    0.4012    2.2630    2.2223 H   0  0  0  0  0  0  0  0  0  0  0  0
    1.9057    1.2789    1.8362 H   0  0  0  0  0  0  0  0  0  0  0  0
    0.3420    3.8504    0.0578 H   0  0  0  0  0  0  0  0  0  0  0  0
   -1.6045    2.0206    1.1082 H   0  0  0  0  0  0  0  0  0  0  0  0
   -0.7514    2.1831   -0.4479 H   0  0  0  0  0  0  0  0  0  0  0  0
   -3.0314    0.1953    1.5886 H   0  0  0  0  0  0  0  0  0  0  0  0
   -4.7644   -1.2637    0.7947 H   0  0  0  0  0  0  0  0  0  0  0  0
   -4.9078   -1.8020   -1.6599 H   0  0  0  0  0  0  0  0  0  0  0  0
   -3.2299   -0.7862   -3.1631 H   0  0  0  0  0  0  0  0  0  0  0  0
   -1.4980    0.6844   -2.3254 H   0  0  0  0  0  0  0  0  0  0  0  0
    2.4387   -0.5897    1.2335 H   0  0  0  0  0  0  0  0  0  0  0  0
    3.3225   -0.4087   -1.5118 H   0  0  0  0  0  0  0  0  0  0  0  0
    2.4290   -1.9348   -1.3055 H   0  0  0  0  0  0  0  0  0  0  0  0
    5.7401   -3.0817   -0.7471 H   0  0  0  0  0  0  0  0  0  0  0  0
  1  2  1  0
  2  3  1  0
  1  4  1  0
  4  5  1  0
  5  6  2  0
  6  7  1  0
  7  8  2  0
  8  9  1  0
  9 10  2  0
  1 11  1  0
 11 12  2  0
 11 13  1  0
 13 14  1  0
 14 15  1  0
 15 16  1  0
 15 17  2  0
 10  5  1  0
  1 18  1  1
  2 19  1  0
  2 20  1  0
  3 21  1  0
  4 22  1  0
  4 23  1  0
  6 24  1  0
  7 25  1  0
  8 26  1  0
  9 27  1  0
 10 28  1  0
 13 29  1  0
 14 30  1  0
 14 31  1  0
 16 32  1  0
M  END
$$$$
