@<TRIPOS>MOLECULE
*****
 32 32 0 0 0
SMALL
GASTEIGER

@<TRIPOS>ATOM
      1 C           0.0944    0.6895    0.7924 C.3     1  UNL1        0.0482
      2 C           0.9987    1.7435    1.4467 C.3     1  UNL1        0.0021
      3 S           1.4289    2.9641    0.2053 S.3     1  UNL1       -0.1775
      4 C          -1.1097    1.4414    0.3043 C.3     1  UNL1       -0.0158
      5 C          -2.1016    0.5632   -0.3596 C.ar    1  UNL1       -0.0466
      6 C          -3.0346    0.0042    0.5089 C.ar    1  UNL1       -0.0586
      7 C          -4.0558   -0.8408    0.1254 C.ar    1  UNL1       -0.0615
      8 C          -4.1671   -1.1592   -1.2115 C.ar    1  UNL1       -0.0617
      9 C          -3.2510   -0.6142   -2.0868 C.ar    1  UNL1       -0.0615
     10 C          -2.2374    0.2282   -1.6853 C.ar    1  UNL1       -0.0586
     11 C           0.9092    0.0961   -0.2982 C.2     1  UNL1        0.2176
     12 O           0.9920   -0.0997   -1.5372 O.2     1  UNL1       -0.2755
     13 N           2.1048   -0.5188    0.2363 N.am    1  UNL1       -0.3046
     14 C           3.0039   -1.1462   -0.7414 C.3     1  UNL1        0.1088
     15 C           4.1898   -1.7473   -0.1377 C.2     1  UNL1        0.3221
     16 O           5.0685   -2.3507   -1.0110 O.3     1  UNL1       -0.4795
     17 O           4.5490   -1.8048    1.0855 O.2     1  UNL1       -0.2492
     18 H          -0.1739   -0.0575    1.5481 H       1  UNL1        0.0405
     19 H           0.4012    2.2630    2.2223 H       1  UNL1        0.0381
     20 H           1.9057    1.2789    1.8362 H       1  UNL1        0.0381
     21 H           0.3420    3.8504    0.0578 H       1  UNL1        0.1017
     22 H          -1.6045    2.0206    1.1082 H       1  UNL1        0.0321
     23 H          -0.7514    2.1831   -0.4479 H       1  UNL1        0.0321
     24 H          -3.0314    0.1953    1.5886 H       1  UNL1        0.0620
     25 H          -4.7644   -1.2637    0.7947 H       1  UNL1        0.0618
     26 H          -4.9078   -1.8020   -1.6599 H       1  UNL1        0.0618
     27 H          -3.2299   -0.7862   -3.1631 H       1  UNL1        0.0618
     28 H          -1.4980    0.6844   -2.3254 H       1  UNL1        0.0620
     29 H           2.4387   -0.5897    1.2335 H       1  UNL1        0.1493
     30 H           3.3225   -0.4087   -1.5118 H       1  UNL1        0.0577
     31 H           2.4290   -1.9348   -1.3055 H       1  UNL1        0.0577
     32 H           5.7401   -3.0817   -0.7471 H       1  UNL1        0.2951
@<TRIPOS>BOND
     1     1     2    1
     2     2     3    1
     3     1     4    1
     4     4     5    1
     5     5     6   ar
     6     6     7   ar
     7     7     8   ar
     8     8     9   ar
     9     9    10   ar
    10     1    11    1
    11    11    12    2
    12    11    13   am
    13    13    14    1
    14    14    15    1
    15    15    16    1
    16    15    17    2
    17    10     5   ar
    18     1    18    1
    19     2    19    1
    20     2    20    1
    21     3    21    1
    22     4    22    1
    23     4    23    1
    24     6    24    1
    25     7    25    1
    26     8    26    1
    27     9    27    1
    28    10    28    1
    29    13    29    1
    30    14    30    1
    31    14    31    1
    32    16    32    1
