@<TRIPOS>MOLECULE
*****
 54 57 0 0 0
SMALL
GASTEIGER

@<TRIPOS>ATOM
      1 C           5.9157    1.7026   -0.1961 C.3     1  UNL1       -0.0333
      2 C           4.4308    1.9115   -0.3443 C.3     1  UNL1        0.1073
      3 C           4.2076    2.2608   -1.7699 C.1     1  UNL1        0.0846
      4 N           4.0372    2.5179   -2.8915 N.1     1  UNL1       -0.1946
      5 N           3.7155    0.6638   -0.0370 N.am    1  UNL1       -0.2998
      6 C           2.6088    0.6815    0.8587 C.2     1  UNL1        0.2178
      7 O           2.2841    1.7731    1.3516 O.2     1  UNL1       -0.2755
      8 C           1.8976   -0.6150    1.1567 C.3     1  UNL1        0.0466
      9 C           2.9762   -1.4610    1.8422 C.3     1  UNL1       -0.0412
     10 C           2.5090   -2.8276    2.2132 C.3     1  UNL1       -0.0523
     11 C           2.0670   -3.5412    0.9569 C.3     1  UNL1       -0.0523
     12 C           2.1601   -2.6196   -0.2267 C.3     1  UNL1       -0.0412
     13 C           1.4334   -1.3208   -0.0734 C.3     1  UNL1        0.0468
     14 C          -0.0452   -1.4934   -0.1582 C.2     1  UNL1        0.2197
     15 O          -0.4463   -2.7093   -0.0890 O.2     1  UNL1       -0.2753
     16 N          -0.9707   -0.4273   -0.3059 N.am    1  UNL1       -0.2965
     17 C          -0.4915    0.9118   -0.3986 C.3     1  UNL1        0.0204
     18 C          -1.4582    1.8572   -1.0705 C.3     1  UNL1        0.0037
     19 C          -2.8649    1.6175   -0.7543 C.ar    1  UNL1        0.0232
     20 N          -3.9067    2.4598   -0.7309 N.ar    1  UNL1       -0.3576
     21 C          -4.9866    1.7586   -0.3824 C.ar    1  UNL1        0.0472
     22 C          -6.2990    2.2020   -0.2259 C.ar    1  UNL1       -0.0351
     23 C          -7.2755    1.3068    0.1419 C.ar    1  UNL1       -0.0245
     24 C          -6.9430    0.0029    0.3475 C.ar    1  UNL1        0.1241
     25 F          -7.8913   -0.8790    0.7073 F       1  UNL1       -0.2055
     26 C          -5.6261   -0.4388    0.1900 C.ar    1  UNL1       -0.0170
     27 C          -4.6336    0.4525   -0.1802 C.ar    1  UNL1        0.0073
     28 C          -3.2768    0.3543   -0.4165 C.ar    1  UNL1       -0.0018
     29 C          -2.3756   -0.7924   -0.3541 C.3     1  UNL1        0.0420
     30 H           6.2646    2.0001    0.7929 H       1  UNL1        0.0258
     31 H           6.4827    2.1751   -1.0297 H       1  UNL1        0.0258
     32 H           6.0816    0.5894   -0.2942 H       1  UNL1        0.0258
     33 H           4.0268    2.7607    0.2204 H       1  UNL1        0.0654
     34 H           4.0620   -0.1890   -0.5006 H       1  UNL1        0.1499
     35 H           1.0798   -0.3517    1.8280 H       1  UNL1        0.0401
     36 H           3.8691   -1.4137    1.2232 H       1  UNL1        0.0273
     37 H           3.2242   -0.9050    2.7847 H       1  UNL1        0.0273
     38 H           3.3878   -3.3456    2.6898 H       1  UNL1        0.0265
     39 H           1.7133   -2.7700    2.9848 H       1  UNL1        0.0265
     40 H           2.8330   -4.3496    0.7644 H       1  UNL1        0.0265
     41 H           1.0742   -4.0102    1.0958 H       1  UNL1        0.0265
     42 H           3.2420   -2.4250   -0.4124 H       1  UNL1        0.0273
     43 H           1.8311   -3.1730   -1.1513 H       1  UNL1        0.0273
     44 H           1.6974   -0.7110   -0.9781 H       1  UNL1        0.0402
     45 H           0.4402    0.8866   -1.0093 H       1  UNL1        0.0468
     46 H          -0.3184    1.3009    0.6224 H       1  UNL1        0.0468
     47 H          -1.1624    2.9118   -0.9042 H       1  UNL1        0.0343
     48 H          -1.3185    1.6971   -2.1803 H       1  UNL1        0.0343
     49 H          -3.8678    3.4754   -0.9459 H       1  UNL1        0.1656
     50 H          -6.5803    3.2252   -0.3843 H       1  UNL1        0.0639
     51 H          -8.3177    1.6457    0.2665 H       1  UNL1        0.0647
     52 H          -5.3515   -1.4632    0.3482 H       1  UNL1        0.0653
     53 H          -2.4919   -1.3343   -1.3409 H       1  UNL1        0.0514
     54 H          -2.6530   -1.5360    0.4094 H       1  UNL1        0.0514
@<TRIPOS>BOND
     1     1     2    1
     2     2     3    1
     3     3     4    3
     4     2     5    1
     5     5     6   am
     6     6     7    2
     7     6     8    1
     8     8     9    1
     9     9    10    1
    10    10    11    1
    11    11    12    1
    12    12    13    1
    13    13    14    1
    14    14    15    2
    15    14    16   am
    16    16    17    1
    17    17    18    1
    18    18    19    1
    19    19    20   ar
    20    20    21   ar
    21    21    22   ar
    22    22    23   ar
    23    23    24   ar
    24    24    25    1
    25    24    26   ar
    26    26    27   ar
    27    27    28   ar
    28    28    29    1
    29    13     8    1
    30    29    16    1
    31    28    19   ar
    32    27    21   ar
    33     1    30    1
    34     1    31    1
    35     1    32    1
    36     2    33    1
    37     5    34    1
    38     8    35    1
    39     9    36    1
    40     9    37    1
    41    10    38    1
    42    10    39    1
    43    11    40    1
    44    11    41    1
    45    12    42    1
    46    12    43    1
    47    13    44    1
    48    17    45    1
    49    17    46    1
    50    18    47    1
    51    18    48    1
    52    20    49    1
    53    22    50    1
    54    23    51    1
    55    26    52    1
    56    29    53    1
    57    29    54    1
