@<TRIPOS>MOLECULE
*****
 43 45 0 0 0
SMALL
GASTEIGER

@<TRIPOS>ATOM
      1 C           6.4468    1.6628   -0.4731 C.3     1  UNL1       -0.0307
      2 C           6.1463    1.5097    0.9884 C.3     1  UNL1        0.0870
      3 O           5.4330    0.3558    1.2957 O.3     1  UNL1       -0.4886
      4 C           4.1931   -0.0182    0.8566 C.ar    1  UNL1        0.1617
      5 C           3.4483    0.7860   -0.0143 C.ar    1  UNL1       -0.0160
      6 C           2.1875    0.3724   -0.4418 C.ar    1  UNL1       -0.0534
      7 C           1.6933   -0.8300    0.0042 C.ar    1  UNL1       -0.0268
      8 C           0.3535   -1.2506   -0.4598 C.3     1  UNL1        0.0340
      9 N          -0.6117   -0.7415    0.4990 N.pl3   1  UNL1       -0.3449
     10 C          -2.0269   -1.0005    0.3205 C.2     1  UNL1        0.0025
     11 C          -2.7552   -0.0006   -0.1034 C.2     1  UNL1        0.0584
     12 C          -2.1241    1.3056   -0.3725 C.2     1  UNL1        0.2523
     13 O          -0.8795    1.4841   -0.2010 O.2     1  UNL1       -0.2697
     14 N          -2.8524    2.4323   -0.8335 N.am    1  UNL1       -0.2483
     15 C          -4.2442    2.2495   -1.0303 C.2     1  UNL1        0.2511
     16 O          -4.9634    3.2188   -1.4435 O.2     1  UNL1       -0.2698
     17 C          -4.9059    0.9811   -0.7777 C.ar    1  UNL1        0.0451
     18 C          -6.2661    0.8275   -0.9773 C.ar    1  UNL1       -0.0480
     19 C          -6.8702   -0.3817   -0.7318 C.ar    1  UNL1       -0.0470
     20 C          -6.1698   -1.4610   -0.2896 C.ar    1  UNL1        0.0185
     21 BR         -7.0572   -3.1236    0.0378 Br      1  UNL1       -0.0503
     22 C          -4.7909   -1.3316   -0.0796 C.ar    1  UNL1       -0.0391
     23 C          -4.1771   -0.1224   -0.3234 C.ar    1  UNL1        0.0014
     24 C           2.4380   -1.6089    0.8602 C.ar    1  UNL1       -0.0119
     25 C           3.6918   -1.2295    1.3041 C.ar    1  UNL1        0.1588
     26 O           4.4605   -1.9970    2.1661 O.3     1  UNL1       -0.5033
     27 H           7.5481    1.6234   -0.6124 H       1  UNL1        0.0262
     28 H           5.9429    0.8163   -1.0105 H       1  UNL1        0.0262
     29 H           6.0042    2.5896   -0.8710 H       1  UNL1        0.0262
     30 H           5.6383    2.4324    1.3482 H       1  UNL1        0.0694
     31 H           7.1015    1.4710    1.5851 H       1  UNL1        0.0694
     32 H           3.8328    1.7321   -0.3643 H       1  UNL1        0.0655
     33 H           1.6701    1.0421   -1.1134 H       1  UNL1        0.0622
     34 H           0.1324   -0.7978   -1.4443 H       1  UNL1        0.0511
     35 H           0.2727   -2.3528   -0.5675 H       1  UNL1        0.0511
     36 H          -0.3606   -0.1835    1.3402 H       1  UNL1        0.1459
     37 H          -2.4394   -1.9505    0.5246 H       1  UNL1        0.0786
     38 H          -2.4078    3.3516   -1.0229 H       1  UNL1        0.1581
     39 H          -6.7991    1.6996   -1.3286 H       1  UNL1        0.0626
     40 H          -7.9334   -0.4645   -0.8987 H       1  UNL1        0.0629
     41 H          -4.2794   -2.2279    0.2750 H       1  UNL1        0.0635
     42 H           2.0487   -2.5512    1.2086 H       1  UNL1        0.0658
     43 H           4.2305   -1.9961    3.1719 H       1  UNL1        0.2923
@<TRIPOS>BOND
     1     1     2    1
     2     2     3    1
     3     3     4    1
     4     4     5   ar
     5     5     6   ar
     6     6     7   ar
     7     7     8    1
     8     8     9    1
     9     9    10    1
    10    10    11    2
    11    11    12    1
    12    12    13    2
    13    12    14   am
    14    14    15   am
    15    15    16    2
    16    15    17    1
    17    17    18   ar
    18    18    19   ar
    19    19    20   ar
    20    20    21    1
    21    20    22   ar
    22    22    23   ar
    23     7    24   ar
    24    24    25   ar
    25    25    26    1
    26    25     4   ar
    27    23    11    1
    28    23    17   ar
    29     1    27    1
    30     1    28    1
    31     1    29    1
    32     2    30    1
    33     2    31    1
    34     5    32    1
    35     6    33    1
    36     8    34    1
    37     8    35    1
    38     9    36    1
    39    10    37    1
    40    14    38    1
    41    18    39    1
    42    19    40    1
    43    22    41    1
    44    24    42    1
    45    26    43    1
