
     RDKit          3D

 43 45  0  0  0  0  0  0  0  0999 V2000
    6.4468    1.6628   -0.4731 C   0  0  0  0  0  0  0  0  0  0  0  0
    6.1463    1.5097    0.9884 C   0  0  0  0  0  0  0  0  0  0  0  0
    5.4330    0.3558    1.2957 O   0  0  0  0  0  0  0  0  0  0  0  0
    4.1931   -0.0182    0.8566 C   0  0  0  0  0  0  0  0  0  0  0  0
    3.4483    0.7860   -0.0143 C   0  0  0  0  0  0  0  0  0  0  0  0
    2.1875    0.3724   -0.4418 C   0  0  0  0  0  0  0  0  0  0  0  0
    1.6933   -0.8300    0.0042 C   0  0  0  0  0  0  0  0  0  0  0  0
    0.3535   -1.2506   -0.4598 C   0  0  0  0  0  0  0  0  0  0  0  0
   -0.6117   -0.7415    0.4990 N   0  0  0  0  0  0  0  0  0  0  0  0
   -2.0269   -1.0005    0.3205 C   0  0  0  0  0  0  0  0  0  0  0  0
   -2.7552   -0.0006   -0.1034 C   0  0  0  0  0  0  0  0  0  0  0  0
   -2.1241    1.3056   -0.3725 C   0  0  0  0  0  0  0  0  0  0  0  0
   -0.8795    1.4841   -0.2010 O   0  0  0  0  0  0  0  0  0  0  0  0
   -2.8524    2.4323   -0.8335 N   0  0  0  0  0  0  0  0  0  0  0  0
   -4.2442    2.2495   -1.0303 C   0  0  0  0  0  0  0  0  0  0  0  0
   -4.9634    3.2188   -1.4435 O   0  0  0  0  0  0  0  0  0  0  0  0
   -4.9059    0.9811   -0.7777 C   0  0  0  0  0  0  0  0  0  0  0  0
   -6.2661    0.8275   -0.9773 C   0  0  0  0  0  0  0  0  0  0  0  0
   -6.8702   -0.3817   -0.7318 C   0  0  0  0  0  0  0  0  0  0  0  0
   -6.1698   -1.4610   -0.2896 C   0  0  0  0  0  0  0  0  0  0  0  0
   -7.0572   -3.1236    0.0378 Br  0  0  0  0  0  0  0  0  0  0  0  0
   -4.7909   -1.3316   -0.0796 C   0  0  0  0  0  0  0  0  0  0  0  0
   -4.1771   -0.1224   -0.3234 C   0  0  0  0  0  0  0  0  0  0  0  0
    2.4380   -1.6089    0.8602 C   0  0  0  0  0  0  0  0  0  0  0  0
    3.6918   -1.2295    1.3041 C   0  0  0  0  0  0  0  0  0  0  0  0
    4.4605   -1.9970    2.1661 O   0  0  0  0  0  0  0  0  0  0  0  0
    7.5481    1.6234   -0.6124 H   0  0  0  0  0  0  0  0  0  0  0  0
    5.9429    0.8163   -1.0105 H   0  0  0  0  0  0  0  0  0  0  0  0
    6.0042    2.5896   -0.8710 H   0  0  0  0  0  0  0  0  0  0  0  0
    5.6383    2.4324    1.3482 H   0  0  0  0  0  0  0  0  0  0  0  0
    7.1015    1.4710    1.5851 H   0  0  0  0  0  0  0  0  0  0  0  0
    3.8328    1.7321   -0.3643 H   0  0  0  0  0  0  0  0  0  0  0  0
    1.6701    1.0421   -1.1134 H   0  0  0  0  0  0  0  0  0  0  0  0
    0.1324   -0.7978   -1.4443 H   0  0  0  0  0  0  0  0  0  0  0  0
    0.2727   -2.3528   -0.5675 H   0  0  0  0  0  0  0  0  0  0  0  0
   -0.3606   -0.1835    1.3402 H   0  0  0  0  0  0  0  0  0  0  0  0
   -2.4394   -1.9505    0.5246 H   0  0  0  0  0  0  0  0  0  0  0  0
   -2.4078    3.3516   -1.0229 H   0  0  0  0  0  0  0  0  0  0  0  0
   -6.7991    1.6996   -1.3286 H   0  0  0  0  0  0  0  0  0  0  0  0
   -7.9334   -0.4645   -0.8987 H   0  0  0  0  0  0  0  0  0  0  0  0
   -4.2794   -2.2279    0.2750 H   0  0  0  0  0  0  0  0  0  0  0  0
    2.0487   -2.5512    1.2086 H   0  0  0  0  0  0  0  0  0  0  0  0
    4.2305   -1.9961    3.1719 H   0  0  0  0  0  0  0  0  0  0  0  0
  1  2  1  0
  2  3  1  0
  3  4  1  0
  4  5  2  0
  5  6  1  0
  6  7  2  0
  7  8  1  0
  8  9  1  0
  9 10  1  0
 10 11  2  3
 11 12  1  0
 12 13  2  0
 12 14  1  0
 14 15  1  0
 15 16  2  0
 15 17  1  0
 17 18  2  0
 18 19  1  0
 19 20  2  0
 20 21  1  0
 20 22  1  0
 22 23  2  0
  7 24  1  0
 24 25  2  0
 25 26  1  0
 25  4  1  0
 23 11  1  0
 23 17  1  0
  1 27  1  0
  1 28  1  0
  1 29  1  0
  2 30  1  0
  2 31  1  0
  5 32  1  0
  6 33  1  0
  8 34  1  0
  8 35  1  0
  9 36  1  0
 10 37  1  0
 14 38  1  0
 18 39  1  0
 19 40  1  0
 22 41  1  0
 24 42  1  0
 26 43  1  0
M  END
$$$$
