
     RDKit          3D

 48 50  0  0  0  0  0  0  0  0999 V2000
    5.8054    0.5002   -0.6262 C   0  0  0  0  0  0  0  0  0  0  0  0
    4.7277    0.2176    0.3496 C   0  0  0  0  0  0  0  0  0  0  0  0
    4.9267    0.5543    1.5636 O   0  0  0  0  0  0  0  0  0  0  0  0
    3.5140   -0.4037   -0.0354 N   0  0  0  0  0  0  0  0  0  0  0  0
    3.2058   -0.8174   -1.3836 C   0  0  0  0  0  0  0  0  0  0  0  0
    1.6959   -0.8007   -1.4543 C   0  0  0  0  0  0  0  0  0  0  0  0
    1.2872   -1.0682   -0.0565 C   0  0  2  0  0  0  0  0  0  0  0  0
   -0.0768   -0.6450    0.2974 N   0  0  0  0  0  0  0  0  0  0  0  0
   -1.0384   -1.6734   -0.0252 C   0  0  0  0  0  0  0  0  0  0  0  0
   -2.4389   -1.5459    0.1285 C   0  0  0  0  0  0  0  0  0  0  0  0
   -3.0873   -2.1501    1.2151 C   0  0  0  0  0  0  0  0  0  0  0  0
   -4.4417   -2.0958    1.4119 C   0  0  0  0  0  0  0  0  0  0  0  0
   -5.2211   -1.4278    0.5226 C   0  0  0  0  0  0  0  0  0  0  0  0
   -4.6119   -0.8246   -0.5553 C   0  0  0  0  0  0  0  0  0  0  0  0
   -3.2365   -0.8667   -0.7771 C   0  0  0  0  0  0  0  0  0  0  0  0
   -2.7247   -0.2131   -1.9768 C   0  0  0  0  0  0  0  0  0  0  0  0
   -2.0429   -1.0530   -2.8289 F   0  0  0  0  0  0  0  0  0  0  0  0
   -2.0629    0.9545   -1.7125 F   0  0  0  0  0  0  0  0  0  0  0  0
   -3.8358    0.1949   -2.7504 F   0  0  0  0  0  0  0  0  0  0  0  0
   -0.2995    0.6514    0.7902 C   0  0  0  0  0  0  0  0  0  0  0  0
   -1.4830    1.0706    1.4107 C   0  0  0  0  0  0  0  0  0  0  0  0
   -1.7123    2.3838    1.8075 C   0  0  0  0  0  0  0  0  0  0  0  0
   -0.7349    3.3256    1.5848 C   0  0  0  0  0  0  0  0  0  0  0  0
   -0.9100    4.6968    1.9716 C   0  0  0  0  0  0  0  0  0  0  0  0
   -1.0556    5.8049    2.3038 N   0  0  0  0  0  0  0  0  0  0  0  0
    0.4433    2.9541    0.9772 C   0  0  0  0  0  0  0  0  0  0  0  0
    1.7164    4.1414    0.6787 Cl  0  0  0  0  0  0  0  0  0  0  0  0
    0.6595    1.6270    0.5818 C   0  0  0  0  0  0  0  0  0  0  0  0
    2.3771   -0.7330    0.8365 C   0  0  0  0  0  0  0  0  0  0  0  0
    5.4335    0.6501   -1.6587 H   0  0  0  0  0  0  0  0  0  0  0  0
    6.3239    1.4384   -0.3374 H   0  0  0  0  0  0  0  0  0  0  0  0
    6.5374   -0.3322   -0.5402 H   0  0  0  0  0  0  0  0  0  0  0  0
    3.5232   -1.8679   -1.5734 H   0  0  0  0  0  0  0  0  0  0  0  0
    3.6212   -0.1381   -2.1557 H   0  0  0  0  0  0  0  0  0  0  0  0
    1.3284   -1.5932   -2.1704 H   0  0  0  0  0  0  0  0  0  0  0  0
    1.4153    0.2083   -1.8579 H   0  0  0  0  0  0  0  0  0  0  0  0
    1.2557   -2.2475   -0.0342 H   0  0  0  0  0  0  0  0  0  0  0  0
   -0.6594   -2.5556    0.6219 H   0  0  0  0  0  0  0  0  0  0  0  0
   -0.7569   -2.1211   -1.0609 H   0  0  0  0  0  0  0  0  0  0  0  0
   -2.5123   -2.7020    1.9640 H   0  0  0  0  0  0  0  0  0  0  0  0
   -4.9358   -2.5715    2.2639 H   0  0  0  0  0  0  0  0  0  0  0  0
   -6.2984   -1.3862    0.6828 H   0  0  0  0  0  0  0  0  0  0  0  0
   -5.2839   -0.2925   -1.2516 H   0  0  0  0  0  0  0  0  0  0  0  0
   -2.2503    0.3477    1.6083 H   0  0  0  0  0  0  0  0  0  0  0  0
   -2.6481    2.6518    2.2836 H   0  0  0  0  0  0  0  0  0  0  0  0
    1.5822    1.4260    0.0806 H   0  0  0  0  0  0  0  0  0  0  0  0
    2.7636   -1.6893    1.3623 H   0  0  0  0  0  0  0  0  0  0  0  0
    2.2156    0.0165    1.6251 H   0  0  0  0  0  0  0  0  0  0  0  0
  1  2  1  0
  2  3  2  0
  2  4  1  0
  4  5  1  0
  5  6  1  0
  6  7  1  0
  7  8  1  0
  8  9  1  0
  9 10  1  0
 10 11  2  0
 11 12  1  0
 12 13  2  0
 13 14  1  0
 14 15  2  0
 15 16  1  0
 16 17  1  0
 16 18  1  0
 16 19  1  0
  8 20  1  0
 20 21  2  0
 21 22  1  0
 22 23  2  0
 23 24  1  0
 24 25  3  0
 23 26  1  0
 26 27  1  0
 26 28  2  0
  7 29  1  0
 29  4  1  0
 15 10  1  0
 28 20  1  0
  1 30  1  0
  1 31  1  0
  1 32  1  0
  5 33  1  0
  5 34  1  0
  6 35  1  0
  6 36  1  0
  7 37  1  6
  9 38  1  0
  9 39  1  0
 11 40  1  0
 12 41  1  0
 13 42  1  0
 14 43  1  0
 21 44  1  0
 22 45  1  0
 28 46  1  0
 29 47  1  0
 29 48  1  0
M  END
$$$$
