@<TRIPOS>MOLECULE
*****
 48 50 0 0 0
SMALL
GASTEIGER

@<TRIPOS>ATOM
      1 C           5.8054    0.5002   -0.6262 C.3     1  UNL1        0.0124
      2 C           4.7277    0.2176    0.3496 C.2     1  UNL1        0.2125
      3 O           4.9267    0.5543    1.5636 O.2     1  UNL1       -0.2759
      4 N           3.5140   -0.4037   -0.0354 N.am    1  UNL1       -0.2999
      5 C           3.2058   -0.8174   -1.3836 C.3     1  UNL1        0.0165
      6 C           1.6959   -0.8007   -1.4543 C.3     1  UNL1       -0.0170
      7 C           1.2872   -1.0682   -0.0565 C.3     1  UNL1        0.0410
      8 N          -0.0768   -0.6450    0.2974 N.pl3   1  UNL1       -0.3209
      9 C          -1.0384   -1.6734   -0.0252 C.3     1  UNL1        0.0381
     10 C          -2.4389   -1.5459    0.1285 C.ar    1  UNL1       -0.0186
     11 C          -3.0873   -2.1501    1.2151 C.ar    1  UNL1       -0.0565
     12 C          -4.4417   -2.0958    1.4119 C.ar    1  UNL1       -0.0614
     13 C          -5.2211   -1.4278    0.5226 C.ar    1  UNL1       -0.0612
     14 C          -4.6119   -0.8246   -0.5553 C.ar    1  UNL1       -0.0498
     15 C          -3.2365   -0.8667   -0.7771 C.ar    1  UNL1        0.0595
     16 C          -2.7247   -0.2131   -1.9768 C.3     1  UNL1        0.4177
     17 F          -2.0429   -1.0530   -2.8289 F       1  UNL1       -0.1659
     18 F          -2.0629    0.9545   -1.7125 F       1  UNL1       -0.1659
     19 F          -3.8358    0.1949   -2.7504 F       1  UNL1       -0.1659
     20 C          -0.2995    0.6514    0.7902 C.ar    1  UNL1        0.0317
     21 C          -1.4830    1.0706    1.4107 C.ar    1  UNL1       -0.0393
     22 C          -1.7123    2.3838    1.8075 C.ar    1  UNL1       -0.0412
     23 C          -0.7349    3.3256    1.5848 C.ar    1  UNL1        0.0701
     24 C          -0.9100    4.6968    1.9716 C.1     1  UNL1        0.1006
     25 N          -1.0556    5.8049    2.3038 N.1     1  UNL1       -0.1908
     26 C           0.4433    2.9541    0.9772 C.ar    1  UNL1        0.0600
     27 CL          1.7164    4.1414    0.6787 Cl      1  UNL1       -0.0822
     28 C           0.6595    1.6270    0.5818 C.ar    1  UNL1       -0.0210
     29 C           2.3771   -0.7330    0.8365 C.3     1  UNL1        0.0333
     30 H           5.4335    0.6501   -1.6587 H       1  UNL1        0.0323
     31 H           6.3239    1.4384   -0.3374 H       1  UNL1        0.0323
     32 H           6.5374   -0.3322   -0.5402 H       1  UNL1        0.0323
     33 H           3.5232   -1.8679   -1.5734 H       1  UNL1        0.0465
     34 H           3.6212   -0.1381   -2.1557 H       1  UNL1        0.0465
     35 H           1.3284   -1.5932   -2.1704 H       1  UNL1        0.0299
     36 H           1.4153    0.2083   -1.8579 H       1  UNL1        0.0299
     37 H           1.2557   -2.2475   -0.0342 H       1  UNL1        0.0516
     38 H          -0.6594   -2.5556    0.6219 H       1  UNL1        0.0513
     39 H          -0.7569   -2.1211   -1.0609 H       1  UNL1        0.0513
     40 H          -2.5123   -2.7020    1.9640 H       1  UNL1        0.0621
     41 H          -4.9358   -2.5715    2.2639 H       1  UNL1        0.0618
     42 H          -6.2984   -1.3862    0.6828 H       1  UNL1        0.0618
     43 H          -5.2839   -0.2925   -1.2516 H       1  UNL1        0.0623
     44 H          -2.2503    0.3477    1.6083 H       1  UNL1        0.0636
     45 H          -2.6481    2.6518    2.2836 H       1  UNL1        0.0631
     46 H           1.5822    1.4260    0.0806 H       1  UNL1        0.0651
     47 H           2.7636   -1.6893    1.3623 H       1  UNL1        0.0483
     48 H           2.2156    0.0165    1.6251 H       1  UNL1        0.0483
@<TRIPOS>BOND
     1     1     2    1
     2     2     3    2
     3     2     4   am
     4     4     5    1
     5     5     6    1
     6     6     7    1
     7     7     8    1
     8     8     9    1
     9     9    10    1
    10    10    11   ar
    11    11    12   ar
    12    12    13   ar
    13    13    14   ar
    14    14    15   ar
    15    15    16    1
    16    16    17    1
    17    16    18    1
    18    16    19    1
    19     8    20    1
    20    20    21   ar
    21    21    22   ar
    22    22    23   ar
    23    23    24    1
    24    24    25    3
    25    23    26   ar
    26    26    27    1
    27    26    28   ar
    28     7    29    1
    29    29     4    1
    30    15    10   ar
    31    28    20   ar
    32     1    30    1
    33     1    31    1
    34     1    32    1
    35     5    33    1
    36     5    34    1
    37     6    35    1
    38     6    36    1
    39     7    37    1
    40     9    38    1
    41     9    39    1
    42    11    40    1
    43    12    41    1
    44    13    42    1
    45    14    43    1
    46    21    44    1
    47    22    45    1
    48    28    46    1
    49    29    47    1
    50    29    48    1
