@<TRIPOS>MOLECULE
*****
 55 59 0 0 0
SMALL
GASTEIGER

@<TRIPOS>ATOM
      1 C          -7.2663    1.5114    0.2961 C.3     1  UNL1       -0.0396
      2 C          -5.8373    1.3191   -0.0778 C.ar    1  UNL1       -0.0483
      3 C          -5.0913    2.3330   -0.6401 C.ar    1  UNL1       -0.0580
      4 C          -3.7698    2.1851   -0.9956 C.ar    1  UNL1       -0.0473
      5 C          -3.1574    0.9757   -0.7844 C.ar    1  UNL1        0.0640
      6 C          -1.7460    0.7634   -1.1465 C.2     1  UNL1        0.2491
      7 O          -1.5045    0.3454   -2.3052 O.2     1  UNL1       -0.2699
      8 N          -0.6898    1.0128   -0.2441 N.am    1  UNL1       -0.2897
      9 C          -0.9119    1.4955    1.1035 C.3     1  UNL1        0.0388
     10 C          -0.1790    2.8344    1.2057 C.3     1  UNL1        0.0635
     11 O           1.0892    2.7635    0.6902 O.3     1  UNL1       -0.3764
     12 C           1.5341    1.4677    0.4473 C.3     1  UNL1        0.0666
     13 C           0.6875    0.7934   -0.6317 C.3     1  UNL1        0.0537
     14 C           1.0153   -0.7052   -0.5819 C.3     1  UNL1       -0.0068
     15 C           2.4274   -0.9357   -0.9793 C.ar    1  UNL1       -0.0435
     16 C           2.7281   -1.1526   -2.3175 C.ar    1  UNL1       -0.0584
     17 C           4.0213   -1.3727   -2.7469 C.ar    1  UNL1       -0.0594
     18 C           5.0542   -1.3793   -1.8251 C.ar    1  UNL1       -0.0345
     19 C           4.7796   -1.1648   -0.4796 C.ar    1  UNL1        0.0864
     20 N           5.8590   -1.1746    0.4626 N.ar    1  UNL1       -0.1503
     21 N           6.5491   -2.2424    0.8729 N.ar    1  UNL1       -0.1556
     22 C           7.4819   -1.8814    1.7542 C.ar    1  UNL1        0.0697
     23 C           7.3618   -0.5111    1.8972 C.ar    1  UNL1        0.0697
     24 N           6.3629   -0.1284    1.0928 N.ar    1  UNL1       -0.1556
     25 C           3.4793   -0.9489   -0.0885 C.ar    1  UNL1       -0.0313
     26 C          -3.9020   -0.0389   -0.2223 C.ar    1  UNL1        0.0985
     27 N          -3.2796   -1.3161    0.0087 N.ar    1  UNL1       -0.1496
     28 N          -2.2849   -1.5600    0.8099 N.ar    1  UNL1       -0.1556
     29 C          -1.9831   -2.8680    0.7564 C.ar    1  UNL1        0.0697
     30 C          -2.8563   -3.4469   -0.1374 C.ar    1  UNL1        0.0697
     31 N          -3.6297   -2.4316   -0.5619 N.ar    1  UNL1       -0.1556
     32 C          -5.2256    0.1066    0.1347 C.ar    1  UNL1       -0.0309
     33 H          -7.4241    1.5845    1.3767 H       1  UNL1        0.0278
     34 H          -7.8636    0.6500   -0.0678 H       1  UNL1        0.0278
     35 H          -7.6374    2.4056   -0.2690 H       1  UNL1        0.0278
     36 H          -5.6058    3.2996   -0.8012 H       1  UNL1        0.0620
     37 H          -3.2356    3.0179   -1.4335 H       1  UNL1        0.0626
     38 H          -1.9625    1.5812    1.3662 H       1  UNL1        0.0487
     39 H          -0.3941    0.8179    1.8416 H       1  UNL1        0.0487
     40 H          -0.7691    3.5525    0.5999 H       1  UNL1        0.0575
     41 H          -0.2075    3.2136    2.2560 H       1  UNL1        0.0575
     42 H           2.5600    1.5482    0.0343 H       1  UNL1        0.0578
     43 H           1.5880    0.8593    1.3612 H       1  UNL1        0.0578
     44 H           0.9269    1.1532   -1.6298 H       1  UNL1        0.0526
     45 H           0.3104   -1.2551   -1.2407 H       1  UNL1        0.0332
     46 H           0.8170   -1.1027    0.4508 H       1  UNL1        0.0332
     47 H           1.9179   -1.1463   -3.0328 H       1  UNL1        0.0620
     48 H           4.2451   -1.5406   -3.7919 H       1  UNL1        0.0618
     49 H           6.0620   -1.5529   -2.1746 H       1  UNL1        0.0639
     50 H           8.2112   -2.4894    2.2820 H       1  UNL1        0.0864
     51 H           7.9581    0.1461    2.5377 H       1  UNL1        0.0864
     52 H           3.2872   -0.7846    0.9613 H       1  UNL1        0.0642
     53 H          -1.2094   -3.3777    1.3027 H       1  UNL1        0.0864
     54 H          -2.9261   -4.4867   -0.4475 H       1  UNL1        0.0864
     55 H          -5.7647   -0.7418    0.5792 H       1  UNL1        0.0642
@<TRIPOS>BOND
     1     1     2    1
     2     2     3   ar
     3     3     4   ar
     4     4     5   ar
     5     5     6    1
     6     6     7    2
     7     6     8   am
     8     8     9    1
     9     9    10    1
    10    10    11    1
    11    11    12    1
    12    12    13    1
    13    13    14    1
    14    14    15    1
    15    15    16   ar
    16    16    17   ar
    17    17    18   ar
    18    18    19   ar
    19    19    20    1
    20    20    21   ar
    21    21    22   ar
    22    22    23   ar
    23    23    24   ar
    24    19    25   ar
    25     5    26   ar
    26    26    27    1
    27    27    28   ar
    28    28    29   ar
    29    29    30   ar
    30    30    31   ar
    31    26    32   ar
    32    32     2   ar
    33    13     8    1
    34    25    15   ar
    35    31    27   ar
    36    24    20   ar
    37     1    33    1
    38     1    34    1
    39     1    35    1
    40     3    36    1
    41     4    37    1
    42     9    38    1
    43     9    39    1
    44    10    40    1
    45    10    41    1
    46    12    42    1
    47    12    43    1
    48    13    44    1
    49    14    45    1
    50    14    46    1
    51    16    47    1
    52    17    48    1
    53    18    49    1
    54    22    50    1
    55    23    51    1
    56    25    52    1
    57    29    53    1
    58    30    54    1
    59    32    55    1
