@<TRIPOS>MOLECULE
*****
 14 13 0 0 0
SMALL
GASTEIGER

@<TRIPOS>ATOM
      1 O           2.8480    1.0075    0.0029 O.3     1  UNL1       -0.4790
      2 C           2.3056   -0.2308    0.1894 C.2     1  UNL1        0.3314
      3 O           3.0505   -1.2315    0.4479 O.2     1  UNL1       -0.2484
      4 C           0.8452   -0.5012    0.1078 C.3     1  UNL1        0.1556
      5 O           0.1003    0.6251   -0.1747 O.3     1  UNL1       -0.2754
      6 P          -1.5594    0.3049   -0.2646 P.3     1  UNL1        0.4729
      7 O          -2.3374    1.8201   -0.1652 O.3     1  UNL1       -0.3026
      8 O          -2.0795   -0.6908    1.0095 O.3     1  UNL1       -0.3026
      9 O          -1.9366   -0.3774   -1.5515 O.2     1  UNL1       -0.2275
     10 H           3.7428    1.0653   -0.5070 H       1  UNL1        0.2951
     11 H           0.5187   -0.9171    1.0850 H       1  UNL1        0.0682
     12 H           0.6989   -1.3065   -0.6527 H       1  UNL1        0.0682
     13 H          -3.3033    1.6200   -0.2850 H       1  UNL1        0.2220
     14 H          -2.8940   -1.1874    0.7283 H       1  UNL1        0.2220
@<TRIPOS>BOND
     1     1     2    1
     2     2     3    2
     3     2     4    1
     4     4     5    1
     5     5     6    1
     6     6     7    1
     7     6     8    1
     8     6     9    2
     9     1    10    1
    10     4    11    1
    11     4    12    1
    12     7    13    1
    13     8    14    1
