
     RDKit          3D

 71 76  0  0  0  0  0  0  0  0999 V2000
   -6.4314    1.8460    2.4802 C   0  0  0  0  0  0  0  0  0  0  0  0
   -7.1730    2.3138    1.3299 N   0  0  0  0  0  0  0  0  0  0  0  0
   -8.5005    2.8290    1.5485 C   0  0  0  0  0  0  0  0  0  0  0  0
   -6.5979    2.2596    0.0348 C   0  0  0  0  0  0  0  0  0  0  0  0
   -7.2519    2.6733   -0.9698 O   0  0  0  0  0  0  0  0  0  0  0  0
   -5.2516    1.7228   -0.1130 C   0  0  0  0  0  0  0  0  0  0  0  0
   -4.0885    2.3933    0.2637 C   0  0  0  0  0  0  0  0  0  0  0  0
   -3.0108    1.5968   -0.0074 C   0  0  0  0  0  0  0  0  0  0  0  0
   -1.6587    1.7160    0.1432 C   0  0  0  0  0  0  0  0  0  0  0  0
   -0.8555    0.6850   -0.2468 N   0  0  0  0  0  0  0  0  0  0  0  0
   -1.3725   -0.4376   -0.7727 C   0  0  0  0  0  0  0  0  0  0  0  0
   -0.4948   -1.4766   -1.1516 N   0  0  0  0  0  0  0  0  0  0  0  0
    0.9176   -1.3701   -1.0516 C   0  0  0  0  0  0  0  0  0  0  0  0
    1.7681   -2.4001   -1.3893 C   0  0  0  0  0  0  0  0  0  0  0  0
    3.1404   -2.3090   -1.3121 C   0  0  0  0  0  0  0  0  0  0  0  0
    3.6879   -1.1427   -0.8812 C   0  0  0  0  0  0  0  0  0  0  0  0
    5.0737   -0.8977   -0.7459 N   0  0  0  0  0  0  0  0  0  0  0  0
    5.7932   -0.4110   -1.9017 C   0  0  0  0  0  0  0  0  0  0  0  0
    7.0237    0.3725   -1.5228 C   0  0  0  0  0  0  0  0  0  0  0  0
    7.6893   -0.1227   -0.3601 N   0  0  0  0  0  0  0  0  0  0  0  0
    8.7864    0.7878   -0.0649 C   0  0  0  0  0  0  0  0  0  0  0  0
    8.7533    1.2970    1.3464 C   0  0  0  0  0  0  0  0  0  0  0  0
    8.7046    0.2222    2.3918 C   0  0  0  0  0  0  0  0  0  0  0  0
    7.7816   -0.8824    1.8832 C   0  0  0  0  0  0  0  0  0  0  0  0
    6.8986   -0.2400    0.8197 C   0  0  0  0  0  0  0  0  0  0  0  0
    5.7260   -1.1348    0.4950 C   0  0  0  0  0  0  0  0  0  0  0  0
    5.3281   -2.0364    1.2466 O   0  0  0  0  0  0  0  0  0  0  0  0
    2.8308   -0.1015   -0.5394 C   0  0  0  0  0  0  0  0  0  0  0  0
    1.4909   -0.2240   -0.6259 N   0  0  0  0  0  0  0  0  0  0  0  0
   -2.6939   -0.5610   -0.9242 N   0  0  0  0  0  0  0  0  0  0  0  0
   -3.5235    0.4261   -0.5555 C   0  0  0  0  0  0  0  0  0  0  0  0
   -4.8616    0.5094   -0.6157 N   0  0  0  0  0  0  0  0  0  0  0  0
   -5.8497   -0.4079   -1.1011 C   0  0  0  0  0  0  0  0  0  0  0  0
   -5.3635   -1.5646   -1.8697 C   0  0  0  0  0  0  0  0  0  0  0  0
   -5.5600   -2.7596   -0.9792 C   0  0  0  0  0  0  0  0  0  0  0  0
   -6.9101   -2.4289   -0.3284 C   0  0  0  0  0  0  0  0  0  0  0  0
   -6.6660   -0.9773    0.0521 C   0  0  0  0  0  0  0  0  0  0  0  0
   -7.1036    1.4662    3.2784 H   0  0  0  0  0  0  0  0  0  0  0  0
   -5.7377    1.0074    2.2452 H   0  0  0  0  0  0  0  0  0  0  0  0
   -5.8201    2.6878    2.9186 H   0  0  0  0  0  0  0  0  0  0  0  0
   -8.7330    3.7333    0.9779 H   0  0  0  0  0  0  0  0  0  0  0  0
   -9.2062    1.9855    1.3026 H   0  0  0  0  0  0  0  0  0  0  0  0
   -8.6950    3.0493    2.6227 H   0  0  0  0  0  0  0  0  0  0  0  0
   -3.9980    3.3865    0.7039 H   0  0  0  0  0  0  0  0  0  0  0  0
   -1.2569    2.6156    0.5665 H   0  0  0  0  0  0  0  0  0  0  0  0
   -0.9009   -2.3590   -1.5208 H   0  0  0  0  0  0  0  0  0  0  0  0
    1.3440   -3.3243   -1.7311 H   0  0  0  0  0  0  0  0  0  0  0  0
    3.8039   -3.1192   -1.5760 H   0  0  0  0  0  0  0  0  0  0  0  0
    5.1167    0.2677   -2.4542 H   0  0  0  0  0  0  0  0  0  0  0  0
    6.0114   -1.2726   -2.5596 H   0  0  0  0  0  0  0  0  0  0  0  0
    6.8207    1.4653   -1.4653 H   0  0  0  0  0  0  0  0  0  0  0  0
    7.7500    0.2547   -2.3771 H   0  0  0  0  0  0  0  0  0  0  0  0
    8.7617    1.6899   -0.7195 H   0  0  0  0  0  0  0  0  0  0  0  0
    9.7754    0.3205   -0.2405 H   0  0  0  0  0  0  0  0  0  0  0  0
    9.7050    1.8724    1.4953 H   0  0  0  0  0  0  0  0  0  0  0  0
    7.9464    2.0586    1.5005 H   0  0  0  0  0  0  0  0  0  0  0  0
    8.2024    0.6733    3.2968 H   0  0  0  0  0  0  0  0  0  0  0  0
    9.6792   -0.1984    2.6427 H   0  0  0  0  0  0  0  0  0  0  0  0
    8.4422   -1.6071    1.3582 H   0  0  0  0  0  0  0  0  0  0  0  0
    7.2218   -1.3593    2.6838 H   0  0  0  0  0  0  0  0  0  0  0  0
    6.4589    0.7079    1.1816 H   0  0  0  0  0  0  0  0  0  0  0  0
    3.2134    0.8453   -0.1905 H   0  0  0  0  0  0  0  0  0  0  0  0
   -6.6274    0.1290   -1.7340 H   0  0  0  0  0  0  0  0  0  0  0  0
   -6.0405   -1.7487   -2.7596 H   0  0  0  0  0  0  0  0  0  0  0  0
   -4.3580   -1.4874   -2.3160 H   0  0  0  0  0  0  0  0  0  0  0  0
   -4.8067   -2.8862   -0.1989 H   0  0  0  0  0  0  0  0  0  0  0  0
   -5.7256   -3.6736   -1.5744 H   0  0  0  0  0  0  0  0  0  0  0  0
   -7.6754   -2.4389   -1.1167 H   0  0  0  0  0  0  0  0  0  0  0  0
   -7.1247   -3.0397    0.5441 H   0  0  0  0  0  0  0  0  0  0  0  0
   -7.6170   -0.4617    0.2169 H   0  0  0  0  0  0  0  0  0  0  0  0
   -6.1056   -1.0046    0.9933 H   0  0  0  0  0  0  0  0  0  0  0  0
  1  2  1  0
  2  3  1  0
  2  4  1  0
  4  5  2  0
  4  6  1  0
  6  7  2  0
  7  8  1  0
  8  9  2  0
  9 10  1  0
 10 11  2  0
 11 12  1  0
 12 13  1  0
 13 14  2  0
 14 15  1  0
 15 16  2  0
 16 17  1  0
 17 18  1  0
 18 19  1  0
 19 20  1  0
 20 21  1  0
 21 22  1  0
 22 23  1  0
 23 24  1  0
 24 25  1  0
 25 26  1  0
 26 27  2  0
 16 28  1  0
 28 29  2  0
 11 30  1  0
 30 31  2  0
 31 32  1  0
 32 33  1  0
 33 34  1  0
 34 35  1  0
 35 36  1  0
 36 37  1  0
 32  6  1  0
 37 33  1  0
 31  8  1  0
 29 13  1  0
 26 17  1  0
 25 20  1  0
  1 38  1  0
  1 39  1  0
  1 40  1  0
  3 41  1  0
  3 42  1  0
  3 43  1  0
  7 44  1  0
  9 45  1  0
 12 46  1  0
 14 47  1  0
 15 48  1  0
 18 49  1  0
 18 50  1  0
 19 51  1  0
 19 52  1  0
 21 53  1  0
 21 54  1  0
 22 55  1  0
 22 56  1  0
 23 57  1  0
 23 58  1  0
 24 59  1  0
 24 60  1  0
 25 61  1  0
 28 62  1  0
 33 63  1  0
 34 64  1  0
 34 65  1  0
 35 66  1  0
 35 67  1  0
 36 68  1  0
 36 69  1  0
 37 70  1  0
 37 71  1  0
M  END
$$$$
