@<TRIPOS>MOLECULE
*****
 71 76 0 0 0
SMALL
GASTEIGER

@<TRIPOS>ATOM
      1 C          -6.4314    1.8460    2.4802 C.3     1  UNL1        0.0032
      2 N          -7.1730    2.3138    1.3299 N.am    1  UNL1       -0.3024
      3 C          -8.5005    2.8290    1.5485 C.3     1  UNL1        0.0032
      4 C          -6.5979    2.2596    0.0348 C.2     1  UNL1        0.2627
      5 O          -7.2519    2.6733   -0.9698 O.2     1  UNL1       -0.2684
      6 C          -5.2516    1.7228   -0.1130 C.ar    1  UNL1        0.1070
      7 C          -4.0885    2.3933    0.2637 C.ar    1  UNL1       -0.0209
      8 C          -3.0108    1.5968   -0.0074 C.ar    1  UNL1        0.0378
      9 C          -1.6587    1.7160    0.1432 C.ar    1  UNL1        0.0419
     10 N          -0.8555    0.6850   -0.2468 N.ar    1  UNL1       -0.2219
     11 C          -1.3725   -0.4376   -0.7727 C.ar    1  UNL1        0.2224
     12 N          -0.4948   -1.4766   -1.1516 N.pl3   1  UNL1       -0.2684
     13 C           0.9176   -1.3701   -1.0516 C.ar    1  UNL1        0.1251
     14 C           1.7681   -2.4001   -1.3893 C.ar    1  UNL1       -0.0197
     15 C           3.1404   -2.3090   -1.3121 C.ar    1  UNL1       -0.0355
     16 C           3.6879   -1.1427   -0.8812 C.ar    1  UNL1        0.0546
     17 N           5.0737   -0.8977   -0.7459 N.am    1  UNL1       -0.2675
     18 C           5.7932   -0.4110   -1.9017 C.3     1  UNL1        0.0327
     19 C           7.0237    0.3725   -1.5228 C.3     1  UNL1        0.0158
     20 N           7.6893   -0.1227   -0.3601 N.3     1  UNL1       -0.2900
     21 C           8.7864    0.7878   -0.0649 C.3     1  UNL1       -0.0003
     22 C           8.7533    1.2970    1.3464 C.3     1  UNL1       -0.0401
     23 C           8.7046    0.2222    2.3918 C.3     1  UNL1       -0.0500
     24 C           7.7816   -0.8824    1.8832 C.3     1  UNL1       -0.0288
     25 C           6.8986   -0.2400    0.8197 C.3     1  UNL1        0.0878
     26 C           5.7260   -1.1348    0.4950 C.2     1  UNL1        0.2371
     27 O           5.3281   -2.0364    1.2466 O.2     1  UNL1       -0.2735
     28 C           2.8308   -0.1015   -0.5394 C.ar    1  UNL1        0.0511
     29 N           1.4909   -0.2240   -0.6259 N.ar    1  UNL1       -0.2383
     30 N          -2.6939   -0.5610   -0.9242 N.ar    1  UNL1       -0.1962
     31 C          -3.5235    0.4261   -0.5555 C.ar    1  UNL1        0.1466
     32 N          -4.8616    0.5094   -0.6157 N.ar    1  UNL1       -0.3180
     33 C          -5.8497   -0.4079   -1.1011 C.3     1  UNL1        0.0366
     34 C          -5.3635   -1.5646   -1.8697 C.3     1  UNL1       -0.0320
     35 C          -5.5600   -2.7596   -0.9792 C.3     1  UNL1       -0.0511
     36 C          -6.9101   -2.4289   -0.3284 C.3     1  UNL1       -0.0511
     37 C          -6.6660   -0.9773    0.0521 C.3     1  UNL1       -0.0320
     38 H          -7.1036    1.4662    3.2784 H       1  UNL1        0.0428
     39 H          -5.7377    1.0074    2.2452 H       1  UNL1        0.0428
     40 H          -5.8201    2.6878    2.9186 H       1  UNL1        0.0428
     41 H          -8.7330    3.7333    0.9779 H       1  UNL1        0.0428
     42 H          -9.2062    1.9855    1.3026 H       1  UNL1        0.0428
     43 H          -8.6950    3.0493    2.6227 H       1  UNL1        0.0428
     44 H          -3.9980    3.3865    0.7039 H       1  UNL1        0.0647
     45 H          -1.2569    2.6156    0.5665 H       1  UNL1        0.0838
     46 H          -0.9009   -2.3590   -1.5208 H       1  UNL1        0.1564
     47 H           1.3440   -3.3243   -1.7311 H       1  UNL1        0.0652
     48 H           3.8039   -3.1192   -1.5760 H       1  UNL1        0.0638
     49 H           5.1167    0.2677   -2.4542 H       1  UNL1        0.0481
     50 H           6.0114   -1.2726   -2.5596 H       1  UNL1        0.0481
     51 H           6.8207    1.4653   -1.4653 H       1  UNL1        0.0442
     52 H           7.7500    0.2547   -2.3771 H       1  UNL1        0.0442
     53 H           8.7617    1.6899   -0.7195 H       1  UNL1        0.0427
     54 H           9.7754    0.3205   -0.2405 H       1  UNL1        0.0427
     55 H           9.7050    1.8724    1.4953 H       1  UNL1        0.0278
     56 H           7.9464    2.0586    1.5005 H       1  UNL1        0.0278
     57 H           8.2024    0.6733    3.2968 H       1  UNL1        0.0266
     58 H           9.6792   -0.1984    2.6427 H       1  UNL1        0.0266
     59 H           8.4422   -1.6071    1.3582 H       1  UNL1        0.0285
     60 H           7.2218   -1.3593    2.6838 H       1  UNL1        0.0285
     61 H           6.4589    0.7079    1.1816 H       1  UNL1        0.0559
     62 H           3.2134    0.8453   -0.1905 H       1  UNL1        0.0849
     63 H          -6.6274    0.1290   -1.7340 H       1  UNL1        0.0528
     64 H          -6.0405   -1.7487   -2.7596 H       1  UNL1        0.0285
     65 H          -4.3580   -1.4874   -2.3160 H       1  UNL1        0.0285
     66 H          -4.8067   -2.8862   -0.1989 H       1  UNL1        0.0266
     67 H          -5.7256   -3.6736   -1.5744 H       1  UNL1        0.0266
     68 H          -7.6754   -2.4389   -1.1167 H       1  UNL1        0.0266
     69 H          -7.1247   -3.0397    0.5441 H       1  UNL1        0.0266
     70 H          -7.6170   -0.4617    0.2169 H       1  UNL1        0.0285
     71 H          -6.1056   -1.0046    0.9933 H       1  UNL1        0.0285
@<TRIPOS>BOND
     1     1     2    1
     2     2     3    1
     3     2     4   am
     4     4     5    2
     5     4     6    1
     6     6     7   ar
     7     7     8   ar
     8     8     9   ar
     9     9    10   ar
    10    10    11   ar
    11    11    12    1
    12    12    13    1
    13    13    14   ar
    14    14    15   ar
    15    15    16   ar
    16    16    17    1
    17    17    18    1
    18    18    19    1
    19    19    20    1
    20    20    21    1
    21    21    22    1
    22    22    23    1
    23    23    24    1
    24    24    25    1
    25    25    26    1
    26    26    27    2
    27    16    28   ar
    28    28    29   ar
    29    11    30   ar
    30    30    31   ar
    31    31    32   ar
    32    32    33    1
    33    33    34    1
    34    34    35    1
    35    35    36    1
    36    36    37    1
    37    32     6   ar
    38    37    33    1
    39    31     8   ar
    40    29    13   ar
    41    26    17   am
    42    25    20    1
    43     1    38    1
    44     1    39    1
    45     1    40    1
    46     3    41    1
    47     3    42    1
    48     3    43    1
    49     7    44    1
    50     9    45    1
    51    12    46    1
    52    14    47    1
    53    15    48    1
    54    18    49    1
    55    18    50    1
    56    19    51    1
    57    19    52    1
    58    21    53    1
    59    21    54    1
    60    22    55    1
    61    22    56    1
    62    23    57    1
    63    23    58    1
    64    24    59    1
    65    24    60    1
    66    25    61    1
    67    28    62    1
    68    33    63    1
    69    34    64    1
    70    34    65    1
    71    35    66    1
    72    35    67    1
    73    36    68    1
    74    36    69    1
    75    37    70    1
    76    37    71    1
