@<TRIPOS>MOLECULE
*****
 50 52 0 0 0
SMALL
GASTEIGER

@<TRIPOS>ATOM
      1 C          -1.9870   -1.7965   -2.8438 C.3     1  UNL1        0.0788
      2 O          -1.8113   -1.2626   -1.5446 O.3     1  UNL1       -0.4948
      3 C          -2.6477   -0.2767   -1.0437 C.ar    1  UNL1        0.1247
      4 C          -3.7028    0.2626   -1.7472 C.ar    1  UNL1       -0.0162
      5 C          -4.5244    1.2446   -1.2293 C.ar    1  UNL1       -0.0162
      6 C          -4.2200    1.6621    0.0603 C.ar    1  UNL1        0.1305
      7 O          -4.9751    2.6407    0.6806 O.3     1  UNL1       -0.4057
      8 C          -6.0983    2.2518    1.4455 C.3     1  UNL1        0.5752
      9 F          -6.7110    3.3660    1.9755 F       1  UNL1       -0.1328
     10 F          -5.7309    1.4525    2.5172 F       1  UNL1       -0.1328
     11 F          -7.0361    1.5567    0.7142 F       1  UNL1       -0.1328
     12 C          -3.1669    1.1443    0.8014 C.ar    1  UNL1       -0.0117
     13 C          -2.3643    0.1518    0.2322 C.ar    1  UNL1        0.0115
     14 C          -1.2415   -0.3916    1.0378 C.3     1  UNL1        0.0251
     15 N           0.0132    0.1460    0.5896 N.3     1  UNL1       -0.3074
     16 C           1.1403   -0.3920    1.3671 C.3     1  UNL1        0.0274
     17 C           1.2477   -1.8647    1.2544 C.3     1  UNL1       -0.0346
     18 C           2.6186   -2.4407    1.2870 C.3     1  UNL1       -0.0390
     19 C           3.7308   -1.4546    1.3257 C.3     1  UNL1       -0.0035
     20 N           3.4127   -0.2234    2.0001 N.3     1  UNL1       -0.3081
     21 C           2.3579    0.4102    1.1864 C.3     1  UNL1        0.0484
     22 C           2.8931    0.6083   -0.1441 C.ar    1  UNL1       -0.0290
     23 C           2.3434    0.3629   -1.4006 C.ar    1  UNL1       -0.0570
     24 C           3.0357    0.6311   -2.5602 C.ar    1  UNL1       -0.0615
     25 C           4.3094    1.1567   -2.5294 C.ar    1  UNL1       -0.0617
     26 C           4.8714    1.4065   -1.3048 C.ar    1  UNL1       -0.0615
     27 C           4.1893    1.1426   -0.1476 C.ar    1  UNL1       -0.0570
     28 H          -1.0469   -2.3065   -3.1825 H       1  UNL1        0.0660
     29 H          -2.7979   -2.5600   -2.8517 H       1  UNL1        0.0660
     30 H          -2.2523   -0.9744   -3.5429 H       1  UNL1        0.0660
     31 H          -3.9072   -0.0875   -2.7452 H       1  UNL1        0.0655
     32 H          -5.3536    1.6698   -1.7796 H       1  UNL1        0.0655
     33 H          -2.9654    1.4968    1.8004 H       1  UNL1        0.0658
     34 H          -1.2530   -1.4968    0.9556 H       1  UNL1        0.0475
     35 H          -1.4322   -0.1844    2.1199 H       1  UNL1        0.0475
     36 H           0.0673    1.1658    0.6008 H       1  UNL1        0.1226
     37 H           0.8066   -0.1859    2.4314 H       1  UNL1        0.0479
     38 H           0.6532   -2.3894    2.0375 H       1  UNL1        0.0281
     39 H           0.7019   -2.1482    0.3060 H       1  UNL1        0.0281
     40 H           2.7515   -3.1003    0.4050 H       1  UNL1        0.0278
     41 H           2.7782   -3.1294    2.1677 H       1  UNL1        0.0278
     42 H           4.6326   -1.8868    1.8519 H       1  UNL1        0.0424
     43 H           4.0994   -1.2839    0.2853 H       1  UNL1        0.0424
     44 H           3.0714   -0.4488    2.9445 H       1  UNL1        0.1226
     45 H           2.1585    1.4259    1.6240 H       1  UNL1        0.0525
     46 H           1.3573   -0.0437   -1.3488 H       1  UNL1        0.0621
     47 H           2.5297    0.4087   -3.4850 H       1  UNL1        0.0618
     48 H           4.8224    1.3548   -3.4617 H       1  UNL1        0.0618
     49 H           5.8719    1.8184   -1.3275 H       1  UNL1        0.0618
     50 H           4.7601    1.3913    0.7606 H       1  UNL1        0.0621
@<TRIPOS>BOND
     1     1     2    1
     2     2     3    1
     3     3     4   ar
     4     4     5   ar
     5     5     6   ar
     6     6     7    1
     7     7     8    1
     8     8     9    1
     9     8    10    1
    10     8    11    1
    11     6    12   ar
    12    12    13   ar
    13    13    14    1
    14    14    15    1
    15    15    16    1
    16    16    17    1
    17    17    18    1
    18    18    19    1
    19    19    20    1
    20    20    21    1
    21    21    22    1
    22    22    23   ar
    23    23    24   ar
    24    24    25   ar
    25    25    26   ar
    26    26    27   ar
    27    13     3   ar
    28    21    16    1
    29    27    22   ar
    30     1    28    1
    31     1    29    1
    32     1    30    1
    33     4    31    1
    34     5    32    1
    35    12    33    1
    36    14    34    1
    37    14    35    1
    38    15    36    1
    39    16    37    1
    40    17    38    1
    41    17    39    1
    42    18    40    1
    43    18    41    1
    44    19    42    1
    45    19    43    1
    46    20    44    1
    47    21    45    1
    48    23    46    1
    49    24    47    1
    50    25    48    1
    51    26    49    1
    52    27    50    1
