@<TRIPOS>MOLECULE
*****
 58 61 0 0 0
SMALL
GASTEIGER

@<TRIPOS>ATOM
      1 O           1.3493    3.4318    4.0316 O.2     1  UNL1       -0.2741
      2 C           1.9224    2.8174    3.0601 C.2     1  UNL1        0.2305
      3 C           3.3841    2.8227    2.9447 C.3     1  UNL1        0.0884
      4 N           3.8079    2.0161    1.8339 N.am    1  UNL1       -0.3028
      5 C           3.5934    0.6089    1.7628 C.2     1  UNL1        0.2445
      6 O           3.0016    0.0713    2.7575 O.2     1  UNL1       -0.2702
      7 C           4.0190   -0.1947    0.6239 C.ar    1  UNL1        0.0372
      8 C           4.6534    0.3204   -0.4668 C.ar    1  UNL1       -0.0496
      9 C           5.0422   -0.4753   -1.5285 C.ar    1  UNL1       -0.0605
     10 C           4.7693   -1.8384   -1.4637 C.ar    1  UNL1       -0.0501
     11 C           4.1291   -2.3922   -0.3752 C.ar    1  UNL1        0.0555
     12 C           3.8605   -3.8492   -0.3516 C.3     1  UNL1        0.4174
     13 F           5.0626   -4.5637   -0.3323 F       1  UNL1       -0.1659
     14 F           3.1536   -4.1858   -1.4861 F       1  UNL1       -0.1659
     15 F           3.2043   -4.1728    0.8106 F       1  UNL1       -0.1659
     16 C           3.7631   -1.5484    0.6579 C.ar    1  UNL1       -0.0380
     17 N           1.1083    2.1521    2.1210 N.am    1  UNL1       -0.3087
     18 C          -0.3526    2.1500    2.2529 C.3     1  UNL1        0.0486
     19 C          -0.9923    2.5427    0.9304 C.3     1  UNL1        0.0189
     20 N          -1.7102    1.3007    0.9697 N.3     1  UNL1       -0.2958
     21 C          -1.6558    0.4824   -0.2193 C.3     1  UNL1        0.0107
     22 C          -2.4973   -0.7636    0.0919 C.3     1  UNL1       -0.0344
     23 C          -2.4157   -1.7120   -1.0561 C.3     1  UNL1       -0.0179
     24 C          -2.9939   -1.0826   -2.2798 C.3     1  UNL1        0.0985
     25 O          -2.6159   -1.8524   -3.3880 O.3     1  UNL1       -0.3834
     26 C          -4.4775   -1.0705   -2.1523 C.ar    1  UNL1        0.0405
     27 C          -5.4320   -0.5833   -3.0082 C.ar    1  UNL1        0.0406
     28 N          -6.6736   -0.7191   -2.6256 N.ar    1  UNL1       -0.2553
     29 C          -7.0859   -1.2166   -1.6187 C.ar    1  UNL1        0.0650
     30 S          -5.4462   -1.7114   -0.8134 S.2     1  UNL1       -0.0775
     31 C          -2.5445    0.3142   -2.5402 C.3     1  UNL1       -0.0179
     32 C          -2.3869    1.1829   -1.3401 C.3     1  UNL1       -0.0344
     33 C          -0.9509    0.7713    2.0889 C.3     1  UNL1        0.0189
     34 H           3.8080    3.8539    2.8899 H       1  UNL1        0.0558
     35 H           3.7777    2.3754    3.9076 H       1  UNL1        0.0558
     36 H           4.2951    2.5037    1.0500 H       1  UNL1        0.1495
     37 H           4.8711    1.3760   -0.5299 H       1  UNL1        0.0625
     38 H           5.5391   -0.0665   -2.3812 H       1  UNL1        0.0618
     39 H           5.0694   -2.4662   -2.2878 H       1  UNL1        0.0623
     40 H           3.2604   -1.9700    1.5172 H       1  UNL1        0.0631
     41 H           1.4610    1.6480    1.2846 H       1  UNL1        0.1491
     42 H          -0.7211    2.7019    3.1273 H       1  UNL1        0.0523
     43 H          -0.3025    2.7120    0.1057 H       1  UNL1        0.0445
     44 H          -1.6422    3.4524    1.0691 H       1  UNL1        0.0445
     45 H          -0.6423    0.1757   -0.5072 H       1  UNL1        0.0462
     46 H          -3.5332   -0.3846    0.2015 H       1  UNL1        0.0281
     47 H          -2.1569   -1.2198    1.0405 H       1  UNL1        0.0281
     48 H          -1.3667   -2.0480   -1.2141 H       1  UNL1        0.0297
     49 H          -3.0537   -2.5988   -0.7988 H       1  UNL1        0.0297
     50 H          -3.1822   -2.6635   -3.4141 H       1  UNL1        0.2106
     51 H          -5.1417   -0.1087   -3.9587 H       1  UNL1        0.0839
     52 H          -7.9904   -1.4668   -1.0457 H       1  UNL1        0.0907
     53 H          -1.5807    0.2671   -3.0893 H       1  UNL1        0.0297
     54 H          -3.2629    0.8054   -3.2270 H       1  UNL1        0.0297
     55 H          -3.3892    1.4651   -0.9381 H       1  UNL1        0.0281
     56 H          -1.8451    2.0950   -1.6389 H       1  UNL1        0.0281
     57 H          -0.2107    0.0053    1.8442 H       1  UNL1        0.0445
     58 H          -1.6528    0.5030    2.9112 H       1  UNL1        0.0445
@<TRIPOS>BOND
     1     1     2    2
     2     2     3    1
     3     3     4    1
     4     4     5   am
     5     5     6    2
     6     5     7    1
     7     7     8   ar
     8     8     9   ar
     9     9    10   ar
    10    10    11   ar
    11    11    12    1
    12    12    13    1
    13    12    14    1
    14    12    15    1
    15    11    16   ar
    16     2    17   am
    17    17    18    1
    18    18    19    1
    19    19    20    1
    20    20    21    1
    21    21    22    1
    22    22    23    1
    23    23    24    1
    24    24    25    1
    25    24    26    1
    26    26    27   ar
    27    27    28   ar
    28    28    29   ar
    29    29    30   ar
    30    24    31    1
    31    31    32    1
    32    20    33    1
    33    16     7   ar
    34    33    18    1
    35    32    21    1
    36    30    26   ar
    37     3    34    1
    38     3    35    1
    39     4    36    1
    40     8    37    1
    41     9    38    1
    42    10    39    1
    43    16    40    1
    44    17    41    1
    45    18    42    1
    46    19    43    1
    47    19    44    1
    48    21    45    1
    49    22    46    1
    50    22    47    1
    51    23    48    1
    52    23    49    1
    53    25    50    1
    54    27    51    1
    55    29    52    1
    56    31    53    1
    57    31    54    1
    58    32    55    1
    59    32    56    1
    60    33    57    1
    61    33    58    1
