
     RDKit          3D

 29 29  0  0  0  0  0  0  0  0999 V2000
    4.5380   -0.9704   -0.4960 C   0  0  0  0  0  0  0  0  0  0  0  0
    3.2037   -0.3264   -0.6946 C   0  0  0  0  0  0  0  0  0  0  0  0
    1.9355   -0.9704    0.3620 S   0  0  0  0  0  0  0  0  0  0  0  0
    1.6712   -2.4266    0.1403 O   0  0  0  0  0  0  0  0  0  0  0  0
    2.2167   -0.7249    1.8042 O   0  0  0  0  0  0  0  0  0  0  0  0
    0.4429   -0.0591   -0.0495 C   0  0  0  0  0  0  0  0  0  0  0  0
   -0.7386   -0.5008    0.7780 C   0  0  0  0  0  0  0  0  0  0  0  0
   -1.8763    0.2960    0.3630 N   0  0  0  0  0  0  0  0  0  0  0  0
   -2.6718   -0.1226   -0.6294 C   0  0  0  0  0  0  0  0  0  0  0  0
   -2.6965   -1.3183   -1.5113 C   0  0  0  0  0  0  0  0  0  0  0  0
   -3.6257    0.8025   -0.7923 N   0  0  0  0  0  0  0  0  0  0  0  0
   -3.4832    1.8270    0.0688 C   0  0  0  0  0  0  0  0  0  0  0  0
   -2.3605    1.4766    0.7919 C   0  0  0  0  0  0  0  0  0  0  0  0
   -1.7604    2.2165    1.8457 N   0  0  0  0  0  4  0  0  0  0  0  0
   -0.6583    1.9835    2.6355 O   0  0  0  0  0  1  0  0  0  0  0  0
   -2.2313    3.2949    2.2127 O   0  0  0  0  0  0  0  0  0  0  0  0
    4.6667   -1.9056   -1.0750 H   0  0  0  0  0  0  0  0  0  0  0  0
    4.6532   -1.1814    0.6018 H   0  0  0  0  0  0  0  0  0  0  0  0
    5.3150   -0.2115   -0.7391 H   0  0  0  0  0  0  0  0  0  0  0  0
    3.2922    0.7482   -0.4623 H   0  0  0  0  0  0  0  0  0  0  0  0
    2.8476   -0.4060   -1.7409 H   0  0  0  0  0  0  0  0  0  0  0  0
    0.6546    1.0047    0.1839 H   0  0  0  0  0  0  0  0  0  0  0  0
    0.2557   -0.2391   -1.1167 H   0  0  0  0  0  0  0  0  0  0  0  0
   -0.4788   -0.2773    1.8452 H   0  0  0  0  0  0  0  0  0  0  0  0
   -0.9257   -1.5748    0.7336 H   0  0  0  0  0  0  0  0  0  0  0  0
   -2.7474   -1.0066   -2.5893 H   0  0  0  0  0  0  0  0  0  0  0  0
   -1.7950   -1.9265   -1.3819 H   0  0  0  0  0  0  0  0  0  0  0  0
   -3.5773   -1.9700   -1.2985 H   0  0  0  0  0  0  0  0  0  0  0  0
   -4.0660    2.7268    0.2101 H   0  0  0  0  0  0  0  0  0  0  0  0
  1  2  1  0
  2  3  1  0
  3  4  2  0
  3  5  2  0
  3  6  1  0
  6  7  1  0
  7  8  1  0
  8  9  1  0
  9 10  1  0
  9 11  2  0
 11 12  1  0
 12 13  2  0
 13 14  1  0
 14 15  1  0
 14 16  2  0
 13  8  1  0
  1 17  1  0
  1 18  1  0
  1 19  1  0
  2 20  1  0
  2 21  1  0
  6 22  1  0
  6 23  1  0
  7 24  1  0
  7 25  1  0
 10 26  1  0
 10 27  1  0
 10 28  1  0
 12 29  1  0
M  CHG  2  14   1  15  -1
M  END
$$$$
