@<TRIPOS>MOLECULE
*****
 34 36 0 0 0
SMALL
GASTEIGER

@<TRIPOS>ATOM
      1 O           5.7024    1.8069    0.5488 O.2     1  UNL1       -0.2451
      2 C           4.6243    1.5768   -0.0889 C.2     1  UNL1        0.3369
      3 O           4.2912    2.3618   -1.1578 O.3     1  UNL1       -0.4771
      4 C           3.7436    0.4857    0.3100 C.ar    1  UNL1        0.0607
      5 C           4.0963   -0.3090    1.4049 C.ar    1  UNL1       -0.0477
      6 C           3.2450   -1.3343    1.7605 C.ar    1  UNL1       -0.0591
      7 C           2.0755   -1.5916    1.0765 C.ar    1  UNL1       -0.0353
      8 C           1.7652   -0.7858    0.0046 C.ar    1  UNL1        0.1063
      9 S           0.2591   -1.1355   -0.8567 S.O2    1  UNL1        0.0612
     10 O           0.5098   -0.7612   -2.2925 O.2     1  UNL1       -0.1528
     11 O           0.0273   -2.6202   -0.7754 O.2     1  UNL1       -0.1528
     12 N          -1.0586   -0.2587   -0.1898 N.3     1  UNL1       -0.1719
     13 C          -1.2602   -0.6360    1.1730 C.3     1  UNL1        0.0253
     14 C          -2.7061   -0.6643    1.5975 C.3     1  UNL1       -0.0067
     15 C          -3.5470    0.2920    0.8333 C.ar    1  UNL1       -0.0045
     16 S          -4.8601    1.3906    1.1354 S.2     1  UNL1       -0.1012
     17 C          -5.0718    2.0117   -0.4975 C.ar    1  UNL1       -0.0238
     18 C          -4.1082    1.3297   -1.1896 C.ar    1  UNL1       -0.0500
     19 C          -3.3316    0.4720   -0.5804 C.ar    1  UNL1       -0.0215
     20 C          -2.1998   -0.4223   -1.0379 C.3     1  UNL1        0.0463
     21 C           2.5836    0.2462   -0.3844 C.ar    1  UNL1       -0.0214
     22 H           4.7343    3.2845   -1.2170 H       1  UNL1        0.2954
     23 H           5.0020   -0.1024    1.9271 H       1  UNL1        0.0626
     24 H           3.4815   -1.9873    2.6170 H       1  UNL1        0.0618
     25 H           1.4132   -2.4182    1.3821 H       1  UNL1        0.0637
     26 H          -0.7255    0.0663    1.8424 H       1  UNL1        0.0447
     27 H          -0.8589   -1.6556    1.3287 H       1  UNL1        0.0447
     28 H          -3.1117   -1.6813    1.3661 H       1  UNL1        0.0331
     29 H          -2.7671   -0.4187    2.6580 H       1  UNL1        0.0331
     30 H          -5.7858    2.7419   -0.8362 H       1  UNL1        0.0693
     31 H          -4.0200    1.5409   -2.2895 H       1  UNL1        0.0626
     32 H          -2.5436   -1.4867   -0.9875 H       1  UNL1        0.0493
     33 H          -1.9262   -0.2059   -2.0695 H       1  UNL1        0.0493
     34 H           2.3280    0.8681   -1.2247 H       1  UNL1        0.0645
@<TRIPOS>BOND
     1     1     2    2
     2     2     3    1
     3     2     4    1
     4     4     5   ar
     5     5     6   ar
     6     6     7   ar
     7     7     8   ar
     8     8     9    1
     9     9    10    2
    10     9    11    2
    11     9    12    1
    12    12    13    1
    13    13    14    1
    14    14    15    1
    15    15    16   ar
    16    16    17   ar
    17    17    18   ar
    18    18    19   ar
    19    19    20    1
    20     8    21   ar
    21    21     4   ar
    22    20    12    1
    23    19    15   ar
    24     3    22    1
    25     5    23    1
    26     6    24    1
    27     7    25    1
    28    13    26    1
    29    13    27    1
    30    14    28    1
    31    14    29    1
    32    17    30    1
    33    18    31    1
    34    20    32    1
    35    20    33    1
    36    21    34    1
