
     RDKit          3D

 55 60  0  0  0  0  0  0  0  0999 V2000
   -2.8604    2.8962   -1.6435 C   0  0  0  0  0  0  0  0  0  0  0  0
   -2.8482    1.4831   -1.2140 C   0  0  0  0  0  0  0  0  0  0  0  0
   -3.8944    0.6651   -1.0470 N   0  0  0  0  0  0  0  0  0  0  0  0
   -3.4980   -0.5352   -0.6526 N   0  0  0  0  0  0  0  0  0  0  0  0
   -4.2755   -1.6836   -0.3644 C   0  0  0  0  0  0  0  0  0  0  0  0
   -4.6274   -2.6517   -1.2991 C   0  0  0  0  0  0  0  0  0  0  0  0
   -5.3821   -3.6204   -0.6727 C   0  0  0  0  0  0  0  0  0  0  0  0
   -5.4711   -3.2256    0.6103 N   0  0  0  0  0  0  0  0  0  0  0  0
   -4.8209   -2.0902    0.7853 N   0  0  0  0  0  0  0  0  0  0  0  0
   -4.7128   -1.3754    2.0636 C   0  0  0  0  0  0  0  0  0  0  0  0
   -2.1418   -0.4975   -0.5595 C   0  0  0  0  0  0  0  0  0  0  0  0
   -1.7077    0.7470   -0.9023 C   0  0  0  0  0  0  0  0  0  0  0  0
   -0.2492    0.8049   -0.7898 C   0  0  0  0  0  0  0  0  0  0  0  0
    0.2008    1.8957    0.1141 C   0  0  0  0  0  0  0  0  0  0  0  0
    0.6131    3.0737   -0.4717 C   0  0  0  0  0  0  0  0  0  0  0  0
    1.0484    4.1398    0.3084 C   0  0  0  0  0  0  0  0  0  0  0  0
    1.0768    4.0408    1.6874 C   0  0  0  0  0  0  0  0  0  0  0  0
    1.6145    5.3496    2.7179 Cl  0  0  0  0  0  0  0  0  0  0  0  0
    0.6609    2.8555    2.2560 C   0  0  0  0  0  0  0  0  0  0  0  0
    0.2240    1.7862    1.4661 C   0  0  0  0  0  0  0  0  0  0  0  0
    0.1846   -0.4974   -0.4115 N   0  0  0  0  0  0  0  0  0  0  0  0
    1.5557   -0.9364   -0.2271 C   0  0  0  0  0  0  0  0  0  0  0  0
    1.8912   -2.1997    0.1816 C   0  0  0  0  0  0  0  0  0  0  0  0
    3.2119   -2.6067    0.3461 C   0  0  0  0  0  0  0  0  0  0  0  0
    3.5403   -3.9876    0.7918 C   0  0  0  0  0  0  0  0  0  0  0  0
    4.2190   -1.7063    0.0886 C   0  0  0  0  0  0  0  0  0  0  0  0
    5.5608   -1.7804    0.1485 N   0  0  0  0  0  0  0  0  0  0  0  0
    6.0797   -0.6047   -0.2093 N   0  0  0  0  0  0  0  0  0  0  0  0
    5.0568    0.2195   -0.4978 C   0  0  0  0  0  0  0  0  0  0  0  0
    5.2236    1.6314   -0.9399 C   0  0  0  0  0  0  0  0  0  0  0  0
    3.9076   -0.4646   -0.3126 N   0  0  0  0  0  0  0  0  0  0  0  0
    2.6098   -0.0745   -0.4713 C   0  0  0  0  0  0  0  0  0  0  0  0
   -0.9681   -1.3021   -0.2433 C   0  0  0  0  0  0  0  0  0  0  0  0
   -1.0095   -2.5318    0.1231 O   0  0  0  0  0  0  0  0  0  0  0  0
   -2.2141    3.1070   -2.5003 H   0  0  0  0  0  0  0  0  0  0  0  0
   -2.6416    3.5697   -0.7734 H   0  0  0  0  0  0  0  0  0  0  0  0
   -3.9036    3.1524   -1.9584 H   0  0  0  0  0  0  0  0  0  0  0  0
   -4.3615   -2.6573   -2.3440 H   0  0  0  0  0  0  0  0  0  0  0  0
   -5.8262   -4.5125   -1.0693 H   0  0  0  0  0  0  0  0  0  0  0  0
   -4.9772   -0.3181    1.8503 H   0  0  0  0  0  0  0  0  0  0  0  0
   -3.6789   -1.4759    2.4557 H   0  0  0  0  0  0  0  0  0  0  0  0
   -5.4026   -1.8284    2.8010 H   0  0  0  0  0  0  0  0  0  0  0  0
    0.1436    0.9774   -1.8335 H   0  0  0  0  0  0  0  0  0  0  0  0
    0.5965    3.1677   -1.5633 H   0  0  0  0  0  0  0  0  0  0  0  0
    1.3761    5.0740   -0.1397 H   0  0  0  0  0  0  0  0  0  0  0  0
    0.6853    2.7841    3.3336 H   0  0  0  0  0  0  0  0  0  0  0  0
   -0.0922    0.8798    1.9387 H   0  0  0  0  0  0  0  0  0  0  0  0
    1.1520   -2.9404    0.3968 H   0  0  0  0  0  0  0  0  0  0  0  0
    2.6426   -4.4498    1.2748 H   0  0  0  0  0  0  0  0  0  0  0  0
    3.7129   -4.6122   -0.1300 H   0  0  0  0  0  0  0  0  0  0  0  0
    4.4092   -4.0311    1.4592 H   0  0  0  0  0  0  0  0  0  0  0  0
    6.0324    1.6837   -1.6964 H   0  0  0  0  0  0  0  0  0  0  0  0
    4.3058    2.0239   -1.3921 H   0  0  0  0  0  0  0  0  0  0  0  0
    5.5735    2.2623   -0.0770 H   0  0  0  0  0  0  0  0  0  0  0  0
    2.4552    0.9271   -0.7963 H   0  0  0  0  0  0  0  0  0  0  0  0
  1  2  1  0
  2  3  2  0
  3  4  1  0
  4  5  1  0
  5  6  2  0
  6  7  1  0
  7  8  2  0
  8  9  1  0
  9 10  1  0
  4 11  1  0
 11 12  2  0
 12 13  1  0
 13 14  1  0
 14 15  2  0
 15 16  1  0
 16 17  2  0
 17 18  1  0
 17 19  1  0
 19 20  2  0
 13 21  1  0
 21 22  1  0
 22 23  1  0
 23 24  2  0
 24 25  1  0
 24 26  1  0
 26 27  2  0
 27 28  1  0
 28 29  2  0
 29 30  1  0
 29 31  1  0
 31 32  1  0
 21 33  1  0
 33 34  2  0
 12  2  1  0
 20 14  1  0
 32 22  2  0
  9  5  1  0
 33 11  1  0
 31 26  1  0
  1 35  1  0
  1 36  1  0
  1 37  1  0
  6 38  1  0
  7 39  1  0
 10 40  1  0
 10 41  1  0
 10 42  1  0
 13 43  1  0
 15 44  1  0
 16 45  1  0
 19 46  1  0
 20 47  1  0
 23 48  1  0
 25 49  1  0
 25 50  1  0
 25 51  1  0
 30 52  1  0
 30 53  1  0
 30 54  1  0
 32 55  1  0
M  END
$$$$
