@<TRIPOS>MOLECULE
*****
 55 60 0 0 0
SMALL
GASTEIGER

@<TRIPOS>ATOM
      1 C          -2.8604    2.8962   -1.6435 C.3     1  UNL1       -0.0202
      2 C          -2.8482    1.4831   -1.2140 C.ar    1  UNL1        0.0664
      3 N          -3.8944    0.6651   -1.0470 N.ar    1  UNL1       -0.1692
      4 N          -3.4980   -0.5352   -0.6526 N.ar    1  UNL1       -0.2093
      5 C          -4.2755   -1.6836   -0.3644 C.ar    1  UNL1        0.1530
      6 C          -4.6274   -2.6517   -1.2991 C.ar    1  UNL1        0.0020
      7 C          -5.3821   -3.6204   -0.6727 C.ar    1  UNL1        0.0515
      8 N          -5.4711   -3.2256    0.6103 N.ar    1  UNL1       -0.1780
      9 N          -4.8209   -2.0902    0.7853 N.ar    1  UNL1       -0.2500
     10 C          -4.7128   -1.3754    2.0636 C.3     1  UNL1        0.0324
     11 C          -2.1418   -0.4975   -0.5595 C.ar    1  UNL1        0.1367
     12 C          -1.7077    0.7470   -0.9023 C.ar    1  UNL1        0.0309
     13 C          -0.2492    0.8049   -0.7898 C.3     1  UNL1        0.0854
     14 C           0.2008    1.8957    0.1141 C.ar    1  UNL1       -0.0221
     15 C           0.6131    3.0737   -0.4717 C.ar    1  UNL1       -0.0551
     16 C           1.0484    4.1398    0.3084 C.ar    1  UNL1       -0.0431
     17 C           1.0768    4.0408    1.6874 C.ar    1  UNL1        0.0410
     18 CL          1.6145    5.3496    2.7179 Cl      1  UNL1       -0.0835
     19 C           0.6609    2.8555    2.2560 C.ar    1  UNL1       -0.0431
     20 C           0.2240    1.7862    1.4661 C.ar    1  UNL1       -0.0551
     21 N           0.1846   -0.4974   -0.4115 N.am    1  UNL1       -0.2531
     22 C           1.5557   -0.9364   -0.2271 C.ar    1  UNL1        0.0545
     23 C           1.8912   -2.1997    0.1816 C.ar    1  UNL1       -0.0324
     24 C           3.2119   -2.6067    0.3461 C.ar    1  UNL1       -0.0041
     25 C           3.5403   -3.9876    0.7918 C.3     1  UNL1       -0.0361
     26 C           4.2190   -1.7063    0.0886 C.ar    1  UNL1        0.1641
     27 N           5.5608   -1.7804    0.1485 N.ar    1  UNL1       -0.1292
     28 N           6.0797   -0.6047   -0.2093 N.ar    1  UNL1       -0.1340
     29 C           5.0568    0.2195   -0.4978 C.ar    1  UNL1        0.1347
     30 C           5.2236    1.6314   -0.9399 C.3     1  UNL1       -0.0041
     31 N           3.9076   -0.4646   -0.3126 N.ar    1  UNL1       -0.2846
     32 C           2.6098   -0.0745   -0.4713 C.ar    1  UNL1        0.0344
     33 C          -0.9681   -1.3021   -0.2433 C.2     1  UNL1        0.2705
     34 O          -1.0095   -2.5318    0.1231 O.2     1  UNL1       -0.2679
     35 H          -2.2141    3.1070   -2.5003 H       1  UNL1        0.0293
     36 H          -2.6416    3.5697   -0.7734 H       1  UNL1        0.0293
     37 H          -3.9036    3.1524   -1.9584 H       1  UNL1        0.0293
     38 H          -4.3615   -2.6573   -2.3440 H       1  UNL1        0.0670
     39 H          -5.8262   -4.5125   -1.0693 H       1  UNL1        0.0848
     40 H          -4.9772   -0.3181    1.8503 H       1  UNL1        0.0473
     41 H          -3.6789   -1.4759    2.4557 H       1  UNL1        0.0473
     42 H          -5.4026   -1.8284    2.8010 H       1  UNL1        0.0473
     43 H           0.1436    0.9774   -1.8335 H       1  UNL1        0.0606
     44 H           0.5965    3.1677   -1.5633 H       1  UNL1        0.0621
     45 H           1.3761    5.0740   -0.1397 H       1  UNL1        0.0632
     46 H           0.6853    2.7841    3.3336 H       1  UNL1        0.0632
     47 H          -0.0922    0.8798    1.9387 H       1  UNL1        0.0621
     48 H           1.1520   -2.9404    0.3968 H       1  UNL1        0.0640
     49 H           2.6426   -4.4498    1.2748 H       1  UNL1        0.0279
     50 H           3.7129   -4.6122   -0.1300 H       1  UNL1        0.0279
     51 H           4.4092   -4.0311    1.4592 H       1  UNL1        0.0279
     52 H           6.0324    1.6837   -1.6964 H       1  UNL1        0.0308
     53 H           4.3058    2.0239   -1.3921 H       1  UNL1        0.0308
     54 H           5.5735    2.2623   -0.0770 H       1  UNL1        0.0308
     55 H           2.4552    0.9271   -0.7963 H       1  UNL1        0.0833
@<TRIPOS>BOND
     1     1     2    1
     2     2     3   ar
     3     3     4   ar
     4     4     5    1
     5     5     6   ar
     6     6     7   ar
     7     7     8   ar
     8     8     9   ar
     9     9    10    1
    10     4    11   ar
    11    11    12   ar
    12    12    13    1
    13    13    14    1
    14    14    15   ar
    15    15    16   ar
    16    16    17   ar
    17    17    18    1
    18    17    19   ar
    19    19    20   ar
    20    13    21    1
    21    21    22    1
    22    22    23   ar
    23    23    24   ar
    24    24    25    1
    25    24    26   ar
    26    26    27   ar
    27    27    28   ar
    28    28    29   ar
    29    29    30    1
    30    29    31   ar
    31    31    32   ar
    32    21    33   am
    33    33    34    2
    34    12     2   ar
    35    20    14   ar
    36    32    22   ar
    37     9     5   ar
    38    33    11    1
    39    31    26   ar
    40     1    35    1
    41     1    36    1
    42     1    37    1
    43     6    38    1
    44     7    39    1
    45    10    40    1
    46    10    41    1
    47    10    42    1
    48    13    43    1
    49    15    44    1
    50    16    45    1
    51    19    46    1
    52    20    47    1
    53    23    48    1
    54    25    49    1
    55    25    50    1
    56    25    51    1
    57    30    52    1
    58    30    53    1
    59    30    54    1
    60    32    55    1
