@<TRIPOS>MOLECULE
*****
 65 68 0 0 0
SMALL
GASTEIGER

@<TRIPOS>ATOM
      1 C          -4.4037   -1.2101   -3.7530 C.1     1  UNL1       -0.1179
      2 C          -3.2346   -1.0784   -3.3839 C.1     1  UNL1       -0.0900
      3 C          -1.8342   -0.9105   -2.9622 C.3     1  UNL1        0.0609
      4 N          -1.6250   -0.7334   -1.6215 N.3     1  UNL1       -0.2858
      5 C          -1.8783    0.5461   -1.0013 C.3     1  UNL1        0.0002
      6 C          -0.8101    1.5057   -1.5877 C.3     1  UNL1       -0.0399
      7 C           0.5313    0.8982   -1.4758 C.3     1  UNL1       -0.0490
      8 C           1.0375    0.6917   -0.1050 C.3     1  UNL1       -0.0387
      9 C           1.3167    1.9396    0.7002 C.3     1  UNL1       -0.0373
     10 C           2.7131    2.4404    0.4070 C.3     1  UNL1       -0.0005
     11 N           3.7583    1.4348    0.4667 N.3     1  UNL1       -0.2981
     12 C           4.7262    1.7554    1.5010 C.3     1  UNL1        0.0240
     13 C           6.1281    1.3075    0.9831 C.ar    1  UNL1       -0.0334
     14 C           6.4871    0.0679    1.3149 C.ar    1  UNL1       -0.0573
     15 C           7.7509   -0.3590    0.7520 C.ar    1  UNL1       -0.0615
     16 C           8.3809    0.5640   -0.0263 C.ar    1  UNL1       -0.0617
     17 C           8.0409    1.7804   -0.3547 C.ar    1  UNL1       -0.0615
     18 C           6.7221    2.2582    0.2164 C.ar    1  UNL1       -0.0573
     19 C           3.2168    0.1312    0.8075 C.3     1  UNL1       -0.0005
     20 C           2.1589   -0.2929   -0.1479 C.3     1  UNL1       -0.0373
     21 C          -1.8496   -1.8259   -0.7457 C.3     1  UNL1        0.0421
     22 C          -3.2878   -2.0025   -0.3161 C.ar    1  UNL1        0.0561
     23 C          -4.0722   -2.9472   -0.9400 C.ar    1  UNL1       -0.0385
     24 C          -5.4468   -2.9842   -0.5025 C.ar    1  UNL1       -0.0507
     25 C          -5.8538   -2.1471    0.4233 C.ar    1  UNL1        0.0040
     26 C          -7.2257   -2.1838    0.8797 C.ar    1  UNL1       -0.0523
     27 C          -7.6428   -1.3661    1.8114 C.ar    1  UNL1       -0.0576
     28 C          -6.9199   -0.4015    2.4803 C.ar    1  UNL1       -0.0180
     29 C          -5.5175   -0.3774    2.0019 C.ar    1  UNL1        0.1427
     30 O          -4.6776    0.5448    2.5834 O.3     1  UNL1       -0.5046
     31 C          -5.0836   -1.1953    1.0640 C.ar    1  UNL1        0.1126
     32 N          -3.7618   -1.1943    0.6087 N.ar    1  UNL1       -0.2466
     33 H          -5.4395   -1.3191   -4.0649 H       1  UNL1        0.1228
     34 H          -1.2115   -1.8067   -3.3130 H       1  UNL1        0.0563
     35 H          -1.3192   -0.0745   -3.5415 H       1  UNL1        0.0563
     36 H          -1.7545    0.4992    0.0577 H       1  UNL1        0.0427
     37 H          -2.8409    0.9769   -1.2817 H       1  UNL1        0.0427
     38 H          -0.9002    2.3960   -0.8795 H       1  UNL1        0.0278
     39 H          -1.1636    1.8248   -2.5568 H       1  UNL1        0.0278
     40 H           0.4455   -0.1379   -1.9361 H       1  UNL1        0.0268
     41 H           1.2959    1.5008   -2.0383 H       1  UNL1        0.0268
     42 H           0.1930    0.1764    0.4673 H       1  UNL1        0.0302
     43 H           1.2228    1.8036    1.7923 H       1  UNL1        0.0280
     44 H           0.5932    2.7081    0.4077 H       1  UNL1        0.0280
     45 H           2.6839    2.8694   -0.6425 H       1  UNL1        0.0427
     46 H           2.9577    3.2577    1.0880 H       1  UNL1        0.0427
     47 H           4.4948    1.1812    2.3912 H       1  UNL1        0.0476
     48 H           4.7332    2.8155    1.7289 H       1  UNL1        0.0476
     49 H           5.9739   -0.6267    1.9271 H       1  UNL1        0.0621
     50 H           8.1144   -1.3232    0.9548 H       1  UNL1        0.0618
     51 H           9.3666    0.1478   -0.4659 H       1  UNL1        0.0618
     52 H           8.5310    2.4871   -0.9516 H       1  UNL1        0.0618
     53 H           6.4361    3.2198   -0.0429 H       1  UNL1        0.0621
     54 H           2.7961    0.0909    1.8347 H       1  UNL1        0.0427
     55 H           4.0334   -0.6322    0.7420 H       1  UNL1        0.0427
     56 H           1.8070   -1.3077    0.1463 H       1  UNL1        0.0280
     57 H           2.5309   -0.3845   -1.2041 H       1  UNL1        0.0280
     58 H          -1.5962   -2.7609   -1.3440 H       1  UNL1        0.0491
     59 H          -1.1545   -1.8466    0.0955 H       1  UNL1        0.0491
     60 H          -3.7344   -3.6057   -1.6778 H       1  UNL1        0.0636
     61 H          -6.1050   -3.7120   -0.9791 H       1  UNL1        0.0625
     62 H          -7.8561   -2.9428    0.3896 H       1  UNL1        0.0624
     63 H          -8.7378   -1.4645    2.0964 H       1  UNL1        0.0619
     64 H          -7.2554    0.2242    3.2050 H       1  UNL1        0.0655
     65 H          -4.9843    1.1088    3.3979 H       1  UNL1        0.2922
@<TRIPOS>BOND
     1     1     2    3
     2     2     3    1
     3     3     4    1
     4     4     5    1
     5     5     6    1
     6     6     7    1
     7     7     8    1
     8     8     9    1
     9     9    10    1
    10    10    11    1
    11    11    12    1
    12    12    13    1
    13    13    14   ar
    14    14    15   ar
    15    15    16   ar
    16    16    17   ar
    17    17    18   ar
    18    11    19    1
    19    19    20    1
    20     4    21    1
    21    21    22    1
    22    22    23   ar
    23    23    24   ar
    24    24    25   ar
    25    25    26   ar
    26    26    27   ar
    27    27    28   ar
    28    28    29   ar
    29    29    30    1
    30    29    31   ar
    31    31    32   ar
    32    20     8    1
    33    32    22   ar
    34    18    13   ar
    35    31    25   ar
    36     1    33    1
    37     3    34    1
    38     3    35    1
    39     5    36    1
    40     5    37    1
    41     6    38    1
    42     6    39    1
    43     7    40    1
    44     7    41    1
    45     8    42    1
    46     9    43    1
    47     9    44    1
    48    10    45    1
    49    10    46    1
    50    12    47    1
    51    12    48    1
    52    14    49    1
    53    15    50    1
    54    16    51    1
    55    17    52    1
    56    18    53    1
    57    19    54    1
    58    19    55    1
    59    20    56    1
    60    20    57    1
    61    21    58    1
    62    21    59    1
    63    23    60    1
    64    24    61    1
    65    26    62    1
    66    27    63    1
    67    28    64    1
    68    30    65    1
