@<TRIPOS>MOLECULE
*****
 84 86 0 0 0
SMALL
GASTEIGER

@<TRIPOS>ATOM
      1 C           6.2565   -0.0546    1.0532 C.3     1  UNL1        0.1818
      2 O           7.3235    0.0657    1.9450 O.3     1  UNL1       -0.3652
      3 O           5.7442    1.1878    0.7427 O.3     1  UNL1       -0.3411
      4 C           4.7552    1.0226   -0.2492 C.3     1  UNL1        0.1133
      5 C           4.4978    2.4122   -0.7951 C.3     1  UNL1        0.0730
      6 O           4.0644    3.2543    0.2597 O.3     1  UNL1       -0.3924
      7 C           3.5621    0.3993    0.3842 C.3     1  UNL1        0.1180
      8 O           2.5084    0.1202   -0.4843 O.3     1  UNL1       -0.3405
      9 C           1.2685    0.5029   -0.0582 C.3     1  UNL1        0.1848
     10 O           0.5284   -0.6469    0.3699 O.3     1  UNL1       -0.3409
     11 C          -0.5735   -0.0962    1.0766 C.3     1  UNL1        0.1133
     12 C          -1.0653   -1.0038    2.1591 C.3     1  UNL1        0.0730
     13 O          -2.1128   -0.3822    2.8069 O.3     1  UNL1       -0.3924
     14 C          -1.5399    0.3017    0.0393 C.3     1  UNL1        0.1180
     15 O          -2.8246    0.5888    0.3783 O.3     1  UNL1       -0.3405
     16 C          -3.7565   -0.0144   -0.4890 C.3     1  UNL1        0.1848
     17 O          -4.3906    0.9654   -1.2436 O.3     1  UNL1       -0.3409
     18 C          -5.2855    0.5488   -2.1722 C.3     1  UNL1        0.1130
     19 C          -6.0734    1.6737   -2.8033 C.3     1  UNL1        0.0730
     20 O          -5.2724    2.5902   -3.4504 O.3     1  UNL1       -0.3924
     21 C          -6.2188   -0.5391   -1.6764 C.3     1  UNL1        0.1115
     22 O          -7.0116   -1.0329   -2.7042 O.3     1  UNL1       -0.3865
     23 C          -5.4879   -1.6258   -0.9675 C.3     1  UNL1        0.1106
     24 O          -6.2747   -2.6624   -0.5490 O.3     1  UNL1       -0.3868
     25 C          -4.7090   -0.9555    0.1801 C.3     1  UNL1        0.1331
     26 N          -4.0154   -1.9459    0.9487 N.2     1  UNL1       -0.2439
     27 C          -4.4420   -2.4974    2.0191 C.2     1  UNL1        0.1797
     28 C          -5.7507   -2.2386    2.7094 C.3     1  UNL1        0.0112
     29 O          -3.6368   -3.4432    2.6399 O.2     1  UNL1       -0.4958
     30 C          -0.9274    1.5935   -0.5993 C.3     1  UNL1        0.1109
     31 O          -1.6519    1.9699   -1.7229 O.3     1  UNL1       -0.3868
     32 C           0.4723    1.2268   -1.0670 C.3     1  UNL1        0.1331
     33 N           1.0591    2.3821   -1.6169 N.2     1  UNL1       -0.2439
     34 C           1.1943    3.5629   -1.1950 C.2     1  UNL1        0.1797
     35 C           1.8961    4.5242   -2.1164 C.3     1  UNL1        0.0112
     36 O           0.7159    3.9407    0.0565 O.2     1  UNL1       -0.4958
     37 C           4.0357   -0.9964    0.8488 C.3     1  UNL1        0.1109
     38 O           2.9812   -1.7177    1.3853 O.3     1  UNL1       -0.3868
     39 C           5.2278   -0.9316    1.7385 C.3     1  UNL1        0.1329
     40 N           5.7768   -2.2305    1.9326 N.2     1  UNL1       -0.2439
     41 C           6.4392   -2.9726    1.1475 C.2     1  UNL1        0.1797
     42 C           6.9996   -3.0285   -0.2239 C.3     1  UNL1        0.0112
     43 O           6.6967   -4.1093    1.8942 O.2     1  UNL1       -0.4958
     44 H           6.6234   -0.5387    0.1333 H       1  UNL1        0.0931
     45 H           8.0982   -0.4857    1.7126 H       1  UNL1        0.2125
     46 H           5.1047    0.3649   -1.0623 H       1  UNL1        0.0647
     47 H           3.8518    2.4444   -1.6698 H       1  UNL1        0.0584
     48 H           5.4884    2.8168   -1.0934 H       1  UNL1        0.0584
     49 H           4.3916    2.8622    1.0980 H       1  UNL1        0.2095
     50 H           3.1783    0.9048    1.2869 H       1  UNL1        0.0650
     51 H           1.3658    1.0696    0.8846 H       1  UNL1        0.0933
     52 H          -0.1829    0.8656    1.5411 H       1  UNL1        0.0647
     53 H          -1.3753   -1.9904    1.7765 H       1  UNL1        0.0584
     54 H          -0.2616   -1.1544    2.9421 H       1  UNL1        0.0584
     55 H          -1.8305    0.4191    3.3126 H       1  UNL1        0.2095
     56 H          -1.5121   -0.4482   -0.8100 H       1  UNL1        0.0650
     57 H          -3.1757   -0.6046   -1.2278 H       1  UNL1        0.0933
     58 H          -4.7157    0.0665   -2.9954 H       1  UNL1        0.0647
     59 H          -6.7180    1.2213   -3.6132 H       1  UNL1        0.0584
     60 H          -6.6744    2.2328   -2.0718 H       1  UNL1        0.0584
     61 H          -5.6581    3.0195   -4.2362 H       1  UNL1        0.2095
     62 H          -6.8980   -0.0375   -0.9424 H       1  UNL1        0.0647
     63 H          -7.1200   -2.0168   -2.6550 H       1  UNL1        0.2100
     64 H          -4.6814   -1.9731   -1.6686 H       1  UNL1        0.0643
     65 H          -5.6875   -3.3074   -0.0768 H       1  UNL1        0.2100
     66 H          -5.4093   -0.4479    0.8724 H       1  UNL1        0.0623
     67 H          -5.5586   -1.5343    3.5683 H       1  UNL1        0.0324
     68 H          -6.1466   -3.1669    3.1656 H       1  UNL1        0.0324
     69 H          -6.4784   -1.7457    2.0363 H       1  UNL1        0.0324
     70 H          -2.8512   -3.8484    2.1516 H       1  UNL1        0.2934
     71 H          -0.9888    2.3672    0.1465 H       1  UNL1        0.0643
     72 H          -2.2667    2.7283   -1.5529 H       1  UNL1        0.2100
     73 H           0.2347    0.4585   -1.9003 H       1  UNL1        0.0623
     74 H           1.8434    4.1797   -3.1616 H       1  UNL1        0.0324
     75 H           2.9198    4.6516   -1.7622 H       1  UNL1        0.0324
     76 H           1.4216    5.5413   -2.0171 H       1  UNL1        0.0324
     77 H           0.9998    3.4172    0.8935 H       1  UNL1        0.2934
     78 H           4.3119   -1.5051   -0.0919 H       1  UNL1        0.0643
     79 H           2.7267   -2.5101    0.8666 H       1  UNL1        0.2100
     80 H           4.9979   -0.4571    2.7263 H       1  UNL1        0.0623
     81 H           6.2263   -2.6209   -0.9239 H       1  UNL1        0.0324
     82 H           7.1510   -4.0701   -0.5653 H       1  UNL1        0.0324
     83 H           7.9604   -2.4763   -0.3034 H       1  UNL1        0.0324
     84 H           6.3121   -4.4001    2.7545 H       1  UNL1        0.2934
@<TRIPOS>BOND
     1     1     2    1
     2     1     3    1
     3     3     4    1
     4     4     5    1
     5     5     6    1
     6     4     7    1
     7     7     8    1
     8     8     9    1
     9     9    10    1
    10    10    11    1
    11    11    12    1
    12    12    13    1
    13    11    14    1
    14    14    15    1
    15    15    16    1
    16    16    17    1
    17    17    18    1
    18    18    19    1
    19    19    20    1
    20    18    21    1
    21    21    22    1
    22    21    23    1
    23    23    24    1
    24    23    25    1
    25    25    26    1
    26    26    27    2
    27    27    28    1
    28    27    29    1
    29    14    30    1
    30    30    31    1
    31    30    32    1
    32    32    33    1
    33    33    34    2
    34    34    35    1
    35    34    36    1
    36     7    37    1
    37    37    38    1
    38    37    39    1
    39    39    40    1
    40    40    41    2
    41    41    42    1
    42    41    43    1
    43    39     1    1
    44    32     9    1
    45    25    16    1
    46     1    44    1
    47     2    45    1
    48     4    46    1
    49     5    47    1
    50     5    48    1
    51     6    49    1
    52     7    50    1
    53     9    51    1
    54    11    52    1
    55    12    53    1
    56    12    54    1
    57    13    55    1
    58    14    56    1
    59    16    57    1
    60    18    58    1
    61    19    59    1
    62    19    60    1
    63    20    61    1
    64    21    62    1
    65    22    63    1
    66    23    64    1
    67    24    65    1
    68    25    66    1
    69    28    67    1
    70    28    68    1
    71    28    69    1
    72    29    70    1
    73    30    71    1
    74    31    72    1
    75    32    73    1
    76    35    74    1
    77    35    75    1
    78    35    76    1
    79    36    77    1
    80    37    78    1
    81    38    79    1
    82    39    80    1
    83    42    81    1
    84    42    82    1
    85    42    83    1
    86    43    84    1
