
     RDKit          3D

 84 86  0  0  0  0  0  0  0  0999 V2000
    6.2565   -0.0546    1.0532 C   0  0  2  0  0  0  0  0  0  0  0  0
    7.3235    0.0657    1.9450 O   0  0  0  0  0  0  0  0  0  0  0  0
    5.7442    1.1878    0.7427 O   0  0  0  0  0  0  0  0  0  0  0  0
    4.7552    1.0226   -0.2492 C   0  0  2  0  0  0  0  0  0  0  0  0
    4.4978    2.4122   -0.7951 C   0  0  0  0  0  0  0  0  0  0  0  0
    4.0644    3.2543    0.2597 O   0  0  0  0  0  0  0  0  0  0  0  0
    3.5621    0.3993    0.3842 C   0  0  1  0  0  0  0  0  0  0  0  0
    2.5084    0.1202   -0.4843 O   0  0  0  0  0  0  0  0  0  0  0  0
    1.2685    0.5029   -0.0582 C   0  0  2  0  0  0  0  0  0  0  0  0
    0.5284   -0.6469    0.3699 O   0  0  0  0  0  0  0  0  0  0  0  0
   -0.5735   -0.0962    1.0766 C   0  0  2  0  0  0  0  0  0  0  0  0
   -1.0653   -1.0038    2.1591 C   0  0  0  0  0  0  0  0  0  0  0  0
   -2.1128   -0.3822    2.8069 O   0  0  0  0  0  0  0  0  0  0  0  0
   -1.5399    0.3017    0.0393 C   0  0  1  0  0  0  0  0  0  0  0  0
   -2.8246    0.5888    0.3783 O   0  0  0  0  0  0  0  0  0  0  0  0
   -3.7565   -0.0144   -0.4890 C   0  0  2  0  0  0  0  0  0  0  0  0
   -4.3906    0.9654   -1.2436 O   0  0  0  0  0  0  0  0  0  0  0  0
   -5.2855    0.5488   -2.1722 C   0  0  2  0  0  0  0  0  0  0  0  0
   -6.0734    1.6737   -2.8033 C   0  0  0  0  0  0  0  0  0  0  0  0
   -5.2724    2.5902   -3.4504 O   0  0  0  0  0  0  0  0  0  0  0  0
   -6.2188   -0.5391   -1.6764 C   0  0  1  0  0  0  0  0  0  0  0  0
   -7.0116   -1.0329   -2.7042 O   0  0  0  0  0  0  0  0  0  0  0  0
   -5.4879   -1.6258   -0.9675 C   0  0  2  0  0  0  0  0  0  0  0  0
   -6.2747   -2.6624   -0.5490 O   0  0  0  0  0  0  0  0  0  0  0  0
   -4.7090   -0.9555    0.1801 C   0  0  1  0  0  0  0  0  0  0  0  0
   -4.0154   -1.9459    0.9487 N   0  0  0  0  0  0  0  0  0  0  0  0
   -4.4420   -2.4974    2.0191 C   0  0  0  0  0  0  0  0  0  0  0  0
   -5.7507   -2.2386    2.7094 C   0  0  0  0  0  0  0  0  0  0  0  0
   -3.6368   -3.4432    2.6399 O   0  0  0  0  0  0  0  0  0  0  0  0
   -0.9274    1.5935   -0.5993 C   0  0  2  0  0  0  0  0  0  0  0  0
   -1.6519    1.9699   -1.7229 O   0  0  0  0  0  0  0  0  0  0  0  0
    0.4723    1.2268   -1.0670 C   0  0  1  0  0  0  0  0  0  0  0  0
    1.0591    2.3821   -1.6169 N   0  0  0  0  0  0  0  0  0  0  0  0
    1.1943    3.5629   -1.1950 C   0  0  0  0  0  0  0  0  0  0  0  0
    1.8961    4.5242   -2.1164 C   0  0  0  0  0  0  0  0  0  0  0  0
    0.7159    3.9407    0.0565 O   0  0  0  0  0  0  0  0  0  0  0  0
    4.0357   -0.9964    0.8488 C   0  0  2  0  0  0  0  0  0  0  0  0
    2.9812   -1.7177    1.3853 O   0  0  0  0  0  0  0  0  0  0  0  0
    5.2278   -0.9316    1.7385 C   0  0  1  0  0  0  0  0  0  0  0  0
    5.7768   -2.2305    1.9326 N   0  0  0  0  0  0  0  0  0  0  0  0
    6.4392   -2.9726    1.1475 C   0  0  0  0  0  0  0  0  0  0  0  0
    6.9996   -3.0285   -0.2239 C   0  0  0  0  0  0  0  0  0  0  0  0
    6.6967   -4.1093    1.8942 O   0  0  0  0  0  0  0  0  0  0  0  0
    6.6234   -0.5387    0.1333 H   0  0  0  0  0  0  0  0  0  0  0  0
    8.0982   -0.4857    1.7126 H   0  0  0  0  0  0  0  0  0  0  0  0
    5.1047    0.3649   -1.0623 H   0  0  0  0  0  0  0  0  0  0  0  0
    3.8518    2.4444   -1.6698 H   0  0  0  0  0  0  0  0  0  0  0  0
    5.4884    2.8168   -1.0934 H   0  0  0  0  0  0  0  0  0  0  0  0
    4.3916    2.8622    1.0980 H   0  0  0  0  0  0  0  0  0  0  0  0
    3.1783    0.9048    1.2869 H   0  0  0  0  0  0  0  0  0  0  0  0
    1.3658    1.0696    0.8846 H   0  0  0  0  0  0  0  0  0  0  0  0
   -0.1829    0.8656    1.5411 H   0  0  0  0  0  0  0  0  0  0  0  0
   -1.3753   -1.9904    1.7765 H   0  0  0  0  0  0  0  0  0  0  0  0
   -0.2616   -1.1544    2.9421 H   0  0  0  0  0  0  0  0  0  0  0  0
   -1.8305    0.4191    3.3126 H   0  0  0  0  0  0  0  0  0  0  0  0
   -1.5121   -0.4482   -0.8100 H   0  0  0  0  0  0  0  0  0  0  0  0
   -3.1757   -0.6046   -1.2278 H   0  0  0  0  0  0  0  0  0  0  0  0
   -4.7157    0.0665   -2.9954 H   0  0  0  0  0  0  0  0  0  0  0  0
   -6.7180    1.2213   -3.6132 H   0  0  0  0  0  0  0  0  0  0  0  0
   -6.6744    2.2328   -2.0718 H   0  0  0  0  0  0  0  0  0  0  0  0
   -5.6581    3.0195   -4.2362 H   0  0  0  0  0  0  0  0  0  0  0  0
   -6.8980   -0.0375   -0.9424 H   0  0  0  0  0  0  0  0  0  0  0  0
   -7.1200   -2.0168   -2.6550 H   0  0  0  0  0  0  0  0  0  0  0  0
   -4.6814   -1.9731   -1.6686 H   0  0  0  0  0  0  0  0  0  0  0  0
   -5.6875   -3.3074   -0.0768 H   0  0  0  0  0  0  0  0  0  0  0  0
   -5.4093   -0.4479    0.8724 H   0  0  0  0  0  0  0  0  0  0  0  0
   -5.5586   -1.5343    3.5683 H   0  0  0  0  0  0  0  0  0  0  0  0
   -6.1466   -3.1669    3.1656 H   0  0  0  0  0  0  0  0  0  0  0  0
   -6.4784   -1.7457    2.0363 H   0  0  0  0  0  0  0  0  0  0  0  0
   -2.8512   -3.8484    2.1516 H   0  0  0  0  0  0  0  0  0  0  0  0
   -0.9888    2.3672    0.1465 H   0  0  0  0  0  0  0  0  0  0  0  0
   -2.2667    2.7283   -1.5529 H   0  0  0  0  0  0  0  0  0  0  0  0
    0.2347    0.4585   -1.9003 H   0  0  0  0  0  0  0  0  0  0  0  0
    1.8434    4.1797   -3.1616 H   0  0  0  0  0  0  0  0  0  0  0  0
    2.9198    4.6516   -1.7622 H   0  0  0  0  0  0  0  0  0  0  0  0
    1.4216    5.5413   -2.0171 H   0  0  0  0  0  0  0  0  0  0  0  0
    0.9998    3.4172    0.8935 H   0  0  0  0  0  0  0  0  0  0  0  0
    4.3119   -1.5051   -0.0919 H   0  0  0  0  0  0  0  0  0  0  0  0
    2.7267   -2.5101    0.8666 H   0  0  0  0  0  0  0  0  0  0  0  0
    4.9979   -0.4571    2.7263 H   0  0  0  0  0  0  0  0  0  0  0  0
    6.2263   -2.6209   -0.9239 H   0  0  0  0  0  0  0  0  0  0  0  0
    7.1510   -4.0701   -0.5653 H   0  0  0  0  0  0  0  0  0  0  0  0
    7.9604   -2.4763   -0.3034 H   0  0  0  0  0  0  0  0  0  0  0  0
    6.3121   -4.4001    2.7545 H   0  0  0  0  0  0  0  0  0  0  0  0
  1  2  1  0
  1  3  1  0
  3  4  1  0
  4  5  1  0
  5  6  1  0
  4  7  1  0
  7  8  1  0
  8  9  1  0
  9 10  1  0
 10 11  1  0
 11 12  1  0
 12 13  1  0
 11 14  1  0
 14 15  1  0
 15 16  1  0
 16 17  1  0
 17 18  1  0
 18 19  1  0
 19 20  1  0
 18 21  1  0
 21 22  1  0
 21 23  1  0
 23 24  1  0
 23 25  1  0
 25 26  1  0
 26 27  2  3
 27 28  1  0
 27 29  1  0
 14 30  1  0
 30 31  1  0
 30 32  1  0
 32 33  1  0
 33 34  2  3
 34 35  1  0
 34 36  1  0
  7 37  1  0
 37 38  1  0
 37 39  1  0
 39 40  1  0
 40 41  2  3
 41 42  1  0
 41 43  1  0
 39  1  1  0
 32  9  1  0
 25 16  1  0
  1 44  1  6
  2 45  1  0
  4 46  1  6
  5 47  1  0
  5 48  1  0
  6 49  1  0
  7 50  1  1
  9 51  1  1
 11 52  1  1
 12 53  1  0
 12 54  1  0
 13 55  1  0
 14 56  1  6
 16 57  1  6
 18 58  1  6
 19 59  1  0
 19 60  1  0
 20 61  1  0
 21 62  1  1
 22 63  1  0
 23 64  1  6
 24 65  1  0
 25 66  1  1
 28 67  1  0
 28 68  1  0
 28 69  1  0
 29 70  1  0
 30 71  1  1
 31 72  1  0
 32 73  1  6
 35 74  1  0
 35 75  1  0
 35 76  1  0
 36 77  1  0
 37 78  1  6
 38 79  1  0
 39 80  1  1
 42 81  1  0
 42 82  1  0
 42 83  1  0
 43 84  1  0
M  END
$$$$
