
     RDKit          3D

 32 34  0  0  0  0  0  0  0  0999 V2000
    5.3343    0.7609    0.5822 C   0  0  0  0  0  0  0  0  0  0  0  0
    4.4254   -0.3126    0.0532 C   0  0  0  0  0  0  0  0  0  0  0  0
    3.1125    0.1913   -0.1156 N   0  0  0  0  0  0  0  0  0  0  0  0
    2.7660    1.4648   -0.2279 C   0  0  0  0  0  0  0  0  0  0  0  0
    1.4108    1.5422   -0.1550 N   0  0  0  0  0  0  0  0  0  0  0  0
    0.9039    0.2074   -0.0023 C   0  0  0  0  0  0  0  0  0  0  0  0
   -0.3919   -0.0897   -0.1136 C   0  0  0  0  0  0  0  0  0  0  0  0
   -1.3815    0.7765    0.1355 N   0  0  0  0  0  0  0  0  0  0  0  0
   -2.7780    0.6081   -0.1018 C   0  0  0  0  0  0  0  0  0  0  0  0
   -3.7184    1.3304    0.6074 C   0  0  0  0  0  0  0  0  0  0  0  0
   -5.0975    1.1790    0.3669 C   0  0  0  0  0  0  0  0  0  0  0  0
   -5.9578    1.8840    1.0805 F   0  0  0  0  0  0  0  0  0  0  0  0
   -5.4754    0.2826   -0.6355 C   0  0  0  0  0  0  0  0  0  0  0  0
   -4.5003   -0.3679   -1.3024 C   0  0  0  0  0  0  0  0  0  0  0  0
   -4.9056   -1.1925   -2.3488 F   0  0  0  0  0  0  0  0  0  0  0  0
   -3.1824   -0.2411   -1.0623 C   0  0  0  0  0  0  0  0  0  0  0  0
   -0.6399   -1.5311   -0.3817 N   0  0  0  0  0  0  0  0  0  0  0  0
    0.4528   -2.1830   -0.4141 C   0  0  0  0  0  0  0  0  0  0  0  0
    0.2770   -3.6574   -0.6566 C   0  0  0  0  0  0  0  0  0  0  0  0
    0.0898   -5.0397   -0.8955 N   0  0  0  0  0  0  0  0  0  0  0  0
    1.6936   -1.9233   -0.2886 N   0  0  0  0  0  0  0  0  0  0  0  0
    1.9996   -0.5008   -0.0018 C   0  0  0  0  0  0  0  0  0  0  0  0
    5.6662    1.3874   -0.3316 H   0  0  0  0  0  0  0  0  0  0  0  0
    6.1983    0.4768    1.1497 H   0  0  0  0  0  0  0  0  0  0  0  0
    4.6697    1.4842    1.1526 H   0  0  0  0  0  0  0  0  0  0  0  0
    4.8001   -0.9171   -0.7699 H   0  0  0  0  0  0  0  0  0  0  0  0
    4.4046   -0.9695    1.0633 H   0  0  0  0  0  0  0  0  0  0  0  0
    3.4838    2.3161   -0.3274 H   0  0  0  0  0  0  0  0  0  0  0  0
   -1.1361    1.6985    0.6571 H   0  0  0  0  0  0  0  0  0  0  0  0
   -3.5238    2.1088    1.3278 H   0  0  0  0  0  0  0  0  0  0  0  0
   -6.5127    0.0775   -0.7816 H   0  0  0  0  0  0  0  0  0  0  0  0
   -2.4872   -0.8509   -1.6838 H   0  0  0  0  0  0  0  0  0  0  0  0
  1  2  1  0
  2  3  1  0
  3  4  1  0
  4  5  2  0
  5  6  1  0
  6  7  2  0
  7  8  1  0
  8  9  1  0
  9 10  2  0
 10 11  1  0
 11 12  1  0
 11 13  2  0
 13 14  1  0
 14 15  1  0
 14 16  2  0
  7 17  1  0
 17 18  2  0
 18 19  1  0
 19 20  3  0
 18 21  1  0
 21 22  2  0
 22  3  1  0
 22  6  1  0
 16  9  1  0
  1 23  1  0
  1 24  1  0
  1 25  1  0
  2 26  1  0
  2 27  1  0
  4 28  1  0
  8 29  1  0
 10 30  1  0
 13 31  1  0
 16 32  1  0
M  END
$$$$
