@<TRIPOS>MOLECULE
*****
 32 34 0 0 0
SMALL
GASTEIGER

@<TRIPOS>ATOM
      1 C           5.3343    0.7609    0.5822 C.3     1  UNL1       -0.0470
      2 C           4.4254   -0.3126    0.0532 C.3     1  UNL1        0.0232
      3 N           3.1125    0.1913   -0.1156 N.ar    1  UNL1       -0.3151
      4 C           2.7660    1.4648   -0.2279 C.ar    1  UNL1        0.0983
      5 N           1.4108    1.5422   -0.1550 N.ar    1  UNL1       -0.2306
      6 C           0.9039    0.2074   -0.0023 C.ar    1  UNL1        0.1478
      7 C          -0.3919   -0.0897   -0.1136 C.ar    1  UNL1        0.1552
      8 N          -1.3815    0.7765    0.1355 N.pl3   1  UNL1       -0.2974
      9 C          -2.7780    0.6081   -0.1018 C.ar    1  UNL1        0.0379
     10 C          -3.7184    1.3304    0.6074 C.ar    1  UNL1       -0.0051
     11 C          -5.0975    1.1790    0.3669 C.ar    1  UNL1        0.1279
     12 F          -5.9578    1.8840    1.0805 F       1  UNL1       -0.2053
     13 C          -5.4754    0.2826   -0.6355 C.ar    1  UNL1        0.0089
     14 C          -4.5003   -0.3679   -1.3024 C.ar    1  UNL1        0.1279
     15 F          -4.9056   -1.1925   -2.3488 F       1  UNL1       -0.2053
     16 C          -3.1824   -0.2411   -1.0623 C.ar    1  UNL1       -0.0051
     17 N          -0.6399   -1.5311   -0.3817 N.ar    1  UNL1       -0.2011
     18 C           0.4528   -2.1830   -0.4141 C.ar    1  UNL1        0.2356
     19 C           0.2770   -3.6574   -0.6566 C.1     1  UNL1        0.1400
     20 N           0.0898   -5.0397   -0.8955 N.1     1  UNL1       -0.1876
     21 N           1.6936   -1.9233   -0.2886 N.ar    1  UNL1       -0.1987
     22 C           1.9996   -0.5008   -0.0018 C.ar    1  UNL1        0.1667
     23 H           5.6662    1.3874   -0.3316 H       1  UNL1        0.0247
     24 H           6.1983    0.4768    1.1497 H       1  UNL1        0.0247
     25 H           4.6697    1.4842    1.1526 H       1  UNL1        0.0247
     26 H           4.8001   -0.9171   -0.7699 H       1  UNL1        0.0490
     27 H           4.4046   -0.9695    1.0633 H       1  UNL1        0.0490
     28 H           3.4838    2.3161   -0.3274 H       1  UNL1        0.1029
     29 H          -1.1361    1.6985    0.6571 H       1  UNL1        0.1536
     30 H          -3.5238    2.1088    1.3278 H       1  UNL1        0.0665
     31 H          -6.5127    0.0775   -0.7816 H       1  UNL1        0.0675
     32 H          -2.4872   -0.8509   -1.6838 H       1  UNL1        0.0665
@<TRIPOS>BOND
     1     1     2    1
     2     2     3    1
     3     3     4   ar
     4     4     5   ar
     5     5     6   ar
     6     6     7   ar
     7     7     8    1
     8     8     9    1
     9     9    10   ar
    10    10    11   ar
    11    11    12    1
    12    11    13   ar
    13    13    14   ar
    14    14    15    1
    15    14    16   ar
    16     7    17   ar
    17    17    18   ar
    18    18    19    1
    19    19    20    3
    20    18    21   ar
    21    21    22   ar
    22    22     3   ar
    23    22     6   ar
    24    16     9   ar
    25     1    23    1
    26     1    24    1
    27     1    25    1
    28     2    26    1
    29     2    27    1
    30     4    28    1
    31     8    29    1
    32    10    30    1
    33    13    31    1
    34    16    32    1
