
     RDKit          3D

 52 54  0  0  0  0  0  0  0  0999 V2000
    1.0772    0.1742   -2.5619 C   0  0  0  0  0  0  0  0  0  0  0  0
    1.3445    1.1079   -1.4383 C   0  0  0  0  0  0  0  0  0  0  0  0
    2.6262    1.1065   -0.8506 C   0  0  0  0  0  0  0  0  0  0  0  0
    2.9776    1.9313    0.1831 C   0  0  0  0  0  0  0  0  0  0  0  0
    4.2050    1.9413    0.7631 O   0  0  0  0  0  0  0  0  0  0  0  0
    5.3721    1.2901    0.5948 C   0  0  0  0  0  0  0  0  0  0  0  0
    5.4273   -0.1654    0.7713 C   0  0  0  0  0  0  0  0  0  0  0  0
    5.5782   -1.0262   -0.2779 C   0  0  0  0  0  0  0  0  0  0  0  0
    5.6522   -2.3864   -0.0449 C   0  0  0  0  0  0  0  0  0  0  0  0
    5.5743   -2.8727    1.2378 C   0  0  0  0  0  0  0  0  0  0  0  0
    5.6449   -4.2090    1.5004 F   0  0  0  0  0  0  0  0  0  0  0  0
    5.4206   -1.9830    2.2923 C   0  0  0  0  0  0  0  0  0  0  0  0
    5.3480   -0.6407    2.0592 C   0  0  0  0  0  0  0  0  0  0  0  0
    5.1949    0.2212    3.1245 F   0  0  0  0  0  0  0  0  0  0  0  0
    1.9712    2.7966    0.6335 C   0  0  0  0  0  0  0  0  0  0  0  0
    2.3776    3.8637    1.9488 Cl  0  0  0  0  0  0  0  0  0  0  0  0
    0.7411    2.7660    0.0340 C   0  0  0  0  0  0  0  0  0  0  0  0
   -0.1575    3.5555    0.4507 O   0  0  0  0  0  0  0  0  0  0  0  0
    0.4031    1.9376   -0.9946 N   0  0  0  0  0  0  0  0  0  0  0  0
   -0.9397    2.0202   -1.5616 C   0  0  0  0  0  0  0  0  0  0  0  0
   -1.9551    1.2471   -0.8659 C   0  0  0  0  0  0  0  0  0  0  0  0
   -2.8327    1.9035    0.0049 C   0  0  0  0  0  0  0  0  0  0  0  0
   -3.8072    1.2551    0.7223 C   0  0  0  0  0  0  0  0  0  0  0  0
   -3.9495   -0.1305    0.5924 C   0  0  0  0  0  0  0  0  0  0  0  0
   -4.9898   -0.7480    1.3897 C   0  0  0  0  0  0  0  0  0  0  0  0
   -4.9592   -0.5614    2.6337 O   0  0  0  0  0  0  0  0  0  0  0  0
   -6.0159   -1.5351    0.8271 N   0  0  0  0  0  0  0  0  0  0  0  0
   -6.0293   -1.7404   -0.6052 C   0  0  0  0  0  0  0  0  0  0  0  0
   -7.0630   -2.1429    1.6301 C   0  0  0  0  0  0  0  0  0  0  0  0
   -3.0994   -0.8056   -0.2608 C   0  0  0  0  0  0  0  0  0  0  0  0
   -2.1206   -0.1005   -0.9711 C   0  0  0  0  0  0  0  0  0  0  0  0
    2.0818    0.0118   -3.0757 H   0  0  0  0  0  0  0  0  0  0  0  0
    0.4467    0.6304   -3.3146 H   0  0  0  0  0  0  0  0  0  0  0  0
    0.7989   -0.8392   -2.2265 H   0  0  0  0  0  0  0  0  0  0  0  0
    3.3549    0.4074   -1.2650 H   0  0  0  0  0  0  0  0  0  0  0  0
    6.2291    1.7168    1.1743 H   0  0  0  0  0  0  0  0  0  0  0  0
    5.7087    1.4693   -0.4834 H   0  0  0  0  0  0  0  0  0  0  0  0
    5.6455   -0.6709   -1.3184 H   0  0  0  0  0  0  0  0  0  0  0  0
    5.7739   -3.0698   -0.8979 H   0  0  0  0  0  0  0  0  0  0  0  0
    5.3582   -2.3576    3.2948 H   0  0  0  0  0  0  0  0  0  0  0  0
   -0.9850    1.7862   -2.6367 H   0  0  0  0  0  0  0  0  0  0  0  0
   -1.2323    3.1054   -1.5045 H   0  0  0  0  0  0  0  0  0  0  0  0
   -2.7634    2.9720    0.1280 H   0  0  0  0  0  0  0  0  0  0  0  0
   -4.4817    1.7857    1.3981 H   0  0  0  0  0  0  0  0  0  0  0  0
   -5.3692   -1.0648   -1.1600 H   0  0  0  0  0  0  0  0  0  0  0  0
   -7.0958   -1.6424   -0.9366 H   0  0  0  0  0  0  0  0  0  0  0  0
   -5.7378   -2.8231   -0.7416 H   0  0  0  0  0  0  0  0  0  0  0  0
   -7.1907   -3.1851    1.2838 H   0  0  0  0  0  0  0  0  0  0  0  0
   -8.0496   -1.6534    1.4875 H   0  0  0  0  0  0  0  0  0  0  0  0
   -6.8027   -2.0969    2.7071 H   0  0  0  0  0  0  0  0  0  0  0  0
   -3.2167   -1.8790   -0.3555 H   0  0  0  0  0  0  0  0  0  0  0  0
   -1.4900   -0.6727   -1.6247 H   0  0  0  0  0  0  0  0  0  0  0  0
  1  2  1  0
  2  3  2  0
  3  4  1  0
  4  5  1  0
  5  6  1  0
  6  7  1  0
  7  8  2  0
  8  9  1  0
  9 10  2  0
 10 11  1  0
 10 12  1  0
 12 13  2  0
 13 14  1  0
  4 15  2  0
 15 16  1  0
 15 17  1  0
 17 18  2  0
 17 19  1  0
 19 20  1  0
 20 21  1  0
 21 22  2  0
 22 23  1  0
 23 24  2  0
 24 25  1  0
 25 26  2  0
 25 27  1  0
 27 28  1  0
 27 29  1  0
 24 30  1  0
 30 31  2  0
 19  2  1  0
 31 21  1  0
 13  7  1  0
  1 32  1  0
  1 33  1  0
  1 34  1  0
  3 35  1  0
  6 36  1  0
  6 37  1  0
  8 38  1  0
  9 39  1  0
 12 40  1  0
 20 41  1  0
 20 42  1  0
 22 43  1  0
 23 44  1  0
 28 45  1  0
 28 46  1  0
 28 47  1  0
 29 48  1  0
 29 49  1  0
 29 50  1  0
 30 51  1  0
 31 52  1  0
M  END
$$$$
