@<TRIPOS>MOLECULE
*****
 52 54 0 0 0
SMALL
GASTEIGER

@<TRIPOS>ATOM
      1 C           1.0772    0.1742   -2.5619 C.3     1  UNL1       -0.0240
      2 C           1.3445    1.1079   -1.4383 C.ar    1  UNL1        0.0229
      3 C           2.6262    1.1065   -0.8506 C.ar    1  UNL1        0.0009
      4 C           2.9776    1.9313    0.1831 C.ar    1  UNL1        0.1461
      5 O           4.2050    1.9413    0.7631 O.3     1  UNL1       -0.4856
      6 C           5.3721    1.2901    0.5948 C.3     1  UNL1        0.1174
      7 C           5.4273   -0.1654    0.7713 C.ar    1  UNL1        0.0250
      8 C           5.5782   -1.0262   -0.2779 C.ar    1  UNL1       -0.0499
      9 C           5.6522   -2.3864   -0.0449 C.ar    1  UNL1       -0.0259
     10 C           5.5743   -2.8727    1.2378 C.ar    1  UNL1        0.1261
     11 F           5.6449   -4.2090    1.5004 F       1  UNL1       -0.2054
     12 C           5.4206   -1.9830    2.2923 C.ar    1  UNL1        0.0092
     13 C           5.3480   -0.6407    2.0592 C.ar    1  UNL1        0.1325
     14 F           5.1949    0.2212    3.1245 F       1  UNL1       -0.2050
     15 C           1.9712    2.7966    0.6335 C.ar    1  UNL1        0.1468
     16 CL          2.3776    3.8637    1.9488 Cl      1  UNL1       -0.0741
     17 C           0.7411    2.7660    0.0340 C.ar    1  UNL1        0.2738
     18 O          -0.1575    3.5555    0.4507 O.2     1  UNL1       -0.2660
     19 N           0.4031    1.9376   -0.9946 N.ar    1  UNL1       -0.3069
     20 C          -0.9397    2.0202   -1.5616 C.3     1  UNL1        0.0514
     21 C          -1.9551    1.2471   -0.8659 C.ar    1  UNL1       -0.0276
     22 C          -2.8327    1.9035    0.0049 C.ar    1  UNL1       -0.0562
     23 C          -3.8072    1.2551    0.7223 C.ar    1  UNL1       -0.0493
     24 C          -3.9495   -0.1305    0.5924 C.ar    1  UNL1        0.0369
     25 C          -4.9898   -0.7480    1.3897 C.2     1  UNL1        0.2461
     26 O          -4.9592   -0.5614    2.6337 O.2     1  UNL1       -0.2700
     27 N          -6.0159   -1.5351    0.8271 N.am    1  UNL1       -0.3036
     28 C          -6.0293   -1.7404   -0.6052 C.3     1  UNL1        0.0031
     29 C          -7.0630   -2.1429    1.6301 C.3     1  UNL1        0.0031
     30 C          -3.0994   -0.8056   -0.2608 C.ar    1  UNL1       -0.0493
     31 C          -2.1206   -0.1005   -0.9711 C.ar    1  UNL1       -0.0562
     32 H           2.0818    0.0118   -3.0757 H       1  UNL1        0.0292
     33 H           0.4467    0.6304   -3.3146 H       1  UNL1        0.0292
     34 H           0.7989   -0.8392   -2.2265 H       1  UNL1        0.0292
     35 H           3.3549    0.4074   -1.2650 H       1  UNL1        0.0672
     36 H           6.2291    1.7168    1.1743 H       1  UNL1        0.0749
     37 H           5.7087    1.4693   -0.4834 H       1  UNL1        0.0749
     38 H           5.6455   -0.6709   -1.3184 H       1  UNL1        0.0623
     39 H           5.7739   -3.0698   -0.8979 H       1  UNL1        0.0646
     40 H           5.3582   -2.3576    3.2948 H       1  UNL1        0.0675
     41 H          -0.9850    1.7862   -2.6367 H       1  UNL1        0.0542
     42 H          -1.2323    3.1054   -1.5045 H       1  UNL1        0.0542
     43 H          -2.7634    2.9720    0.1280 H       1  UNL1        0.0621
     44 H          -4.4817    1.7857    1.3981 H       1  UNL1        0.0625
     45 H          -5.3692   -1.0648   -1.1600 H       1  UNL1        0.0428
     46 H          -7.0958   -1.6424   -0.9366 H       1  UNL1        0.0428
     47 H          -5.7378   -2.8231   -0.7416 H       1  UNL1        0.0428
     48 H          -7.1907   -3.1851    1.2838 H       1  UNL1        0.0428
     49 H          -8.0496   -1.6534    1.4875 H       1  UNL1        0.0428
     50 H          -6.8027   -2.0969    2.7071 H       1  UNL1        0.0428
     51 H          -3.2167   -1.8790   -0.3555 H       1  UNL1        0.0625
     52 H          -1.4900   -0.6727   -1.6247 H       1  UNL1        0.0621
@<TRIPOS>BOND
     1     1     2    1
     2     2     3   ar
     3     3     4   ar
     4     4     5    1
     5     5     6    1
     6     6     7    1
     7     7     8   ar
     8     8     9   ar
     9     9    10   ar
    10    10    11    1
    11    10    12   ar
    12    12    13   ar
    13    13    14    1
    14     4    15   ar
    15    15    16    1
    16    15    17   ar
    17    17    18    2
    18    17    19   ar
    19    19    20    1
    20    20    21    1
    21    21    22   ar
    22    22    23   ar
    23    23    24   ar
    24    24    25    1
    25    25    26    2
    26    25    27   am
    27    27    28    1
    28    27    29    1
    29    24    30   ar
    30    30    31   ar
    31    19     2   ar
    32    31    21   ar
    33    13     7   ar
    34     1    32    1
    35     1    33    1
    36     1    34    1
    37     3    35    1
    38     6    36    1
    39     6    37    1
    40     8    38    1
    41     9    39    1
    42    12    40    1
    43    20    41    1
    44    20    42    1
    45    22    43    1
    46    23    44    1
    47    28    45    1
    48    28    46    1
    49    28    47    1
    50    29    48    1
    51    29    49    1
    52    29    50    1
    53    30    51    1
    54    31    52    1
