@<TRIPOS>MOLECULE
*****
 54 58 0 0 0
SMALL
GASTEIGER

@<TRIPOS>ATOM
      1 C          -3.1651    2.1457    2.2982 C.3     1  UNL1       -0.0026
      2 N          -3.1214    1.4441    1.0309 N.pl3   1  UNL1       -0.3478
      3 C          -2.0968    0.5035    0.7421 C.2     1  UNL1        0.0433
      4 C          -2.2095   -0.8089    0.7411 C.2     1  UNL1        0.0769
      5 C          -3.3910   -1.6216    1.0287 C.2     1  UNL1        0.0492
      6 N          -4.5427   -1.1696    1.3501 N.2     1  UNL1       -0.3029
      7 C          -3.3184   -3.1235    0.9539 C.3     1  UNL1        0.0015
      8 C          -2.9819   -3.8330   -0.2704 C.3     1  UNL1       -0.0442
      9 C          -4.4445   -3.8284    0.2054 C.3     1  UNL1       -0.0442
     10 C          -0.8794   -1.3814    0.4231 C.2     1  UNL1        0.2550
     11 O          -0.6123   -2.5873    0.3360 O.2     1  UNL1       -0.2695
     12 N           0.0552   -0.3200    0.2311 N.am    1  UNL1       -0.2532
     13 C           1.4333   -0.3917   -0.0614 C.ar    1  UNL1        0.0545
     14 C           1.9325   -0.4589   -1.3634 C.ar    1  UNL1       -0.0324
     15 C           3.2840   -0.5285   -1.6288 C.ar    1  UNL1       -0.0041
     16 C           3.8041   -0.5995   -3.0143 C.3     1  UNL1       -0.0361
     17 C           4.1510   -0.5301   -0.5504 C.ar    1  UNL1        0.1641
     18 N           5.4860   -0.5874   -0.4792 N.ar    1  UNL1       -0.1292
     19 N           5.8332   -0.5588    0.8005 N.ar    1  UNL1       -0.1340
     20 C           4.7412   -0.4832    1.5758 C.ar    1  UNL1        0.1347
     21 C           4.7020   -0.4306    3.0543 C.3     1  UNL1       -0.0041
     22 N           3.6931   -0.4659    0.7181 N.ar    1  UNL1       -0.2846
     23 C           2.3874   -0.3993    0.9576 C.ar    1  UNL1        0.0344
     24 C          -0.7086    0.8770    0.4030 C.3     1  UNL1        0.0948
     25 C          -0.5542    1.8278   -0.7035 C.ar    1  UNL1       -0.0210
     26 C          -1.5240    2.2381   -1.5744 C.ar    1  UNL1       -0.0550
     27 C          -1.2582    3.1779   -2.5754 C.ar    1  UNL1       -0.0431
     28 C          -0.0101    3.7333   -2.7316 C.ar    1  UNL1        0.0410
     29 CL          0.2916    4.9104   -3.9980 Cl      1  UNL1       -0.0835
     30 C           0.9794    3.3309   -1.8627 C.ar    1  UNL1       -0.0431
     31 C           0.7100    2.4107   -0.8856 C.ar    1  UNL1       -0.0550
     32 H          -2.6086    1.5978    3.0867 H       1  UNL1        0.0425
     33 H          -2.7099    3.1568    2.2406 H       1  UNL1        0.0425
     34 H          -4.2262    2.2971    2.5872 H       1  UNL1        0.0425
     35 H          -3.8730    1.6661    0.3550 H       1  UNL1        0.1455
     36 H          -4.7946   -0.1781    1.4503 H       1  UNL1        0.1863
     37 H          -3.0301   -3.5854    1.9124 H       1  UNL1        0.0364
     38 H          -2.4324   -4.7975   -0.1843 H       1  UNL1        0.0272
     39 H          -2.8614   -3.3619   -1.2566 H       1  UNL1        0.0272
     40 H          -4.8308   -4.7779    0.6262 H       1  UNL1        0.0272
     41 H          -5.1733   -3.2327   -0.3495 H       1  UNL1        0.0272
     42 H           1.2258   -0.4551   -2.1708 H       1  UNL1        0.0640
     43 H           4.2984    0.3404   -3.3354 H       1  UNL1        0.0279
     44 H           2.9642   -0.8781   -3.6899 H       1  UNL1        0.0279
     45 H           4.5773   -1.3992   -3.1196 H       1  UNL1        0.0279
     46 H           3.7658    0.0643    3.3841 H       1  UNL1        0.0308
     47 H           4.8140   -1.4030    3.5332 H       1  UNL1        0.0308
     48 H           5.5571    0.2132    3.3988 H       1  UNL1        0.0308
     49 H           2.0367   -0.3483    1.9805 H       1  UNL1        0.0833
     50 H          -0.3167    1.4022    1.3216 H       1  UNL1        0.0617
     51 H          -2.4942    1.8211   -1.4882 H       1  UNL1        0.0621
     52 H          -2.0566    3.4734   -3.2419 H       1  UNL1        0.0632
     53 H           1.9718    3.7576   -1.9696 H       1  UNL1        0.0632
     54 H           1.5307    2.1354   -0.2215 H       1  UNL1        0.0621
@<TRIPOS>BOND
     1     1     2    1
     2     2     3    1
     3     3     4    2
     4     4     5    1
     5     5     6    2
     6     5     7    1
     7     7     8    1
     8     8     9    1
     9     4    10    1
    10    10    11    2
    11    10    12   am
    12    12    13    1
    13    13    14   ar
    14    14    15   ar
    15    15    16    1
    16    15    17   ar
    17    17    18   ar
    18    18    19   ar
    19    19    20   ar
    20    20    21    1
    21    20    22   ar
    22    22    23   ar
    23    12    24    1
    24    24    25    1
    25    25    26   ar
    26    26    27   ar
    27    27    28   ar
    28    28    29    1
    29    28    30   ar
    30    30    31   ar
    31    24     3    1
    32    31    25   ar
    33     9     7    1
    34    23    13   ar
    35    22    17   ar
    36     1    32    1
    37     1    33    1
    38     1    34    1
    39     2    35    1
    40     6    36    1
    41     7    37    1
    42     8    38    1
    43     8    39    1
    44     9    40    1
    45     9    41    1
    46    14    42    1
    47    16    43    1
    48    16    44    1
    49    16    45    1
    50    21    46    1
    51    21    47    1
    52    21    48    1
    53    23    49    1
    54    24    50    1
    55    26    51    1
    56    27    52    1
    57    30    53    1
    58    31    54    1
