
     RDKit          3D

 51 56  0  0  0  0  0  0  0  0999 V2000
   -4.0651    0.0852   -2.1094 C   0  0  0  0  0  0  0  0  0  0  0  0
   -3.3791   -0.5910   -0.9815 C   0  0  0  0  0  0  0  0  0  0  0  0
   -4.0237   -1.3164   -0.0466 N   0  0  0  0  0  0  0  0  0  0  0  0
   -3.1954   -1.8107    0.8270 N   0  0  0  0  0  0  0  0  0  0  0  0
   -3.4559   -2.6451    1.9924 C   0  0  0  0  0  0  0  0  0  0  0  0
   -4.2072   -1.8975    3.1103 C   0  0  0  0  0  0  0  0  0  0  0  0
   -4.8505   -3.0102    2.3429 C   0  0  0  0  0  0  0  0  0  0  0  0
   -1.9595   -1.4131    0.4793 C   0  0  0  0  0  0  0  0  0  0  0  0
   -2.0557   -0.6300   -0.6769 C   0  0  0  0  0  0  0  0  0  0  0  0
   -0.7075   -0.1929   -1.0656 C   0  0  1  0  0  0  0  0  0  0  0  0
   -0.5388    1.2610   -1.1849 C   0  0  0  0  0  0  0  0  0  0  0  0
    0.6769    1.7193   -1.6377 C   0  0  0  0  0  0  0  0  0  0  0  0
    0.9546    3.0616   -1.7680 C   0  0  0  0  0  0  0  0  0  0  0  0
   -0.0332    3.9660   -1.4284 C   0  0  0  0  0  0  0  0  0  0  0  0
    0.3255    5.6791   -1.5964 Cl  0  0  0  0  0  0  0  0  0  0  0  0
   -1.2551    3.5292   -0.9742 C   0  0  0  0  0  0  0  0  0  0  0  0
   -1.5041    2.1787   -0.8537 C   0  0  0  0  0  0  0  0  0  0  0  0
    0.2089   -0.7451   -0.1045 N   0  0  0  0  0  0  0  0  0  0  0  0
    1.6073   -0.5963   -0.0827 C   0  0  0  0  0  0  0  0  0  0  0  0
    2.4480   -1.4481   -0.7753 C   0  0  0  0  0  0  0  0  0  0  0  0
    3.8081   -1.3525   -0.7727 C   0  0  0  0  0  0  0  0  0  0  0  0
    4.7041   -2.2748   -1.5219 C   0  0  0  0  0  0  0  0  0  0  0  0
    4.3644   -0.3198   -0.0143 C   0  0  0  0  0  0  0  0  0  0  0  0
    5.6272    0.0723    0.2195 N   0  0  0  0  0  0  0  0  0  0  0  0
    5.5772    1.1210    1.0213 N   0  0  0  0  0  0  0  0  0  0  0  0
    4.3017    1.4236    1.3178 C   0  0  0  0  0  0  0  0  0  0  0  0
    3.7825    2.5162    2.1774 C   0  0  0  0  0  0  0  0  0  0  0  0
    3.5405    0.5047    0.6567 N   0  0  0  0  0  0  0  0  0  0  0  0
    2.2200    0.3906    0.6379 N   0  0  0  0  0  0  0  0  0  0  0  0
   -0.5367   -1.4930    0.8498 C   0  0  0  0  0  0  0  0  0  0  0  0
   -0.0825   -2.1189    1.8408 O   0  0  0  0  0  0  0  0  0  0  0  0
   -3.3102    0.7260   -2.6219 H   0  0  0  0  0  0  0  0  0  0  0  0
   -4.5503   -0.6000   -2.8071 H   0  0  0  0  0  0  0  0  0  0  0  0
   -4.8489    0.7532   -1.6706 H   0  0  0  0  0  0  0  0  0  0  0  0
   -2.6592   -3.3402    2.2796 H   0  0  0  0  0  0  0  0  0  0  0  0
   -4.5759   -0.8822    2.8945 H   0  0  0  0  0  0  0  0  0  0  0  0
   -3.8034   -2.0628    4.1251 H   0  0  0  0  0  0  0  0  0  0  0  0
   -4.9902   -3.9535    2.9114 H   0  0  0  0  0  0  0  0  0  0  0  0
   -5.6707   -2.7848    1.6529 H   0  0  0  0  0  0  0  0  0  0  0  0
   -0.4755   -0.5977   -2.1083 H   0  0  0  0  0  0  0  0  0  0  0  0
    1.4740    1.0260   -1.9261 H   0  0  0  0  0  0  0  0  0  0  0  0
    1.9207    3.3911   -2.1267 H   0  0  0  0  0  0  0  0  0  0  0  0
   -2.0330    4.2505   -0.7072 H   0  0  0  0  0  0  0  0  0  0  0  0
   -2.4720    1.8205   -0.4872 H   0  0  0  0  0  0  0  0  0  0  0  0
    1.9838   -2.2387   -1.3540 H   0  0  0  0  0  0  0  0  0  0  0  0
    5.1345   -1.7884   -2.4197 H   0  0  0  0  0  0  0  0  0  0  0  0
    4.0491   -3.1096   -1.8837 H   0  0  0  0  0  0  0  0  0  0  0  0
    5.4658   -2.7321   -0.8689 H   0  0  0  0  0  0  0  0  0  0  0  0
    3.0946    3.1898    1.6348 H   0  0  0  0  0  0  0  0  0  0  0  0
    4.6493    3.1401    2.4959 H   0  0  0  0  0  0  0  0  0  0  0  0
    3.3204    2.1399    3.1088 H   0  0  0  0  0  0  0  0  0  0  0  0
  1  2  1  0
  2  3  2  0
  3  4  1  0
  4  5  1  0
  5  6  1  0
  6  7  1  0
  4  8  1  0
  8  9  2  0
  9 10  1  0
 10 11  1  0
 11 12  2  0
 12 13  1  0
 13 14  2  0
 14 15  1  0
 14 16  1  0
 16 17  2  0
 10 18  1  0
 18 19  1  0
 19 20  1  0
 20 21  2  0
 21 22  1  0
 21 23  1  0
 23 24  2  0
 24 25  1  0
 25 26  2  0
 26 27  1  0
 26 28  1  0
 28 29  1  0
 18 30  1  0
 30 31  2  0
  9  2  1  0
 17 11  1  0
 29 19  2  0
  7  5  1  0
 30  8  1  0
 28 23  1  0
  1 32  1  0
  1 33  1  0
  1 34  1  0
  5 35  1  0
  6 36  1  0
  6 37  1  0
  7 38  1  0
  7 39  1  0
 10 40  1  6
 12 41  1  0
 13 42  1  0
 16 43  1  0
 17 44  1  0
 20 45  1  0
 22 46  1  0
 22 47  1  0
 22 48  1  0
 27 49  1  0
 27 50  1  0
 27 51  1  0
M  END
$$$$
