@<TRIPOS>MOLECULE
*****
 51 56 0 0 0
SMALL
GASTEIGER

@<TRIPOS>ATOM
      1 C          -4.0651    0.0852   -2.1094 C.3     1  UNL1       -0.0203
      2 C          -3.3791   -0.5910   -0.9815 C.ar    1  UNL1        0.0660
      3 N          -4.0237   -1.3164   -0.0466 N.ar    1  UNL1       -0.1752
      4 N          -3.1954   -1.8107    0.8270 N.ar    1  UNL1       -0.2556
      5 C          -3.4559   -2.6451    1.9924 C.3     1  UNL1        0.0537
      6 C          -4.2072   -1.8975    3.1103 C.3     1  UNL1       -0.0285
      7 C          -4.8505   -3.0102    2.3429 C.3     1  UNL1       -0.0285
      8 C          -1.9595   -1.4131    0.4793 C.ar    1  UNL1        0.1297
      9 C          -2.0557   -0.6300   -0.6769 C.ar    1  UNL1        0.0305
     10 C          -0.7075   -0.1929   -1.0656 C.3     1  UNL1        0.0868
     11 C          -0.5388    1.2610   -1.1849 C.ar    1  UNL1       -0.0220
     12 C           0.6769    1.7193   -1.6377 C.ar    1  UNL1       -0.0551
     13 C           0.9546    3.0616   -1.7680 C.ar    1  UNL1       -0.0431
     14 C          -0.0332    3.9660   -1.4284 C.ar    1  UNL1        0.0410
     15 CL          0.3255    5.6791   -1.5964 Cl      1  UNL1       -0.0835
     16 C          -1.2551    3.5292   -0.9742 C.ar    1  UNL1       -0.0431
     17 C          -1.5041    2.1787   -0.8537 C.ar    1  UNL1       -0.0551
     18 N           0.2089   -0.7451   -0.1045 N.am    1  UNL1       -0.2376
     19 C           1.6073   -0.5963   -0.0827 C.ar    1  UNL1        0.1499
     20 C           2.4480   -1.4481   -0.7753 C.ar    1  UNL1       -0.0131
     21 C           3.8081   -1.3525   -0.7727 C.ar    1  UNL1       -0.0012
     22 C           4.7041   -2.2748   -1.5219 C.3     1  UNL1       -0.0360
     23 C           4.3644   -0.3198   -0.0143 C.ar    1  UNL1        0.1809
     24 N           5.6272    0.0723    0.2195 N.ar    1  UNL1       -0.1277
     25 N           5.5772    1.1210    1.0213 N.ar    1  UNL1       -0.1325
     26 C           4.3017    1.4236    1.3178 C.ar    1  UNL1        0.1521
     27 C           3.7825    2.5162    2.1774 C.3     1  UNL1       -0.0027
     28 N           3.5405    0.5047    0.6567 N.ar    1  UNL1       -0.1953
     29 N           2.2200    0.3906    0.6379 N.ar    1  UNL1       -0.1478
     30 C          -0.5367   -1.4930    0.8498 C.2     1  UNL1        0.2711
     31 O          -0.0825   -2.1189    1.8408 O.2     1  UNL1       -0.2679
     32 H          -3.3102    0.7260   -2.6219 H       1  UNL1        0.0293
     33 H          -4.5503   -0.6000   -2.8071 H       1  UNL1        0.0293
     34 H          -4.8489    0.7532   -1.6706 H       1  UNL1        0.0293
     35 H          -2.6592   -3.3402    2.2796 H       1  UNL1        0.0545
     36 H          -4.5759   -0.8822    2.8945 H       1  UNL1        0.0286
     37 H          -3.8034   -2.0628    4.1251 H       1  UNL1        0.0286
     38 H          -4.9902   -3.9535    2.9114 H       1  UNL1        0.0286
     39 H          -5.6707   -2.7848    1.6529 H       1  UNL1        0.0286
     40 H          -0.4755   -0.5977   -2.1083 H       1  UNL1        0.0606
     41 H           1.4740    1.0260   -1.9261 H       1  UNL1        0.0621
     42 H           1.9207    3.3911   -2.1267 H       1  UNL1        0.0632
     43 H          -2.0330    4.2505   -0.7072 H       1  UNL1        0.0632
     44 H          -2.4720    1.8205   -0.4872 H       1  UNL1        0.0621
     45 H           1.9838   -2.2387   -1.3540 H       1  UNL1        0.0656
     46 H           5.1345   -1.7884   -2.4197 H       1  UNL1        0.0279
     47 H           4.0491   -3.1096   -1.8837 H       1  UNL1        0.0279
     48 H           5.4658   -2.7321   -0.8689 H       1  UNL1        0.0279
     49 H           3.0946    3.1898    1.6348 H       1  UNL1        0.0309
     50 H           4.6493    3.1401    2.4959 H       1  UNL1        0.0309
     51 H           3.3204    2.1399    3.1088 H       1  UNL1        0.0309
@<TRIPOS>BOND
     1     1     2    1
     2     2     3   ar
     3     3     4   ar
     4     4     5    1
     5     5     6    1
     6     6     7    1
     7     4     8   ar
     8     8     9   ar
     9     9    10    1
    10    10    11    1
    11    11    12   ar
    12    12    13   ar
    13    13    14   ar
    14    14    15    1
    15    14    16   ar
    16    16    17   ar
    17    10    18    1
    18    18    19    1
    19    19    20   ar
    20    20    21   ar
    21    21    22    1
    22    21    23   ar
    23    23    24   ar
    24    24    25   ar
    25    25    26   ar
    26    26    27    1
    27    26    28   ar
    28    28    29   ar
    29    18    30   am
    30    30    31    2
    31     9     2   ar
    32    17    11   ar
    33    29    19   ar
    34     7     5    1
    35    30     8    1
    36    28    23   ar
    37     1    32    1
    38     1    33    1
    39     1    34    1
    40     5    35    1
    41     6    36    1
    42     6    37    1
    43     7    38    1
    44     7    39    1
    45    10    40    1
    46    12    41    1
    47    13    42    1
    48    16    43    1
    49    17    44    1
    50    20    45    1
    51    22    46    1
    52    22    47    1
    53    22    48    1
    54    27    49    1
    55    27    50    1
    56    27    51    1
