@<TRIPOS>MOLECULE
*****
 49 52 0 0 0
SMALL
GASTEIGER

@<TRIPOS>ATOM
      1 O           0.1734   -1.2454   -2.6310 O.2     1  UNL1       -0.2744
      2 C           0.7566   -0.5338   -1.7541 C.2     1  UNL1        0.2273
      3 C           2.1604   -0.1818   -2.0036 C.3     1  UNL1        0.0757
      4 N           2.6470    0.5731   -0.8329 N.3     1  UNL1       -0.2935
      5 C           3.9936    1.1046   -1.1619 C.3     1  UNL1       -0.0000
      6 C           4.4612    1.4855    0.2201 C.3     1  UNL1       -0.0280
      7 C           4.1285    0.2188    0.9899 C.3     1  UNL1        0.0682
      8 C           5.3461   -0.6875    1.0815 C.3     1  UNL1        0.3941
      9 F           5.0261   -1.8320    1.7824 F       1  UNL1       -0.1704
     10 F           6.3574   -0.0459    1.7904 F       1  UNL1       -0.1704
     11 F           5.7797   -1.0729   -0.1650 F       1  UNL1       -0.1704
     12 C           3.0951   -0.4666    0.1306 C.3     1  UNL1        0.0104
     13 N          -0.0070   -0.1471   -0.6247 N.am    1  UNL1       -0.3109
     14 C          -1.3636   -0.5810   -0.5336 C.3     1  UNL1        0.0290
     15 C          -1.8041   -1.1104    0.7823 C.3     1  UNL1       -0.0195
     16 C          -1.7873   -0.0531    1.8478 C.3     1  UNL1       -0.0455
     17 C          -2.7720    1.0305    1.4697 C.3     1  UNL1       -0.0378
     18 C          -2.2229    1.6493    0.1906 C.3     1  UNL1       -0.0455
     19 C          -2.2603    0.6114   -0.8773 C.3     1  UNL1       -0.0195
     20 C          -3.6488    0.0748   -1.1327 C.3     1  UNL1       -0.0195
     21 C          -4.1553   -0.5511    0.1503 C.3     1  UNL1        0.0670
     22 O          -5.4190   -1.0718   -0.0202 O.3     1  UNL1       -0.3885
     23 C          -4.1551    0.5297    1.2108 C.3     1  UNL1       -0.0211
     24 C          -3.2303   -1.6443    0.5782 C.3     1  UNL1       -0.0195
     25 H           2.7391   -1.1421   -2.0874 H       1  UNL1        0.0522
     26 H           2.2590    0.4269   -2.9334 H       1  UNL1        0.0522
     27 H           3.9135    1.9650   -1.8382 H       1  UNL1        0.0427
     28 H           4.5572    0.2601   -1.5657 H       1  UNL1        0.0427
     29 H           3.7820    2.2766    0.6094 H       1  UNL1        0.0283
     30 H           5.5136    1.7481    0.2736 H       1  UNL1        0.0283
     31 H           3.6859    0.4167    1.9712 H       1  UNL1        0.0401
     32 H           2.2491   -0.8779    0.6725 H       1  UNL1        0.0432
     33 H           3.6032   -1.2208   -0.5113 H       1  UNL1        0.0432
     34 H           0.4285    0.4484    0.1053 H       1  UNL1        0.1490
     35 H          -1.6150   -1.3422   -1.3226 H       1  UNL1        0.0504
     36 H          -1.2112   -1.9622    1.1562 H       1  UNL1        0.0320
     37 H          -0.7763    0.4077    1.8504 H       1  UNL1        0.0271
     38 H          -1.9639   -0.4714    2.8546 H       1  UNL1        0.0271
     39 H          -2.7893    1.7970    2.2662 H       1  UNL1        0.0302
     40 H          -1.1348    1.8601    0.4037 H       1  UNL1        0.0271
     41 H          -2.7831    2.5291   -0.1241 H       1  UNL1        0.0271
     42 H          -1.8738    1.0379   -1.8250 H       1  UNL1        0.0320
     43 H          -3.5420   -0.7394   -1.8918 H       1  UNL1        0.0296
     44 H          -4.2926    0.8721   -1.5148 H       1  UNL1        0.0296
     45 H          -5.7531   -1.3536    0.8668 H       1  UNL1        0.2102
     46 H          -4.7371    1.3745    0.7858 H       1  UNL1        0.0296
     47 H          -4.6603    0.1353    2.0975 H       1  UNL1        0.0296
     48 H          -3.1471   -2.3802   -0.2550 H       1  UNL1        0.0296
     49 H          -3.5512   -2.1185    1.5201 H       1  UNL1        0.0296
@<TRIPOS>BOND
     1     1     2    2
     2     2     3    1
     3     3     4    1
     4     4     5    1
     5     5     6    1
     6     6     7    1
     7     7     8    1
     8     8     9    1
     9     8    10    1
    10     8    11    1
    11     7    12    1
    12     2    13   am
    13    13    14    1
    14    14    15    1
    15    15    16    1
    16    16    17    1
    17    17    18    1
    18    18    19    1
    19    19    20    1
    20    20    21    1
    21    21    22    1
    22    21    23    1
    23    21    24    1
    24    12     4    1
    25    19    14    1
    26    24    15    1
    27    23    17    1
    28     3    25    1
    29     3    26    1
    30     5    27    1
    31     5    28    1
    32     6    29    1
    33     6    30    1
    34     7    31    1
    35    12    32    1
    36    12    33    1
    37    13    34    1
    38    14    35    1
    39    15    36    1
    40    16    37    1
    41    16    38    1
    42    17    39    1
    43    18    40    1
    44    18    41    1
    45    19    42    1
    46    20    43    1
    47    20    44    1
    48    22    45    1
    49    23    46    1
    50    23    47    1
    51    24    48    1
    52    24    49    1
