
     RDKit          3D

 59 61  0  0  0  0  0  0  0  0999 V2000
    0.0554    1.8156    3.5120 C   0  0  0  0  0  0  0  0  0  0  0  0
    0.2133    0.5981    2.7630 O   0  0  0  0  0  0  0  0  0  0  0  0
    1.4039    0.3284    2.1179 C   0  0  0  0  0  0  0  0  0  0  0  0
    2.2838    1.2612    2.2576 O   0  0  0  0  0  0  0  0  0  0  0  0
    1.7219   -0.8294    1.3706 N   0  0  0  0  0  0  0  0  0  0  0  0
    3.1031   -0.8922    0.8886 C   0  0  0  0  0  0  0  0  0  0  0  0
    3.3154   -0.4047   -0.4732 C   0  0  0  0  0  0  0  0  0  0  0  0
    3.5080    0.9150   -0.7875 C   0  0  0  0  0  0  0  0  0  0  0  0
    3.7324    1.3528   -2.1005 C   0  0  0  0  0  0  0  0  0  0  0  0
    3.7670    0.4516   -3.1337 C   0  0  0  0  0  0  0  0  0  0  0  0
    3.5789   -0.8734   -2.8506 C   0  0  0  0  0  0  0  0  0  0  0  0
    3.3610   -1.2843   -1.5626 C   0  0  0  0  0  0  0  0  0  0  0  0
    0.7557   -1.8237    1.0829 C   0  0  0  0  0  0  0  0  0  0  0  0
    0.0286   -1.8727   -0.1739 C   0  0  0  0  0  0  0  0  0  0  0  0
    0.4487   -2.9031   -1.0694 C   0  0  0  0  0  0  0  0  0  0  0  0
   -0.1652   -3.0760   -2.2605 C   0  0  0  0  0  0  0  0  0  0  0  0
    0.2970   -4.1579   -3.1700 C   0  0  0  0  0  0  0  0  0  0  0  0
   -0.1200   -5.3921   -2.6661 F   0  0  0  0  0  0  0  0  0  0  0  0
    1.6874   -4.1617   -3.1730 F   0  0  0  0  0  0  0  0  0  0  0  0
   -0.2270   -4.0254   -4.4323 F   0  0  0  0  0  0  0  0  0  0  0  0
   -1.2136   -2.2480   -2.6206 C   0  0  0  0  0  0  0  0  0  0  0  0
   -1.6191   -1.2571   -1.7610 C   0  0  0  0  0  0  0  0  0  0  0  0
   -0.9922   -1.0536   -0.5055 C   0  0  0  0  0  0  0  0  0  0  0  0
   -1.5473    0.0444    0.2753 C   0  0  0  0  0  0  0  0  0  0  0  0
   -1.1549    1.3466    0.0130 C   0  0  0  0  0  0  0  0  0  0  0  0
   -1.7373    2.4158    0.6978 C   0  0  0  0  0  0  0  0  0  0  0  0
   -1.3546    3.8287    0.4546 C   0  0  0  0  0  0  0  0  0  0  0  0
   -2.1925    4.4326   -0.6121 C   0  0  0  0  0  0  0  0  0  0  0  0
   -3.0722    3.7181   -1.1485 O   0  0  0  0  0  0  0  0  0  0  0  0
   -1.9907    5.7502   -0.9883 O   0  0  0  0  0  0  0  0  0  0  0  0
   -2.7119    2.1794    1.6452 C   0  0  0  0  0  0  0  0  0  0  0  0
   -3.1095    0.8931    1.9163 C   0  0  0  0  0  0  0  0  0  0  0  0
   -2.5215   -0.1313    1.2300 C   0  0  0  0  0  0  0  0  0  0  0  0
   -2.9246   -1.4303    1.5058 O   0  0  0  0  0  0  0  0  0  0  0  0
   -3.9186   -1.7286    2.4682 C   0  0  0  0  0  0  0  0  0  0  0  0
    0.7643    1.8367    4.3663 H   0  0  0  0  0  0  0  0  0  0  0  0
    0.1924    2.6649    2.8243 H   0  0  0  0  0  0  0  0  0  0  0  0
   -0.9639    1.8112    3.9092 H   0  0  0  0  0  0  0  0  0  0  0  0
    3.7335   -0.3658    1.6436 H   0  0  0  0  0  0  0  0  0  0  0  0
    3.4805   -1.9399    0.9108 H   0  0  0  0  0  0  0  0  0  0  0  0
    3.5043    1.6931   -0.0220 H   0  0  0  0  0  0  0  0  0  0  0  0
    3.8778    2.4230   -2.2768 H   0  0  0  0  0  0  0  0  0  0  0  0
    3.9418    0.7870   -4.1639 H   0  0  0  0  0  0  0  0  0  0  0  0
    3.6018   -1.5966   -3.6397 H   0  0  0  0  0  0  0  0  0  0  0  0
    3.2249   -2.3329   -1.2960 H   0  0  0  0  0  0  0  0  0  0  0  0
    1.2073   -2.8274    1.2856 H   0  0  0  0  0  0  0  0  0  0  0  0
    0.0016   -1.7479    1.9603 H   0  0  0  0  0  0  0  0  0  0  0  0
    1.2816   -3.5612   -0.7661 H   0  0  0  0  0  0  0  0  0  0  0  0
   -1.7141   -2.3827   -3.5818 H   0  0  0  0  0  0  0  0  0  0  0  0
   -2.4392   -0.5858   -2.0076 H   0  0  0  0  0  0  0  0  0  0  0  0
   -0.3998    1.5669   -0.7166 H   0  0  0  0  0  0  0  0  0  0  0  0
   -0.2858    3.8487    0.1038 H   0  0  0  0  0  0  0  0  0  0  0  0
   -1.4107    4.4472    1.3693 H   0  0  0  0  0  0  0  0  0  0  0  0
   -2.6575    6.1394   -1.6649 H   0  0  0  0  0  0  0  0  0  0  0  0
   -3.1948    2.9747    2.2033 H   0  0  0  0  0  0  0  0  0  0  0  0
   -3.8685    0.7124    2.6552 H   0  0  0  0  0  0  0  0  0  0  0  0
   -4.8109   -1.0636    2.3156 H   0  0  0  0  0  0  0  0  0  0  0  0
   -3.5176   -1.5032    3.4771 H   0  0  0  0  0  0  0  0  0  0  0  0
   -4.2376   -2.7842    2.4016 H   0  0  0  0  0  0  0  0  0  0  0  0
  1  2  1  0
  2  3  1  0
  3  4  2  0
  3  5  1  0
  5  6  1  0
  6  7  1  0
  7  8  2  0
  8  9  1  0
  9 10  2  0
 10 11  1  0
 11 12  2  0
  5 13  1  0
 13 14  1  0
 14 15  2  0
 15 16  1  0
 16 17  1  0
 17 18  1  0
 17 19  1  0
 17 20  1  0
 16 21  2  0
 21 22  1  0
 22 23  2  0
 23 24  1  0
 24 25  2  0
 25 26  1  0
 26 27  1  0
 27 28  1  0
 28 29  2  0
 28 30  1  0
 26 31  2  0
 31 32  1  0
 32 33  2  0
 33 34  1  0
 34 35  1  0
 12  7  1  0
 23 14  1  0
 33 24  1  0
  1 36  1  0
  1 37  1  0
  1 38  1  0
  6 39  1  0
  6 40  1  0
  8 41  1  0
  9 42  1  0
 10 43  1  0
 11 44  1  0
 12 45  1  0
 13 46  1  0
 13 47  1  0
 15 48  1  0
 21 49  1  0
 22 50  1  0
 25 51  1  0
 27 52  1  0
 27 53  1  0
 30 54  1  0
 31 55  1  0
 32 56  1  0
 35 57  1  0
 35 58  1  0
 35 59  1  0
M  END
$$$$
