@<TRIPOS>MOLECULE
*****
 59 61 0 0 0
SMALL
GASTEIGER

@<TRIPOS>ATOM
      1 C           0.0554    1.8156    3.5120 C.3     1  UNL1        0.0833
      2 O           0.2133    0.5981    2.7630 O.3     1  UNL1       -0.4535
      3 C           1.4039    0.3284    2.1179 C.2     1  UNL1        0.4032
      4 O           2.2838    1.2612    2.2576 O.2     1  UNL1       -0.2262
      5 N           1.7219   -0.8294    1.3706 N.am    1  UNL1       -0.2588
      6 C           3.1031   -0.8922    0.8886 C.3     1  UNL1        0.0432
      7 C           3.3154   -0.4047   -0.4732 C.ar    1  UNL1       -0.0300
      8 C           3.5080    0.9150   -0.7875 C.ar    1  UNL1       -0.0571
      9 C           3.7324    1.3528   -2.1005 C.ar    1  UNL1       -0.0615
     10 C           3.7670    0.4516   -3.1337 C.ar    1  UNL1       -0.0617
     11 C           3.5789   -0.8734   -2.8506 C.ar    1  UNL1       -0.0615
     12 C           3.3610   -1.2843   -1.5626 C.ar    1  UNL1       -0.0571
     13 C           0.7557   -1.8237    1.0829 C.3     1  UNL1        0.0438
     14 C           0.0286   -1.8727   -0.1739 C.ar    1  UNL1       -0.0216
     15 C           0.4487   -2.9031   -1.0694 C.ar    1  UNL1       -0.0449
     16 C          -0.1652   -3.0760   -2.2605 C.ar    1  UNL1        0.0552
     17 C           0.2970   -4.1579   -3.1700 C.3     1  UNL1        0.4174
     18 F          -0.1200   -5.3921   -2.6661 F       1  UNL1       -0.1659
     19 F           1.6874   -4.1617   -3.1730 F       1  UNL1       -0.1659
     20 F          -0.2270   -4.0254   -4.4323 F       1  UNL1       -0.1659
     21 C          -1.2136   -2.2480   -2.6206 C.ar    1  UNL1       -0.0495
     22 C          -1.6191   -1.2571   -1.7610 C.ar    1  UNL1       -0.0531
     23 C          -0.9922   -1.0536   -0.5055 C.ar    1  UNL1       -0.0097
     24 C          -1.5473    0.0444    0.2753 C.ar    1  UNL1        0.0244
     25 C          -1.1549    1.3466    0.0130 C.ar    1  UNL1       -0.0468
     26 C          -1.7373    2.4158    0.6978 C.ar    1  UNL1       -0.0360
     27 C          -1.3546    3.8287    0.4546 C.3     1  UNL1        0.0699
     28 C          -2.1925    4.4326   -0.6121 C.2     1  UNL1        0.3091
     29 O          -3.0722    3.7181   -1.1485 O.2     1  UNL1       -0.2507
     30 O          -1.9907    5.7502   -0.9883 O.3     1  UNL1       -0.4804
     31 C          -2.7119    2.1794    1.6452 C.ar    1  UNL1       -0.0546
     32 C          -3.1095    0.8931    1.9163 C.ar    1  UNL1       -0.0191
     33 C          -2.5215   -0.1313    1.2300 C.ar    1  UNL1        0.1278
     34 O          -2.9246   -1.4303    1.5058 O.3     1  UNL1       -0.4945
     35 C          -3.9186   -1.7286    2.4682 C.3     1  UNL1        0.0788
     36 H           0.7643    1.8367    4.3663 H       1  UNL1        0.0661
     37 H           0.1924    2.6649    2.8243 H       1  UNL1        0.0661
     38 H          -0.9639    1.8112    3.9092 H       1  UNL1        0.0661
     39 H           3.7335   -0.3658    1.6436 H       1  UNL1        0.0515
     40 H           3.4805   -1.9399    0.9108 H       1  UNL1        0.0515
     41 H           3.5043    1.6931   -0.0220 H       1  UNL1        0.0621
     42 H           3.8778    2.4230   -2.2768 H       1  UNL1        0.0618
     43 H           3.9418    0.7870   -4.1639 H       1  UNL1        0.0618
     44 H           3.6018   -1.5966   -3.6397 H       1  UNL1        0.0618
     45 H           3.2249   -2.3329   -1.2960 H       1  UNL1        0.0621
     46 H           1.2073   -2.8274    1.2856 H       1  UNL1        0.0515
     47 H           0.0016   -1.7479    1.9603 H       1  UNL1        0.0515
     48 H           1.2816   -3.5612   -0.7661 H       1  UNL1        0.0626
     49 H          -1.7141   -2.3827   -3.5818 H       1  UNL1        0.0623
     50 H          -2.4392   -0.5858   -2.0076 H       1  UNL1        0.0624
     51 H          -0.3998    1.5669   -0.7166 H       1  UNL1        0.0628
     52 H          -0.2858    3.8487    0.1038 H       1  UNL1        0.0426
     53 H          -1.4107    4.4472    1.3693 H       1  UNL1        0.0426
     54 H          -2.6575    6.1394   -1.6649 H       1  UNL1        0.2951
     55 H          -3.1948    2.9747    2.2033 H       1  UNL1        0.0622
     56 H          -3.8685    0.7124    2.6552 H       1  UNL1        0.0654
     57 H          -4.8109   -1.0636    2.3156 H       1  UNL1        0.0660
     58 H          -3.5176   -1.5032    3.4771 H       1  UNL1        0.0660
     59 H          -4.2376   -2.7842    2.4016 H       1  UNL1        0.0660
@<TRIPOS>BOND
     1     1     2    1
     2     2     3    1
     3     3     4    2
     4     3     5   am
     5     5     6    1
     6     6     7    1
     7     7     8   ar
     8     8     9   ar
     9     9    10   ar
    10    10    11   ar
    11    11    12   ar
    12     5    13    1
    13    13    14    1
    14    14    15   ar
    15    15    16   ar
    16    16    17    1
    17    17    18    1
    18    17    19    1
    19    17    20    1
    20    16    21   ar
    21    21    22   ar
    22    22    23   ar
    23    23    24    1
    24    24    25   ar
    25    25    26   ar
    26    26    27    1
    27    27    28    1
    28    28    29    2
    29    28    30    1
    30    26    31   ar
    31    31    32   ar
    32    32    33   ar
    33    33    34    1
    34    34    35    1
    35    12     7   ar
    36    23    14   ar
    37    33    24   ar
    38     1    36    1
    39     1    37    1
    40     1    38    1
    41     6    39    1
    42     6    40    1
    43     8    41    1
    44     9    42    1
    45    10    43    1
    46    11    44    1
    47    12    45    1
    48    13    46    1
    49    13    47    1
    50    15    48    1
    51    21    49    1
    52    22    50    1
    53    25    51    1
    54    27    52    1
    55    27    53    1
    56    30    54    1
    57    31    55    1
    58    32    56    1
    59    35    57    1
    60    35    58    1
    61    35    59    1
