
     RDKit          3D

 62 66  0  0  0  0  0  0  0  0999 V2000
    7.7209    1.0035   -0.8669 N   0  0  0  0  0  0  0  0  0  0  0  0
    7.9581   -0.3846   -0.6903 C   0  0  0  0  0  0  0  0  0  0  0  0
    6.7939   -1.1725   -0.1882 C   0  0  0  0  0  0  0  0  0  0  0  0
    5.5982   -1.1113   -1.1075 C   0  0  0  0  0  0  0  0  0  0  0  0
    4.4046   -0.4260   -0.4502 C   0  0  0  0  0  0  0  0  0  0  0  0
    4.0560   -1.0794    0.7685 N   0  0  0  0  0  0  0  0  0  0  0  0
    2.8467   -1.8726    0.6686 C   0  0  0  0  0  0  0  0  0  0  0  0
    1.6842   -1.0081    0.4987 C   0  0  0  0  0  0  0  0  0  0  0  0
    0.6579   -1.7053    0.4117 O   0  0  0  0  0  0  0  0  0  0  0  0
    1.2240    0.2858    0.3899 N   0  0  0  0  0  0  0  0  0  0  0  0
    0.4612    1.4378    0.2515 C   0  0  0  0  0  0  0  0  0  0  0  0
    1.1412    2.6246    0.3483 C   0  0  0  0  0  0  0  0  0  0  0  0
    0.4447    3.7778    0.2239 C   0  0  0  0  0  0  0  0  0  0  0  0
   -0.8977    3.7378    0.0079 C   0  0  0  0  0  0  0  0  0  0  0  0
   -1.6205    2.5857   -0.0964 C   0  0  0  0  0  0  0  0  0  0  0  0
   -0.8905    1.4293    0.0336 C   0  0  0  0  0  0  0  0  0  0  0  0
   -1.9064    0.4100   -0.1235 C   0  0  0  0  0  0  0  0  0  0  0  0
   -1.8025   -0.8071   -0.0962 O   0  0  0  0  0  0  0  0  0  0  0  0
   -3.2174    1.0295   -0.3431 C   0  0  0  0  0  0  0  0  0  0  0  0
   -4.5629    0.8351   -0.5599 C   0  0  0  0  0  0  0  0  0  0  0  0
   -5.1697    2.0267   -0.6686 N   0  0  0  0  0  0  0  0  0  0  0  0
   -4.2279    2.9733   -0.5240 N   0  0  0  0  0  0  0  0  0  0  0  0
   -3.0390    2.3810   -0.3258 C   0  0  0  0  0  0  0  0  0  0  0  0
   -5.2671   -0.4869   -0.6636 C   0  0  0  0  0  0  0  0  0  0  0  0
   -5.7414   -0.9535    0.6776 C   0  0  0  0  0  0  0  0  0  0  0  0
   -6.9649   -1.8400    0.4194 C   0  0  0  0  0  0  0  0  0  0  0  0
   -8.0625   -0.9158   -0.0142 C   0  0  0  0  0  0  0  0  0  0  0  0
   -7.7031   -0.2989   -1.3306 C   0  0  0  0  0  0  0  0  0  0  0  0
   -6.2894   -0.5022   -1.7482 C   0  0  0  0  0  0  0  0  0  0  0  0
    5.1249   -1.7087    1.4749 C   0  0  0  0  0  0  0  0  0  0  0  0
    6.4104   -0.9048    1.2291 C   0  0  0  0  0  0  0  0  0  0  0  0
    8.6101    1.5720   -0.8054 H   0  0  0  0  0  0  0  0  0  0  0  0
    7.0965    1.4391   -0.1533 H   0  0  0  0  0  0  0  0  0  0  0  0
    8.8382   -0.5454   -0.0413 H   0  0  0  0  0  0  0  0  0  0  0  0
    8.2208   -0.8157   -1.6955 H   0  0  0  0  0  0  0  0  0  0  0  0
    7.1241   -2.2541   -0.2126 H   0  0  0  0  0  0  0  0  0  0  0  0
    5.8417   -0.6020   -2.0704 H   0  0  0  0  0  0  0  0  0  0  0  0
    5.2147   -2.1269   -1.3988 H   0  0  0  0  0  0  0  0  0  0  0  0
    4.5418    0.6627   -0.3389 H   0  0  0  0  0  0  0  0  0  0  0  0
    3.5796   -0.5355   -1.2041 H   0  0  0  0  0  0  0  0  0  0  0  0
    2.6834   -2.4748    1.5852 H   0  0  0  0  0  0  0  0  0  0  0  0
    2.8925   -2.5625   -0.2041 H   0  0  0  0  0  0  0  0  0  0  0  0
    2.2725    0.5016    0.4994 H   0  0  0  0  0  0  0  0  0  0  0  0
    2.2082    2.7442    0.5198 H   0  0  0  0  0  0  0  0  0  0  0  0
    0.9611    4.7090    0.2957 H   0  0  0  0  0  0  0  0  0  0  0  0
   -1.3954    4.6856   -0.0814 H   0  0  0  0  0  0  0  0  0  0  0  0
   -6.1632    2.2927   -0.8320 H   0  0  0  0  0  0  0  0  0  0  0  0
   -4.4677   -1.2215   -0.9878 H   0  0  0  0  0  0  0  0  0  0  0  0
   -6.0710   -0.1248    1.3463 H   0  0  0  0  0  0  0  0  0  0  0  0
   -4.9545   -1.5552    1.1957 H   0  0  0  0  0  0  0  0  0  0  0  0
   -7.2256   -2.4310    1.3104 H   0  0  0  0  0  0  0  0  0  0  0  0
   -6.7657   -2.5430   -0.4273 H   0  0  0  0  0  0  0  0  0  0  0  0
   -8.1892   -0.1307    0.7703 H   0  0  0  0  0  0  0  0  0  0  0  0
   -9.0179   -1.4715   -0.0530 H   0  0  0  0  0  0  0  0  0  0  0  0
   -7.9447    0.8011   -1.3597 H   0  0  0  0  0  0  0  0  0  0  0  0
   -8.3391   -0.7133   -2.1653 H   0  0  0  0  0  0  0  0  0  0  0  0
   -6.0484    0.3364   -2.4659 H   0  0  0  0  0  0  0  0  0  0  0  0
   -6.2074   -1.4149   -2.4034 H   0  0  0  0  0  0  0  0  0  0  0  0
    4.9201   -1.6281    2.5663 H   0  0  0  0  0  0  0  0  0  0  0  0
    5.2890   -2.7765    1.1859 H   0  0  0  0  0  0  0  0  0  0  0  0
    6.1364    0.1353    1.4450 H   0  0  0  0  0  0  0  0  0  0  0  0
    7.1952   -1.3126    1.8947 H   0  0  0  0  0  0  0  0  0  0  0  0
  1  2  1  0
  2  3  1  0
  3  4  1  0
  4  5  1  0
  5  6  1  0
  6  7  1  0
  7  8  1  0
  8  9  2  0
  8 10  1  0
 10 11  1  0
 11 12  2  0
 12 13  1  0
 13 14  2  0
 14 15  1  0
 15 16  2  0
 16 17  1  0
 17 18  2  0
 17 19  1  0
 19 20  2  0
 20 21  1  0
 21 22  1  0
 22 23  2  0
 20 24  1  0
 24 25  1  0
 25 26  1  0
 26 27  1  0
 27 28  1  0
 28 29  1  0
  6 30  1  0
 30 31  1  0
 31  3  1  0
 16 11  1  0
 23 19  1  0
 29 24  1  0
 23 15  1  0
  1 32  1  0
  1 33  1  0
  2 34  1  0
  2 35  1  0
  3 36  1  0
  4 37  1  0
  4 38  1  0
  5 39  1  0
  5 40  1  0
  7 41  1  0
  7 42  1  0
 10 43  1  0
 12 44  1  0
 13 45  1  0
 14 46  1  0
 21 47  1  0
 24 48  1  0
 25 49  1  0
 25 50  1  0
 26 51  1  0
 26 52  1  0
 27 53  1  0
 27 54  1  0
 28 55  1  0
 28 56  1  0
 29 57  1  0
 29 58  1  0
 30 59  1  0
 30 60  1  0
 31 61  1  0
 31 62  1  0
M  END
$$$$
