@<TRIPOS>MOLECULE
*****
 27 28 0 0 0
SMALL
GASTEIGER

@<TRIPOS>ATOM
      1 C          -1.3916   -2.2858   -0.2959 C.3     1  UNL1       -0.0572
      2 C          -1.0665   -0.8401   -0.3595 C.3     1  UNL1       -0.0059
      3 C          -1.8624    0.0354    0.5494 C.3     1  UNL1        0.0025
      4 N          -2.0358    1.3455   -0.0471 N.3     1  UNL1       -0.3151
      5 C          -0.9416    2.2508    0.2238 C.3     1  UNL1       -0.0001
      6 C           0.2312    2.0292   -0.7393 C.3     1  UNL1       -0.0148
      7 C           0.9032    0.7378   -0.3491 C.ar    1  UNL1       -0.0426
      8 C           2.2638    0.8782   -0.1412 C.ar    1  UNL1       -0.0569
      9 C           3.0721   -0.1849    0.2246 C.ar    1  UNL1       -0.0431
     10 C           2.4832   -1.4218    0.3832 C.ar    1  UNL1        0.0413
     11 CL          3.4990   -2.7757    0.8466 Cl      1  UNL1       -0.0835
     12 C           1.1165   -1.6238    0.1872 C.ar    1  UNL1       -0.0396
     13 C           0.3579   -0.5206   -0.1783 C.ar    1  UNL1       -0.0387
     14 H          -2.4677   -2.3797   -0.6231 H       1  UNL1        0.0236
     15 H          -1.3604   -2.7501    0.6943 H       1  UNL1        0.0236
     16 H          -0.8222   -2.8010   -1.0871 H       1  UNL1        0.0236
     17 H          -1.3260   -0.5080   -1.4073 H       1  UNL1        0.0359
     18 H          -1.3873    0.0779    1.5526 H       1  UNL1        0.0430
     19 H          -2.8754   -0.4206    0.6755 H       1  UNL1        0.0430
     20 H          -2.8779    1.7845    0.4307 H       1  UNL1        0.1220
     21 H          -0.5271    2.1170    1.2599 H       1  UNL1        0.0427
     22 H          -1.2827    3.2869    0.1109 H       1  UNL1        0.0427
     23 H          -0.1733    1.9563   -1.7663 H       1  UNL1        0.0326
     24 H           0.9440    2.8506   -0.5831 H       1  UNL1        0.0326
     25 H           2.7303    1.8491   -0.2649 H       1  UNL1        0.0621
     26 H           4.1357   -0.0877    0.3897 H       1  UNL1        0.0632
     27 H           0.6610   -2.5993    0.3139 H       1  UNL1        0.0635
@<TRIPOS>BOND
     1     1     2    1
     2     2     3    1
     3     3     4    1
     4     4     5    1
     5     5     6    1
     6     6     7    1
     7     7     8   ar
     8     8     9   ar
     9     9    10   ar
    10    10    11    1
    11    10    12   ar
    12    12    13   ar
    13    13     2    1
    14    13     7   ar
    15     1    14    1
    16     1    15    1
    17     1    16    1
    18     2    17    1
    19     3    18    1
    20     3    19    1
    21     4    20    1
    22     5    21    1
    23     5    22    1
    24     6    23    1
    25     6    24    1
    26     8    25    1
    27     9    26    1
    28    12    27    1
