@<TRIPOS>MOLECULE
*****
 31 32 0 0 0
SMALL
GASTEIGER

@<TRIPOS>ATOM
      1 C          -4.6114   -0.6158   -0.0806 C.3     1  UNL1       -0.0641
      2 C          -3.4245    0.2292   -0.4988 C.3     1  UNL1       -0.0433
      3 C          -2.4153    0.2337    0.6354 C.3     1  UNL1       -0.0041
      4 N          -1.2619    1.0166    0.3263 N.3     1  UNL1       -0.3129
      5 C          -0.4044    0.4932   -0.6996 C.3     1  UNL1        0.0125
      6 C           0.7123    1.5062   -0.9587 C.3     1  UNL1       -0.0318
      7 C           1.7260    1.5088    0.1767 C.3     1  UNL1       -0.0081
      8 C           2.5149    0.2487    0.0275 C.ar    1  UNL1        0.0538
      9 C           1.6466   -0.7734   -0.2151 C.ar    1  UNL1        0.0157
     10 C           0.2088   -0.8325   -0.3343 C.3     1  UNL1       -0.0041
     11 S           2.7905   -2.1598   -0.3677 S.2     1  UNL1       -0.0573
     12 C           4.3060   -1.0514   -0.0613 C.ar    1  UNL1        0.1560
     13 N           5.7105   -1.4872   -0.0312 N.pl3   1  UNL1       -0.3375
     14 N           3.8153   -0.0162    0.0805 N.ar    1  UNL1       -0.2298
     15 H          -5.1450   -0.0950    0.7393 H       1  UNL1        0.0230
     16 H          -4.2943   -1.6286    0.2029 H       1  UNL1        0.0230
     17 H          -5.2860   -0.7117   -0.9803 H       1  UNL1        0.0230
     18 H          -2.9857   -0.2846   -1.3897 H       1  UNL1        0.0275
     19 H          -3.8045    1.2457   -0.7397 H       1  UNL1        0.0275
     20 H          -2.2157   -0.8246    0.8818 H       1  UNL1        0.0424
     21 H          -2.9290    0.6971    1.5054 H       1  UNL1        0.0424
     22 H          -0.7442    1.1557    1.2434 H       1  UNL1        0.1222
     23 H          -0.9900    0.4383   -1.6359 H       1  UNL1        0.0464
     24 H           0.2495    2.4930   -1.0453 H       1  UNL1        0.0284
     25 H           1.1912    1.2148   -1.8951 H       1  UNL1        0.0284
     26 H           1.2498    1.5339    1.1582 H       1  UNL1        0.0329
     27 H           2.3432    2.4210   -0.0022 H       1  UNL1        0.0329
     28 H          -0.0820   -1.5901   -1.1111 H       1  UNL1        0.0334
     29 H          -0.2362   -1.1834    0.6163 H       1  UNL1        0.0334
     30 H           6.0687   -2.2857    0.5436 H       1  UNL1        0.1442
     31 H           6.2966   -0.8963   -0.6534 H       1  UNL1        0.1442
@<TRIPOS>BOND
     1     1     2    1
     2     2     3    1
     3     3     4    1
     4     4     5    1
     5     5     6    1
     6     6     7    1
     7     7     8    1
     8     8     9   ar
     9     9    10    1
    10     9    11   ar
    11    11    12   ar
    12    12    13    1
    13    12    14   ar
    14    10     5    1
    15    14     8   ar
    16     1    15    1
    17     1    16    1
    18     1    17    1
    19     2    18    1
    20     2    19    1
    21     3    20    1
    22     3    21    1
    23     4    22    1
    24     5    23    1
    25     6    24    1
    26     6    25    1
    27     7    26    1
    28     7    27    1
    29    10    28    1
    30    10    29    1
    31    13    30    1
    32    13    31    1
