@<TRIPOS>MOLECULE
*****
 87 93 0 0 0
SMALL
GASTEIGER

@<TRIPOS>ATOM
      1 C          12.3129    2.5299    1.0660 C.3     1  UNL1       -0.0634
      2 C          12.3484    1.0349    1.2996 C.3     1  UNL1       -0.0334
      3 C          11.5180    0.3023    0.2820 C.3     1  UNL1        0.0548
      4 C          11.5880   -1.1860    0.5547 C.3     1  UNL1       -0.0424
      5 N          10.1362    0.7393    0.2388 N.ar    1  UNL1       -0.2101
      6 N           9.7297    1.9398    0.5805 N.ar    1  UNL1       -0.1566
      7 C           8.3737    1.9811    0.4132 C.ar    1  UNL1        0.1251
      8 N           7.9280    0.7960   -0.0375 N.ar    1  UNL1       -0.2501
      9 C           6.6125    0.3639   -0.3534 C.ar    1  UNL1        0.0525
     10 C           6.1424   -0.8742    0.0504 C.ar    1  UNL1       -0.0359
     11 C           4.8671   -1.2847   -0.2692 C.ar    1  UNL1       -0.0387
     12 C           4.0038   -0.4826   -1.0037 C.ar    1  UNL1        0.0299
     13 N           2.7001   -0.9303   -1.3362 N.pl3   1  UNL1       -0.3269
     14 C           2.2991   -2.3018   -0.9934 C.3     1  UNL1        0.0280
     15 C           0.8602   -2.5512   -1.4008 C.3     1  UNL1        0.0280
     16 N          -0.0021   -1.4803   -0.9747 N.pl3   1  UNL1       -0.3269
     17 C          -1.2905   -1.6621   -0.3728 C.ar    1  UNL1        0.0300
     18 C          -2.0480   -0.5669   -0.0110 C.ar    1  UNL1       -0.0372
     19 C          -3.3074   -0.7253    0.5759 C.ar    1  UNL1       -0.0182
     20 C          -3.8661   -1.9515    0.8271 C.ar    1  UNL1        0.1207
     21 O          -5.0912   -2.1448    1.3922 O.3     1  UNL1       -0.4893
     22 C          -6.0808   -1.3222    1.8249 C.3     1  UNL1        0.1179
     23 C          -6.7066   -0.4858    0.7432 C.3     1  UNL1        0.1195
     24 C          -7.5721   -1.3821   -0.1803 C.3     1  UNL1        0.0808
     25 O          -8.2726   -0.3726   -0.8282 O.3     1  UNL1       -0.3406
     26 C          -8.3523    0.7200    0.0025 C.3     1  UNL1        0.2186
     27 C          -9.8214    0.9996    0.2727 C.3     1  UNL1        0.1018
     28 N         -10.3858   -0.1616    0.9065 N.ar    1  UNL1       -0.2465
     29 C         -10.9702   -1.2401    0.3679 C.ar    1  UNL1        0.1145
     30 N         -11.3515   -2.0733    1.3470 N.ar    1  UNL1       -0.2228
     31 C         -11.0024   -1.5100    2.5039 C.ar    1  UNL1        0.1379
     32 N         -10.4081   -0.3340    2.2297 N.ar    1  UNL1       -0.1582
     33 C          -7.6282    1.9193   -0.4818 C.ar    1  UNL1        0.0313
     34 C          -6.6533    2.5175    0.2898 C.ar    1  UNL1       -0.0507
     35 C          -5.9646    3.6577   -0.0970 C.ar    1  UNL1       -0.0429
     36 C          -6.2360    4.2461   -1.2913 C.ar    1  UNL1        0.0424
     37 CL         -5.3696    5.6815   -1.7740 Cl      1  UNL1       -0.0835
     38 C          -7.2051    3.6738   -2.0871 C.ar    1  UNL1       -0.0246
     39 C          -7.8926    2.5295   -1.6934 C.ar    1  UNL1        0.0507
     40 CL         -9.0863    1.8677   -2.7526 Cl      1  UNL1       -0.0830
     41 O          -7.7133    0.3469    1.2159 O.3     1  UNL1       -0.3342
     42 C          -3.0913   -3.0655    0.4580 C.ar    1  UNL1       -0.0182
     43 C          -1.8516   -2.8889   -0.1193 C.ar    1  UNL1       -0.0372
     44 C           0.4555   -0.0938   -1.1598 C.3     1  UNL1        0.0280
     45 C           1.7358   -0.1103   -2.0027 C.3     1  UNL1        0.0280
     46 C           4.4644    0.7318   -1.3996 C.ar    1  UNL1       -0.0387
     47 C           5.7486    1.1419   -1.0762 C.ar    1  UNL1       -0.0359
     48 C           9.0556    0.0242   -0.1417 C.ar    1  UNL1        0.3513
     49 O           9.0402   -1.1592   -0.5345 O.2     1  UNL1       -0.2444
     50 H          12.1143    2.7692   -0.0215 H       1  UNL1        0.0230
     51 H          11.6129    3.0653    1.7110 H       1  UNL1        0.0230
     52 H          13.3241    2.9520    1.2525 H       1  UNL1        0.0230
     53 H          11.9738    0.8718    2.3333 H       1  UNL1        0.0283
     54 H          13.3962    0.7080    1.1641 H       1  UNL1        0.0283
     55 H          11.9948    0.4745   -0.7068 H       1  UNL1        0.0544
     56 H          10.9804   -1.5063    1.4007 H       1  UNL1        0.0250
     57 H          11.3041   -1.7170   -0.3986 H       1  UNL1        0.0250
     58 H          12.6409   -1.4293    0.7534 H       1  UNL1        0.0250
     59 H           7.7438    2.8278    0.6085 H       1  UNL1        0.1052
     60 H           6.8186   -1.5020    0.6258 H       1  UNL1        0.0639
     61 H           4.5001   -2.2533    0.0470 H       1  UNL1        0.0637
     62 H           2.3946   -2.4801    0.0932 H       1  UNL1        0.0479
     63 H           2.9319   -3.0420   -1.5226 H       1  UNL1        0.0479
     64 H           0.5266   -3.5221   -1.0424 H       1  UNL1        0.0479
     65 H           0.8598   -2.5454   -2.5321 H       1  UNL1        0.0479
     66 H          -1.6629    0.4383   -0.1813 H       1  UNL1        0.0637
     67 H          -3.8450    0.1667    0.8525 H       1  UNL1        0.0655
     68 H          -5.7043   -0.6080    2.5991 H       1  UNL1        0.0723
     69 H          -6.8961   -1.9686    2.2658 H       1  UNL1        0.0723
     70 H          -6.0216    0.0895    0.1379 H       1  UNL1        0.0654
     71 H          -6.9382   -1.9669   -0.8658 H       1  UNL1        0.0588
     72 H          -8.1894   -2.0175    0.4573 H       1  UNL1        0.0588
     73 H          -9.9900    1.9291    0.8529 H       1  UNL1        0.0567
     74 H         -10.3202    1.1133   -0.6945 H       1  UNL1        0.0567
     75 H         -11.1217   -1.4331   -0.6816 H       1  UNL1        0.1044
     76 H         -11.1582   -1.9088    3.5008 H       1  UNL1        0.1065
     77 H          -6.4069    2.0856    1.2747 H       1  UNL1        0.0623
     78 H          -5.2223    4.0438    0.5809 H       1  UNL1        0.0632
     79 H          -7.4154    4.1436   -3.0298 H       1  UNL1        0.0647
     80 H          -3.5146   -4.0430    0.6480 H       1  UNL1        0.0655
     81 H          -1.2733   -3.7776   -0.3972 H       1  UNL1        0.0637
     82 H          -0.3213    0.5215   -1.6601 H       1  UNL1        0.0479
     83 H           0.7241    0.2744   -0.1564 H       1  UNL1        0.0479
     84 H           2.0352    0.9205   -2.2128 H       1  UNL1        0.0479
     85 H           1.4395   -0.6529   -2.9429 H       1  UNL1        0.0479
     86 H           3.8928    1.4429   -1.9739 H       1  UNL1        0.0637
     87 H           6.0938    2.1322   -1.4100 H       1  UNL1        0.0639
@<TRIPOS>BOND
     1     1     2    1
     2     2     3    1
     3     3     4    1
     4     3     5    1
     5     5     6   ar
     6     6     7   ar
     7     7     8   ar
     8     8     9    1
     9     9    10   ar
    10    10    11   ar
    11    11    12   ar
    12    12    13    1
    13    13    14    1
    14    14    15    1
    15    15    16    1
    16    16    17    1
    17    17    18   ar
    18    18    19   ar
    19    19    20   ar
    20    20    21    1
    21    21    22    1
    22    22    23    1
    23    23    24    1
    24    24    25    1
    25    25    26    1
    26    26    27    1
    27    27    28    1
    28    28    29   ar
    29    29    30   ar
    30    30    31   ar
    31    31    32   ar
    32    26    33    1
    33    33    34   ar
    34    34    35   ar
    35    35    36   ar
    36    36    37    1
    37    36    38   ar
    38    38    39   ar
    39    39    40    1
    40    26    41    1
    41    20    42   ar
    42    42    43   ar
    43    16    44    1
    44    44    45    1
    45    12    46   ar
    46    46    47   ar
    47     8    48   ar
    48    48    49    2
    49    48     5   ar
    50    47     9   ar
    51    45    13    1
    52    43    17   ar
    53    41    23    1
    54    32    28   ar
    55    39    33   ar
    56     1    50    1
    57     1    51    1
    58     1    52    1
    59     2    53    1
    60     2    54    1
    61     3    55    1
    62     4    56    1
    63     4    57    1
    64     4    58    1
    65     7    59    1
    66    10    60    1
    67    11    61    1
    68    14    62    1
    69    14    63    1
    70    15    64    1
    71    15    65    1
    72    18    66    1
    73    19    67    1
    74    22    68    1
    75    22    69    1
    76    23    70    1
    77    24    71    1
    78    24    72    1
    79    27    73    1
    80    27    74    1
    81    29    75    1
    82    31    76    1
    83    34    77    1
    84    35    78    1
    85    38    79    1
    86    42    80    1
    87    43    81    1
    88    44    82    1
    89    44    83    1
    90    45    84    1
    91    45    85    1
    92    46    86    1
    93    47    87    1
