@<TRIPOS>MOLECULE
*****
 81 87 0 0 0
SMALL
GASTEIGER

@<TRIPOS>ATOM
      1 C          -8.3621   -5.0877    3.1556 C.3     1  UNL1        0.0788
      2 O          -8.2739   -4.8325    1.7673 O.3     1  UNL1       -0.4951
      3 C          -7.7353   -3.6156    1.3311 C.ar    1  UNL1        0.1202
      4 C          -7.2914   -2.6668    2.2272 C.ar    1  UNL1       -0.0179
      5 C          -6.7572   -1.4598    1.8025 C.ar    1  UNL1       -0.0327
      6 C          -6.6483   -1.1595    0.4610 C.ar    1  UNL1        0.0677
      7 N          -6.1070    0.0712   -0.0233 N.ar    1  UNL1       -0.2181
      8 N          -6.7488    1.1739   -0.3559 N.ar    1  UNL1       -0.1691
      9 C          -5.9321    2.1436   -0.7734 C.ar    1  UNL1        0.0706
     10 C          -6.3016    3.5321   -1.2286 C.3     1  UNL1        0.0063
     11 C          -5.0412    4.2635   -1.6203 C.3     1  UNL1       -0.0546
     12 C          -6.9603    4.1871   -0.0206 C.3     1  UNL1       -0.0546
     13 C          -7.3317    3.5005   -2.3346 C.3     1  UNL1       -0.0546
     14 C          -4.6587    1.6214   -0.7038 C.ar    1  UNL1        0.0021
     15 C          -4.7921    0.3337   -0.2353 C.ar    1  UNL1        0.1299
     16 N          -3.7494   -0.5982    0.0038 N.am    1  UNL1       -0.2538
     17 C          -2.3906   -0.3274   -0.2082 C.2     1  UNL1        0.3092
     18 O          -2.0174    0.7963   -0.6400 O.2     1  UNL1       -0.2521
     19 N          -1.3604   -1.2888    0.0469 N.am    1  UNL1       -0.2686
     20 C          -0.0164   -0.9745   -0.1781 C.ar    1  UNL1        0.0427
     21 C           0.5573   -1.2211   -1.3930 C.ar    1  UNL1       -0.0363
     22 C           1.8627   -0.9098   -1.6176 C.ar    1  UNL1       -0.0169
     23 C           2.6682   -0.3357   -0.6441 C.ar    1  UNL1        0.1381
     24 O           3.9264   -0.0053   -0.7723 O.3     1  UNL1       -0.4373
     25 C           4.9930    0.0465   -1.5116 C.ar    1  UNL1        0.2249
     26 C           5.1580   -0.3984   -2.8226 C.ar    1  UNL1        0.0186
     27 C           6.3417   -0.2929   -3.5136 C.ar    1  UNL1        0.0362
     28 N           7.3917    0.2644   -2.9018 N.ar    1  UNL1       -0.2225
     29 C           7.2770    0.7132   -1.6222 C.ar    1  UNL1        0.2226
     30 N           8.4582    1.2923   -1.0659 N.pl3   1  UNL1       -0.2835
     31 C           9.3651    0.4942   -0.3101 C.ar    1  UNL1        0.0343
     32 C           9.1405   -0.8421   -0.0687 C.ar    1  UNL1       -0.0384
     33 C          10.0324   -1.5604    0.6596 C.ar    1  UNL1       -0.0345
     34 C          11.1723   -1.0069    1.1785 C.ar    1  UNL1        0.0658
     35 N          12.2262   -1.4201    1.9178 N.ar    1  UNL1       -0.2770
     36 N          13.0594   -0.4144    2.1289 N.ar    1  UNL1       -0.1812
     37 C          12.5828    0.6890    1.5377 C.ar    1  UNL1        0.0569
     38 C          11.3965    0.3486    0.9314 C.ar    1  UNL1        0.0212
     39 C          10.5004    1.0760    0.1980 C.ar    1  UNL1       -0.0298
     40 N           6.1388    0.6066   -0.9707 N.ar    1  UNL1       -0.1789
     41 C           2.0154   -0.0976    0.6151 C.ar    1  UNL1        0.0262
     42 C           2.7881    0.4719    1.6095 C.ar    1  UNL1       -0.0505
     43 C           2.2005    0.7147    2.8312 C.ar    1  UNL1       -0.0611
     44 C           0.8792    0.4042    3.0719 C.ar    1  UNL1       -0.0611
     45 C           0.1129   -0.1646    2.0738 C.ar    1  UNL1       -0.0521
     46 C           0.7187   -0.4033    0.8490 C.ar    1  UNL1        0.0069
     47 C          -7.0945   -2.1141   -0.4304 C.ar    1  UNL1       -0.0327
     48 C          -7.6262   -3.3151   -0.0100 C.ar    1  UNL1       -0.0179
     49 H          -8.7291   -6.1115    3.3303 H       1  UNL1        0.0660
     50 H          -8.9338   -4.3088    3.7027 H       1  UNL1        0.0660
     51 H          -7.3269   -5.0621    3.6002 H       1  UNL1        0.0660
     52 H          -7.3820   -2.9137    3.2901 H       1  UNL1        0.0655
     53 H          -6.4195   -0.7407    2.5364 H       1  UNL1        0.0640
     54 H          -4.4809    3.6052   -2.3396 H       1  UNL1        0.0239
     55 H          -5.3087    5.1797   -2.1844 H       1  UNL1        0.0239
     56 H          -4.4587    4.4731   -0.7032 H       1  UNL1        0.0239
     57 H          -6.2138    4.4766    0.7462 H       1  UNL1        0.0239
     58 H          -7.5756    5.0542   -0.3372 H       1  UNL1        0.0239
     59 H          -7.6621    3.4279    0.4130 H       1  UNL1        0.0239
     60 H          -6.8791    3.5787   -3.3441 H       1  UNL1        0.0239
     61 H          -8.0146    2.6466   -2.2296 H       1  UNL1        0.0239
     62 H          -7.9723    4.4225   -2.2201 H       1  UNL1        0.0239
     63 H          -3.7913    2.1929   -0.9847 H       1  UNL1        0.0671
     64 H          -3.9785   -1.5545    0.3630 H       1  UNL1        0.1578
     65 H          -1.6554   -2.2174    0.4020 H       1  UNL1        0.1564
     66 H          -0.0375   -1.6642   -2.1679 H       1  UNL1        0.0637
     67 H           2.3027   -1.1107   -2.5883 H       1  UNL1        0.0655
     68 H           4.3416   -0.8535   -3.3528 H       1  UNL1        0.0686
     69 H           6.4577   -0.6395   -4.5251 H       1  UNL1        0.0832
     70 H           8.6616    2.3018   -1.2105 H       1  UNL1        0.1550
     71 H           8.2279   -1.2679   -0.4888 H       1  UNL1        0.0637
     72 H           9.8512   -2.6122    0.8471 H       1  UNL1        0.0639
     73 H          12.3563   -2.3986    2.2693 H       1  UNL1        0.1889
     74 H          13.0417    1.6608    1.5369 H       1  UNL1        0.0854
     75 H          10.6898    2.1187    0.0176 H       1  UNL1        0.0643
     76 H           3.8179    0.7075    1.4026 H       1  UNL1        0.0625
     77 H           2.7855    1.1624    3.6334 H       1  UNL1        0.0618
     78 H           0.4247    0.5939    4.0225 H       1  UNL1        0.0618
     79 H          -0.9189   -0.4354    2.1791 H       1  UNL1        0.0624
     80 H          -7.0102   -1.8802   -1.5024 H       1  UNL1        0.0640
     81 H          -7.9764   -4.0637   -0.7221 H       1  UNL1        0.0655
@<TRIPOS>BOND
     1     1     2    1
     2     2     3    1
     3     3     4   ar
     4     4     5   ar
     5     5     6   ar
     6     6     7    1
     7     7     8   ar
     8     8     9   ar
     9     9    10    1
    10    10    11    1
    11    10    12    1
    12    10    13    1
    13     9    14   ar
    14    14    15   ar
    15    15    16    1
    16    16    17   am
    17    17    18    2
    18    17    19   am
    19    19    20    1
    20    20    21   ar
    21    21    22   ar
    22    22    23   ar
    23    23    24    1
    24    24    25    1
    25    25    26   ar
    26    26    27   ar
    27    27    28   ar
    28    28    29   ar
    29    29    30    1
    30    30    31    1
    31    31    32   ar
    32    32    33   ar
    33    33    34   ar
    34    34    35   ar
    35    35    36   ar
    36    36    37   ar
    37    37    38   ar
    38    38    39   ar
    39    29    40   ar
    40    23    41   ar
    41    41    42   ar
    42    42    43   ar
    43    43    44   ar
    44    44    45   ar
    45    45    46   ar
    46     6    47   ar
    47    47    48   ar
    48    48     3   ar
    49    15     7   ar
    50    46    20   ar
    51    40    25   ar
    52    46    41   ar
    53    39    31   ar
    54    38    34   ar
    55     1    49    1
    56     1    50    1
    57     1    51    1
    58     4    52    1
    59     5    53    1
    60    11    54    1
    61    11    55    1
    62    11    56    1
    63    12    57    1
    64    12    58    1
    65    12    59    1
    66    13    60    1
    67    13    61    1
    68    13    62    1
    69    14    63    1
    70    16    64    1
    71    19    65    1
    72    21    66    1
    73    22    67    1
    74    26    68    1
    75    27    69    1
    76    30    70    1
    77    32    71    1
    78    33    72    1
    79    35    73    1
    80    37    74    1
    81    39    75    1
    82    42    76    1
    83    43    77    1
    84    44    78    1
    85    45    79    1
    86    47    80    1
    87    48    81    1
