
     RDKit          3D

 47 49  0  0  0  0  0  0  0  0999 V2000
   -3.1587   -0.9053   -3.5704 C   0  0  0  0  0  0  0  0  0  0  0  0
   -3.3250    0.0297   -2.3889 C   0  0  1  0  0  0  0  0  0  0  0  0
   -4.6927   -0.1604   -1.8388 C   0  0  0  0  0  0  0  0  0  0  0  0
   -4.9198    0.5314   -0.5130 C   0  0  0  0  0  0  0  0  0  0  0  0
   -3.6570    0.6027    0.3063 C   0  0  0  0  0  0  0  0  0  0  0  0
   -2.7473   -0.5127   -0.1915 C   0  0  2  0  0  0  0  0  0  0  0  0
   -1.7755   -0.9569    0.8431 C   0  0  0  0  0  0  0  0  0  0  0  0
   -2.2405   -0.2069   -1.4732 N   0  0  0  0  0  0  0  0  0  0  0  0
   -1.1097    1.0446   -1.6047 S   0  0  0  0  0  6  0  0  0  0  0  0
   -1.6718    2.4079   -1.2235 O   0  0  0  0  0  0  0  0  0  0  0  0
   -0.6550    1.2357   -3.0529 O   0  0  0  0  0  0  0  0  0  0  0  0
    0.3613    0.7516   -0.7136 C   0  0  0  0  0  0  0  0  0  0  0  0
    0.5303    1.2492    0.5583 C   0  0  0  0  0  0  0  0  0  0  0  0
    1.6853    1.0349    1.2926 C   0  0  0  0  0  0  0  0  0  0  0  0
    2.7213    0.2970    0.7496 C   0  0  0  0  0  0  0  0  0  0  0  0
    3.9349    0.0365    1.4469 N   0  0  0  0  0  0  0  0  0  0  0  0
    5.1325    0.8559    1.4387 C   0  0  0  0  0  0  0  0  0  0  0  0
    6.2105   -0.1309    1.8529 C   0  0  0  0  0  0  0  0  0  0  0  0
    5.5057   -1.0329    2.8112 C   0  0  0  0  0  0  0  0  0  0  0  0
    4.1285   -1.1041    2.2701 C   0  0  0  0  0  0  0  0  0  0  0  0
    3.3168   -2.0357    2.5291 O   0  0  0  0  0  0  0  0  0  0  0  0
    2.5465   -0.2064   -0.5405 C   0  0  0  0  0  0  0  0  0  0  0  0
    1.3912    0.0133   -1.2628 C   0  0  0  0  0  0  0  0  0  0  0  0
   -2.2862   -0.5985   -4.1892 H   0  0  0  0  0  0  0  0  0  0  0  0
   -4.0432   -0.8931   -4.2330 H   0  0  0  0  0  0  0  0  0  0  0  0
   -2.9865   -1.9570   -3.2832 H   0  0  0  0  0  0  0  0  0  0  0  0
   -3.2550    1.0546   -2.8143 H   0  0  0  0  0  0  0  0  0  0  0  0
   -5.0315   -1.2172   -1.8215 H   0  0  0  0  0  0  0  0  0  0  0  0
   -5.4030    0.3518   -2.5521 H   0  0  0  0  0  0  0  0  0  0  0  0
   -5.4422    1.5037   -0.6071 H   0  0  0  0  0  0  0  0  0  0  0  0
   -5.6527   -0.1234    0.0468 H   0  0  0  0  0  0  0  0  0  0  0  0
   -3.8925    0.3374    1.3808 H   0  0  0  0  0  0  0  0  0  0  0  0
   -3.1734    1.5758    0.3256 H   0  0  0  0  0  0  0  0  0  0  0  0
   -3.4758   -1.3786   -0.3497 H   0  0  0  0  0  0  0  0  0  0  0  0
   -2.1872   -1.8847    1.3372 H   0  0  0  0  0  0  0  0  0  0  0  0
   -1.6448   -0.2346    1.6757 H   0  0  0  0  0  0  0  0  0  0  0  0
   -0.8279   -1.2898    0.3813 H   0  0  0  0  0  0  0  0  0  0  0  0
   -0.2438    1.8437    1.0590 H   0  0  0  0  0  0  0  0  0  0  0  0
    1.8350    1.4179    2.2934 H   0  0  0  0  0  0  0  0  0  0  0  0
    5.3795    1.2807    0.4589 H   0  0  0  0  0  0  0  0  0  0  0  0
    5.0233    1.5978    2.2508 H   0  0  0  0  0  0  0  0  0  0  0  0
    7.0847    0.3698    2.3185 H   0  0  0  0  0  0  0  0  0  0  0  0
    6.5384   -0.7507    0.9751 H   0  0  0  0  0  0  0  0  0  0  0  0
    5.9768   -2.0411    2.8800 H   0  0  0  0  0  0  0  0  0  0  0  0
    5.4953   -0.6083    3.8334 H   0  0  0  0  0  0  0  0  0  0  0  0
    3.3718   -0.7804   -0.9415 H   0  0  0  0  0  0  0  0  0  0  0  0
    1.3288   -0.4142   -2.2671 H   0  0  0  0  0  0  0  0  0  0  0  0
  1  2  1  0
  2  3  1  0
  3  4  1  0
  4  5  1  0
  5  6  1  0
  6  7  1  0
  6  8  1  0
  8  9  1  0
  9 10  2  0
  9 11  2  0
  9 12  1  0
 12 13  2  0
 13 14  1  0
 14 15  2  0
 15 16  1  0
 16 17  1  0
 17 18  1  0
 18 19  1  0
 19 20  1  0
 20 21  2  0
 15 22  1  0
 22 23  2  0
  8  2  1  0
 23 12  1  0
 20 16  1  0
  1 24  1  0
  1 25  1  0
  1 26  1  0
  2 27  1  6
  3 28  1  0
  3 29  1  0
  4 30  1  0
  4 31  1  0
  5 32  1  0
  5 33  1  0
  6 34  1  6
  7 35  1  0
  7 36  1  0
  7 37  1  0
 13 38  1  0
 14 39  1  0
 17 40  1  0
 17 41  1  0
 18 42  1  0
 18 43  1  0
 19 44  1  0
 19 45  1  0
 22 46  1  0
 23 47  1  0
M  END
$$$$
