@<TRIPOS>MOLECULE
*****
 47 49 0 0 0
SMALL
GASTEIGER

@<TRIPOS>ATOM
      1 C          -3.1587   -0.9053   -3.5704 C.3     1  UNL1       -0.0478
      2 C          -3.3250    0.0297   -2.3889 C.3     1  UNL1        0.0294
      3 C          -4.6927   -0.1604   -1.8388 C.3     1  UNL1       -0.0359
      4 C          -4.9198    0.5314   -0.5130 C.3     1  UNL1       -0.0501
      5 C          -3.6570    0.6027    0.3063 C.3     1  UNL1       -0.0359
      6 C          -2.7473   -0.5127   -0.1915 C.3     1  UNL1        0.0294
      7 C          -1.7755   -0.9569    0.8431 C.3     1  UNL1       -0.0478
      8 N          -2.2405   -0.2069   -1.4732 N.3     1  UNL1       -0.1710
      9 S          -1.1097    1.0446   -1.6047 S.O2    1  UNL1        0.0613
     10 O          -1.6718    2.4079   -1.2235 O.2     1  UNL1       -0.1528
     11 O          -0.6550    1.2357   -3.0529 O.2     1  UNL1       -0.1528
     12 C           0.3613    0.7516   -0.7136 C.ar    1  UNL1        0.1056
     13 C           0.5303    1.2492    0.5583 C.ar    1  UNL1       -0.0336
     14 C           1.6853    1.0349    1.2926 C.ar    1  UNL1       -0.0384
     15 C           2.7213    0.2970    0.7496 C.ar    1  UNL1        0.0364
     16 N           3.9349    0.0365    1.4469 N.am    1  UNL1       -0.2714
     17 C           5.1325    0.8559    1.4387 C.3     1  UNL1        0.0202
     18 C           6.2105   -0.1309    1.8529 C.3     1  UNL1       -0.0285
     19 C           5.5057   -1.0329    2.8112 C.3     1  UNL1        0.0259
     20 C           4.1285   -1.1041    2.2701 C.2     1  UNL1        0.2198
     21 O           3.3168   -2.0357    2.5291 O.2     1  UNL1       -0.2753
     22 C           2.5465   -0.2064   -0.5405 C.ar    1  UNL1       -0.0384
     23 C           1.3912    0.0133   -1.2628 C.ar    1  UNL1       -0.0336
     24 H          -2.2862   -0.5985   -4.1892 H       1  UNL1        0.0245
     25 H          -4.0432   -0.8931   -4.2330 H       1  UNL1        0.0245
     26 H          -2.9865   -1.9570   -3.2832 H       1  UNL1        0.0245
     27 H          -3.2550    1.0546   -2.8143 H       1  UNL1        0.0477
     28 H          -5.0315   -1.2172   -1.8215 H       1  UNL1        0.0281
     29 H          -5.4030    0.3518   -2.5521 H       1  UNL1        0.0281
     30 H          -5.4422    1.5037   -0.6071 H       1  UNL1        0.0266
     31 H          -5.6527   -0.1234    0.0468 H       1  UNL1        0.0266
     32 H          -3.8925    0.3374    1.3808 H       1  UNL1        0.0281
     33 H          -3.1734    1.5758    0.3256 H       1  UNL1        0.0281
     34 H          -3.4758   -1.3786   -0.3497 H       1  UNL1        0.0477
     35 H          -2.1872   -1.8847    1.3372 H       1  UNL1        0.0245
     36 H          -1.6448   -0.2346    1.6757 H       1  UNL1        0.0245
     37 H          -0.8279   -1.2898    0.3813 H       1  UNL1        0.0245
     38 H          -0.2438    1.8437    1.0590 H       1  UNL1        0.0638
     39 H           1.8350    1.4179    2.2934 H       1  UNL1        0.0637
     40 H           5.3795    1.2807    0.4589 H       1  UNL1        0.0469
     41 H           5.0233    1.5978    2.2508 H       1  UNL1        0.0469
     42 H           7.0847    0.3698    2.3185 H       1  UNL1        0.0285
     43 H           6.5384   -0.7507    0.9751 H       1  UNL1        0.0285
     44 H           5.9768   -2.0411    2.8800 H       1  UNL1        0.0359
     45 H           5.4953   -0.6083    3.8334 H       1  UNL1        0.0359
     46 H           3.3718   -0.7804   -0.9415 H       1  UNL1        0.0637
     47 H           1.3288   -0.4142   -2.2671 H       1  UNL1        0.0638
@<TRIPOS>BOND
     1     1     2    1
     2     2     3    1
     3     3     4    1
     4     4     5    1
     5     5     6    1
     6     6     7    1
     7     6     8    1
     8     8     9    1
     9     9    10    2
    10     9    11    2
    11     9    12    1
    12    12    13   ar
    13    13    14   ar
    14    14    15   ar
    15    15    16    1
    16    16    17    1
    17    17    18    1
    18    18    19    1
    19    19    20    1
    20    20    21    2
    21    15    22   ar
    22    22    23   ar
    23     8     2    1
    24    23    12   ar
    25    20    16   am
    26     1    24    1
    27     1    25    1
    28     1    26    1
    29     2    27    1
    30     3    28    1
    31     3    29    1
    32     4    30    1
    33     4    31    1
    34     5    32    1
    35     5    33    1
    36     6    34    1
    37     7    35    1
    38     7    36    1
    39     7    37    1
    40    13    38    1
    41    14    39    1
    42    17    40    1
    43    17    41    1
    44    18    42    1
    45    18    43    1
    46    19    44    1
    47    19    45    1
    48    22    46    1
    49    23    47    1
