@<TRIPOS>MOLECULE
*****
 62 66 0 0 0
SMALL
GASTEIGER

@<TRIPOS>ATOM
      1 C          -5.2876    5.3838   -0.9781 C.3     1  UNL1        0.0015
      2 N          -4.3705    4.2537   -0.8928 N.am    1  UNL1       -0.3023
      3 C          -4.8015    2.9807   -0.4482 C.2     1  UNL1        0.3023
      4 O          -6.0328    2.8739   -0.1263 O.2     1  UNL1       -0.2526
      5 N          -3.9229    1.8610   -0.3567 N.am    1  UNL1       -0.2808
      6 C          -4.4267    0.5853    0.1060 C.3     1  UNL1        0.0219
      7 C          -3.7747   -0.5438   -0.6942 C.3     1  UNL1        0.0056
      8 C          -2.3054   -0.4318   -0.4931 C.ar    1  UNL1        0.0476
      9 C          -1.7440    0.8205   -0.5195 C.ar    1  UNL1        0.0325
     10 C          -0.3805    0.7020   -0.3137 C.ar    1  UNL1        0.1499
     11 N           0.5992    1.7282   -0.2608 N.pl3   1  UNL1       -0.2955
     12 C           1.9577    1.4117   -0.0387 C.ar    1  UNL1        0.0694
     13 C           2.9159    1.7442   -0.9714 C.ar    1  UNL1       -0.0197
     14 C           4.2221    1.4153   -0.7101 C.ar    1  UNL1        0.0615
     15 C           5.2532    1.7539   -1.6765 C.1     1  UNL1        0.0998
     16 N           6.0659    2.0002   -2.4340 N.1     1  UNL1       -0.1908
     17 C           4.5578    0.7662    0.4636 C.ar    1  UNL1        0.0052
     18 C           5.9455    0.4263    0.7222 C.ar    1  UNL1        0.0209
     19 C           7.0657    1.1814    0.5618 C.ar    1  UNL1        0.0571
     20 N           8.1172    0.4525    0.9267 N.ar    1  UNL1       -0.1793
     21 N           7.6917   -0.7370    1.3112 N.ar    1  UNL1       -0.2739
     22 C           8.5633   -1.8054    1.7800 C.3     1  UNL1        0.0302
     23 C           6.3568   -0.8014    1.2028 C.ar    1  UNL1        0.0329
     24 C           3.6138    0.4288    1.4017 C.ar    1  UNL1       -0.0156
     25 C           2.2820    0.7629    1.1377 C.ar    1  UNL1        0.1451
     26 F           1.3485    0.4383    2.0476 F       1  UNL1       -0.2035
     27 N          -0.1700   -0.6190   -0.1706 N.ar    1  UNL1       -0.1552
     28 N          -1.3015   -1.2947   -0.2752 N.ar    1  UNL1       -0.2630
     29 C          -1.5165   -2.7398   -0.1825 C.3     1  UNL1        0.0572
     30 C          -2.1791   -3.1695   -1.4475 C.3     1  UNL1       -0.0069
     31 C          -3.2093   -4.2311   -1.2849 C.3     1  UNL1        0.0496
     32 O          -2.8140   -5.0339   -0.1933 O.3     1  UNL1       -0.3796
     33 C          -3.1444   -4.2891    0.9435 C.3     1  UNL1        0.0496
     34 C          -2.2417   -3.1117    1.0653 C.3     1  UNL1       -0.0069
     35 C          -2.5431    2.0690   -0.7411 C.3     1  UNL1        0.0462
     36 H          -4.9866    6.1181   -0.2053 H       1  UNL1        0.0426
     37 H          -5.1972    5.8975   -1.9561 H       1  UNL1        0.0426
     38 H          -6.3352    5.0675   -0.7868 H       1  UNL1        0.0426
     39 H          -3.3872    4.3937   -1.1646 H       1  UNL1        0.1499
     40 H          -5.5166    0.5580   -0.1619 H       1  UNL1        0.0469
     41 H          -4.3380    0.4386    1.1866 H       1  UNL1        0.0469
     42 H          -4.0720   -0.3697   -1.7487 H       1  UNL1        0.0343
     43 H          -4.1938   -1.4963   -0.3772 H       1  UNL1        0.0343
     44 H           0.2998    2.7092   -0.3876 H       1  UNL1        0.1537
     45 H           2.6321    2.2469   -1.8734 H       1  UNL1        0.0650
     46 H           7.0360    2.2163    0.1879 H       1  UNL1        0.0854
     47 H           8.0452   -2.3703    2.5834 H       1  UNL1        0.0473
     48 H           9.5096   -1.4177    2.2074 H       1  UNL1        0.0473
     49 H           8.7987   -2.5214    0.9480 H       1  UNL1        0.0473
     50 H           5.7185   -1.6617    1.4484 H       1  UNL1        0.0832
     51 H           3.9103   -0.0796    2.3112 H       1  UNL1        0.0653
     52 H          -0.5009   -3.1952   -0.1321 H       1  UNL1        0.0546
     53 H          -1.4039   -3.5688   -2.1645 H       1  UNL1        0.0308
     54 H          -2.6437   -2.3132   -2.0167 H       1  UNL1        0.0308
     55 H          -3.3162   -4.8637   -2.1842 H       1  UNL1        0.0560
     56 H          -4.2116   -3.8200   -0.9857 H       1  UNL1        0.0560
     57 H          -3.1351   -4.9637    1.8067 H       1  UNL1        0.0560
     58 H          -4.1964   -3.9388    0.7753 H       1  UNL1        0.0560
     59 H          -2.8418   -2.2565    1.4848 H       1  UNL1        0.0308
     60 H          -1.4998   -3.3451    1.8839 H       1  UNL1        0.0308
     61 H          -2.0746    2.9165   -0.1611 H       1  UNL1        0.0516
     62 H          -2.4892    2.3880   -1.8089 H       1  UNL1        0.0516
@<TRIPOS>BOND
     1     1     2    1
     2     2     3   am
     3     3     4    2
     4     3     5   am
     5     5     6    1
     6     6     7    1
     7     7     8    1
     8     8     9   ar
     9     9    10   ar
    10    10    11    1
    11    11    12    1
    12    12    13   ar
    13    13    14   ar
    14    14    15    1
    15    15    16    3
    16    14    17   ar
    17    17    18    1
    18    18    19   ar
    19    19    20   ar
    20    20    21   ar
    21    21    22    1
    22    21    23   ar
    23    17    24   ar
    24    24    25   ar
    25    25    26    1
    26    10    27   ar
    27    27    28   ar
    28    28    29    1
    29    29    30    1
    30    30    31    1
    31    31    32    1
    32    32    33    1
    33    33    34    1
    34     9    35    1
    35    35     5    1
    36    28     8   ar
    37    34    29    1
    38    25    12   ar
    39    23    18   ar
    40     1    36    1
    41     1    37    1
    42     1    38    1
    43     2    39    1
    44     6    40    1
    45     6    41    1
    46     7    42    1
    47     7    43    1
    48    11    44    1
    49    13    45    1
    50    19    46    1
    51    22    47    1
    52    22    48    1
    53    22    49    1
    54    23    50    1
    55    24    51    1
    56    29    52    1
    57    30    53    1
    58    30    54    1
    59    31    55    1
    60    31    56    1
    61    33    57    1
    62    33    58    1
    63    34    59    1
    64    34    60    1
    65    35    61    1
    66    35    62    1
