@<TRIPOS>MOLECULE
*****
 28 28 0 0 0
SMALL
GASTEIGER

@<TRIPOS>ATOM
      1 O           3.6045    1.7950   -0.2116 O.2     1  UNL1       -0.3010
      2 C           4.1802    0.8441    0.3180 C.2     1  UNL1        0.1203
      3 C           3.1545   -0.2513    0.4963 C.3     1  UNL1        0.0028
      4 C           1.8131    0.2106   -0.0324 C.3     1  UNL1       -0.0464
      5 C           0.7438   -0.8482    0.1204 C.3     1  UNL1       -0.0498
      6 C          -0.5809   -0.3126   -0.4337 C.3     1  UNL1       -0.0387
      7 C          -1.6747   -1.3265   -0.3053 C.3     1  UNL1       -0.0376
      8 C          -3.0077   -0.8114    0.1008 C.3     1  UNL1       -0.0039
      9 N          -3.0072    0.3588    0.9371 N.3     1  UNL1       -0.3160
     10 C          -2.2929    1.3923    0.2355 C.3     1  UNL1       -0.0039
     11 C          -0.8365    0.9862    0.2370 C.3     1  UNL1       -0.0376
     12 H           5.1517    0.5012    0.7042 H       1  UNL1        0.1026
     13 H           3.1362   -0.5208    1.5502 H       1  UNL1        0.0339
     14 H           3.5428   -1.0868   -0.1219 H       1  UNL1        0.0339
     15 H           1.9255    0.3490   -1.1398 H       1  UNL1        0.0269
     16 H           1.4994    1.1678    0.3842 H       1  UNL1        0.0269
     17 H           0.6048   -1.1250    1.1926 H       1  UNL1        0.0268
     18 H           1.0447   -1.7677   -0.4205 H       1  UNL1        0.0268
     19 H          -0.4303   -0.1019   -1.5157 H       1  UNL1        0.0302
     20 H          -1.8144   -1.9014   -1.2484 H       1  UNL1        0.0280
     21 H          -1.3103   -2.0918    0.4302 H       1  UNL1        0.0280
     22 H          -3.6682   -0.6527   -0.7786 H       1  UNL1        0.0424
     23 H          -3.5105   -1.6236    0.6865 H       1  UNL1        0.0424
     24 H          -2.4845    0.1354    1.8171 H       1  UNL1        0.1219
     25 H          -2.6057    1.4907   -0.8248 H       1  UNL1        0.0424
     26 H          -2.3832    2.3320    0.8076 H       1  UNL1        0.0424
     27 H          -0.3095    1.8245   -0.2961 H       1  UNL1        0.0280
     28 H          -0.4847    1.0340    1.2885 H       1  UNL1        0.0280
@<TRIPOS>BOND
     1     1     2    2
     2     2     3    1
     3     3     4    1
     4     4     5    1
     5     5     6    1
     6     6     7    1
     7     7     8    1
     8     8     9    1
     9     9    10    1
    10    10    11    1
    11    11     6    1
    12     2    12    1
    13     3    13    1
    14     3    14    1
    15     4    15    1
    16     4    16    1
    17     5    17    1
    18     5    18    1
    19     6    19    1
    20     7    20    1
    21     7    21    1
    22     8    22    1
    23     8    23    1
    24     9    24    1
    25    10    25    1
    26    10    26    1
    27    11    27    1
    28    11    28    1
