
     RDKit          3D

 28 28  0  0  0  0  0  0  0  0999 V2000
    3.6045    1.7950   -0.2116 O   0  0  0  0  0  0  0  0  0  0  0  0
    4.1802    0.8441    0.3180 C   0  0  0  0  0  0  0  0  0  0  0  0
    3.1545   -0.2513    0.4963 C   0  0  0  0  0  0  0  0  0  0  0  0
    1.8131    0.2106   -0.0324 C   0  0  0  0  0  0  0  0  0  0  0  0
    0.7438   -0.8482    0.1204 C   0  0  0  0  0  0  0  0  0  0  0  0
   -0.5809   -0.3126   -0.4337 C   0  0  0  0  0  0  0  0  0  0  0  0
   -1.6747   -1.3265   -0.3053 C   0  0  0  0  0  0  0  0  0  0  0  0
   -3.0077   -0.8114    0.1008 C   0  0  0  0  0  0  0  0  0  0  0  0
   -3.0072    0.3588    0.9371 N   0  0  0  0  0  0  0  0  0  0  0  0
   -2.2929    1.3923    0.2355 C   0  0  0  0  0  0  0  0  0  0  0  0
   -0.8365    0.9862    0.2370 C   0  0  0  0  0  0  0  0  0  0  0  0
    5.1517    0.5012    0.7042 H   0  0  0  0  0  0  0  0  0  0  0  0
    3.1362   -0.5208    1.5502 H   0  0  0  0  0  0  0  0  0  0  0  0
    3.5428   -1.0868   -0.1219 H   0  0  0  0  0  0  0  0  0  0  0  0
    1.9255    0.3490   -1.1398 H   0  0  0  0  0  0  0  0  0  0  0  0
    1.4994    1.1678    0.3842 H   0  0  0  0  0  0  0  0  0  0  0  0
    0.6048   -1.1250    1.1926 H   0  0  0  0  0  0  0  0  0  0  0  0
    1.0447   -1.7677   -0.4205 H   0  0  0  0  0  0  0  0  0  0  0  0
   -0.4303   -0.1019   -1.5157 H   0  0  0  0  0  0  0  0  0  0  0  0
   -1.8144   -1.9014   -1.2484 H   0  0  0  0  0  0  0  0  0  0  0  0
   -1.3103   -2.0918    0.4302 H   0  0  0  0  0  0  0  0  0  0  0  0
   -3.6682   -0.6527   -0.7786 H   0  0  0  0  0  0  0  0  0  0  0  0
   -3.5105   -1.6236    0.6865 H   0  0  0  0  0  0  0  0  0  0  0  0
   -2.4845    0.1354    1.8171 H   0  0  0  0  0  0  0  0  0  0  0  0
   -2.6057    1.4907   -0.8248 H   0  0  0  0  0  0  0  0  0  0  0  0
   -2.3832    2.3320    0.8076 H   0  0  0  0  0  0  0  0  0  0  0  0
   -0.3095    1.8245   -0.2961 H   0  0  0  0  0  0  0  0  0  0  0  0
   -0.4847    1.0340    1.2885 H   0  0  0  0  0  0  0  0  0  0  0  0
  1  2  2  0
  2  3  1  0
  3  4  1  0
  4  5  1  0
  5  6  1  0
  6  7  1  0
  7  8  1  0
  8  9  1  0
  9 10  1  0
 10 11  1  0
 11  6  1  0
  2 12  1  0
  3 13  1  0
  3 14  1  0
  4 15  1  0
  4 16  1  0
  5 17  1  0
  5 18  1  0
  6 19  1  0
  7 20  1  0
  7 21  1  0
  8 22  1  0
  8 23  1  0
  9 24  1  0
 10 25  1  0
 10 26  1  0
 11 27  1  0
 11 28  1  0
M  END
$$$$
