
     RDKit          3D

 55 59  0  0  0  0  0  0  0  0999 V2000
   -0.5867    3.3698   -2.1837 C   0  0  0  0  0  0  0  0  0  0  0  0
   -1.1067    3.8517   -0.8539 C   0  0  2  0  0  0  0  0  0  0  0  0
   -0.5415    5.2167   -0.5225 C   0  0  0  0  0  0  0  0  0  0  0  0
   -1.2463    5.7406    0.5570 O   0  0  0  0  0  0  0  0  0  0  0  0
   -1.5942    4.8063    1.4916 C   0  0  0  0  0  0  0  0  0  0  0  0
   -0.6061    3.6347    1.5452 C   0  0  0  0  0  0  0  0  0  0  0  0
   -0.7413    2.9702    0.2393 N   0  0  0  0  0  0  0  0  0  0  0  0
   -0.5212    1.6043    0.1380 C   0  0  0  0  0  0  0  0  0  0  0  0
   -1.4638    0.7696   -0.2830 N   0  0  0  0  0  0  0  0  0  0  0  0
   -1.2925   -0.5928   -0.4002 C   0  0  0  0  0  0  0  0  0  0  0  0
   -2.4215   -1.3291   -0.9411 C   0  0  0  0  0  0  0  0  0  0  0  0
   -3.3296   -0.6501   -1.7843 C   0  0  0  0  0  0  0  0  0  0  0  0
   -4.3895   -1.2580   -2.2799 N   0  0  0  0  0  0  0  0  0  0  0  0
   -4.6449   -2.5288   -2.0062 C   0  0  0  0  0  0  0  0  0  0  0  0
   -3.8148   -3.2610   -1.1938 C   0  0  0  0  0  0  0  0  0  0  0  0
   -3.8589   -4.5356   -0.7429 N   0  0  0  0  0  0  0  0  0  0  0  0
   -2.8240   -4.7788    0.0609 C   0  0  0  0  0  0  0  0  0  0  0  0
   -2.0870   -3.5876    0.1174 C   0  0  0  0  0  0  0  0  0  0  0  0
   -2.6862   -2.6266   -0.6613 C   0  0  0  0  0  0  0  0  0  0  0  0
   -0.0757   -1.1152   -0.0633 C   0  0  0  0  0  0  0  0  0  0  0  0
    0.9445   -0.2761    0.3851 C   0  0  0  0  0  0  0  0  0  0  0  0
    0.7243    1.0794    0.4860 C   0  0  0  0  0  0  0  0  0  0  0  0
    1.8676    1.6030    0.9350 N   0  0  0  0  0  0  0  0  0  0  0  0
    2.7833    0.6429    1.1170 C   0  0  0  0  0  0  0  0  0  0  0  0
    2.2047   -0.5165    0.7747 N   0  0  0  0  0  0  0  0  0  0  0  0
    2.8658   -1.8296    0.8263 C   0  0  1  0  0  0  0  0  0  0  0  0
    2.9564   -2.3230   -0.5812 C   0  0  0  0  0  0  0  0  0  0  0  0
    4.4557   -1.6564    1.5918 S   0  0  0  0  0  6  0  0  0  0  0  0
    5.2780   -3.2253    1.7314 C   0  0  0  0  0  0  0  0  0  0  0  0
    4.3294   -0.9744    2.9103 O   0  0  0  0  0  0  0  0  0  0  0  0
    5.3328   -0.7909    0.7106 O   0  0  0  0  0  0  0  0  0  0  0  0
    0.4969    3.6468   -2.2767 H   0  0  0  0  0  0  0  0  0  0  0  0
   -1.1224    3.9365   -2.9732 H   0  0  0  0  0  0  0  0  0  0  0  0
   -0.7682    2.3082   -2.3422 H   0  0  0  0  0  0  0  0  0  0  0  0
   -2.2112    3.9134   -0.8893 H   0  0  0  0  0  0  0  0  0  0  0  0
   -0.5479    5.8964   -1.3831 H   0  0  0  0  0  0  0  0  0  0  0  0
    0.5028    5.0485   -0.1620 H   0  0  0  0  0  0  0  0  0  0  0  0
   -1.5859    5.3033    2.4949 H   0  0  0  0  0  0  0  0  0  0  0  0
   -2.6041    4.3810    1.3605 H   0  0  0  0  0  0  0  0  0  0  0  0
   -0.9430    2.9890    2.3656 H   0  0  0  0  0  0  0  0  0  0  0  0
    0.4204    4.0326    1.6739 H   0  0  0  0  0  0  0  0  0  0  0  0
   -3.1018    0.3980   -1.9980 H   0  0  0  0  0  0  0  0  0  0  0  0
   -5.5311   -3.0043   -2.4335 H   0  0  0  0  0  0  0  0  0  0  0  0
   -4.6409   -5.1870   -1.0349 H   0  0  0  0  0  0  0  0  0  0  0  0
   -2.6258   -5.7133    0.5506 H   0  0  0  0  0  0  0  0  0  0  0  0
   -1.2168   -3.4920    0.7118 H   0  0  0  0  0  0  0  0  0  0  0  0
    0.1570   -2.1612   -0.1644 H   0  0  0  0  0  0  0  0  0  0  0  0
    3.8207    0.7850    1.4816 H   0  0  0  0  0  0  0  0  0  0  0  0
    2.2255   -2.5144    1.4304 H   0  0  0  0  0  0  0  0  0  0  0  0
    2.6969   -1.5294   -1.3340 H   0  0  0  0  0  0  0  0  0  0  0  0
    3.9762   -2.6614   -0.8590 H   0  0  0  0  0  0  0  0  0  0  0  0
    2.2630   -3.1586   -0.7486 H   0  0  0  0  0  0  0  0  0  0  0  0
    6.1080   -3.3329    1.0049 H   0  0  0  0  0  0  0  0  0  0  0  0
    5.7536   -3.2454    2.7455 H   0  0  0  0  0  0  0  0  0  0  0  0
    4.5679   -4.0724    1.6590 H   0  0  0  0  0  0  0  0  0  0  0  0
  1  2  1  0
  2  3  1  0
  3  4  1  0
  4  5  1  0
  5  6  1  0
  6  7  1  0
  7  8  1  0
  8  9  2  0
  9 10  1  0
 10 11  1  0
 11 12  2  0
 12 13  1  0
 13 14  2  0
 14 15  1  0
 15 16  1  0
 16 17  1  0
 17 18  2  0
 18 19  1  0
 10 20  2  0
 20 21  1  0
 21 22  2  0
 22 23  1  0
 23 24  2  0
 24 25  1  0
 25 26  1  0
 26 27  1  0
 26 28  1  0
 28 29  1  0
 28 30  2  0
 28 31  2  0
  7  2  1  0
 22  8  1  0
 19 11  1  0
 25 21  1  0
 19 15  2  0
  1 32  1  0
  1 33  1  0
  1 34  1  0
  2 35  1  6
  3 36  1  0
  3 37  1  0
  5 38  1  0
  5 39  1  0
  6 40  1  0
  6 41  1  0
 12 42  1  0
 14 43  1  0
 16 44  1  0
 17 45  1  0
 18 46  1  0
 20 47  1  0
 24 48  1  0
 26 49  1  1
 27 50  1  0
 27 51  1  0
 27 52  1  0
 29 53  1  0
 29 54  1  0
 29 55  1  0
M  END
$$$$
