@<TRIPOS>MOLECULE
*****
 55 59 0 0 0
SMALL
GASTEIGER

@<TRIPOS>ATOM
      1 C          -0.5867    3.3698   -2.1837 C.3     1  UNL1       -0.0443
      2 C          -1.1067    3.8517   -0.8539 C.3     1  UNL1        0.0455
      3 C          -0.5415    5.2167   -0.5225 C.3     1  UNL1        0.0660
      4 O          -1.2463    5.7406    0.5570 O.3     1  UNL1       -0.3764
      5 C          -1.5942    4.8063    1.4916 C.3     1  UNL1        0.0634
      6 C          -0.6061    3.6347    1.5452 C.3     1  UNL1        0.0374
      7 N          -0.7413    2.9702    0.2393 N.pl3   1  UNL1       -0.3063
      8 C          -0.5212    1.6043    0.1380 C.ar    1  UNL1        0.1500
      9 N          -1.4638    0.7696   -0.2830 N.ar    1  UNL1       -0.2296
     10 C          -1.2925   -0.5928   -0.4002 C.ar    1  UNL1        0.0773
     11 C          -2.4215   -1.3291   -0.9411 C.ar    1  UNL1        0.0277
     12 C          -3.3296   -0.6501   -1.7843 C.ar    1  UNL1        0.0374
     13 N          -4.3895   -1.2580   -2.2799 N.ar    1  UNL1       -0.2605
     14 C          -4.6449   -2.5288   -2.0062 C.ar    1  UNL1        0.0514
     15 C          -3.8148   -3.2610   -1.1938 C.ar    1  UNL1        0.0654
     16 N          -3.8589   -4.5356   -0.7429 N.ar    1  UNL1       -0.3595
     17 C          -2.8240   -4.7788    0.0609 C.ar    1  UNL1        0.0028
     18 C          -2.0870   -3.5876    0.1174 C.ar    1  UNL1       -0.0359
     19 C          -2.6862   -2.6266   -0.6613 C.ar    1  UNL1        0.0117
     20 C          -0.0757   -1.1152   -0.0633 C.ar    1  UNL1       -0.0098
     21 C           0.9445   -0.2761    0.3851 C.ar    1  UNL1        0.0756
     22 C           0.7243    1.0794    0.4860 C.ar    1  UNL1        0.1288
     23 N           1.8676    1.6030    0.9350 N.ar    1  UNL1       -0.2322
     24 C           2.7833    0.6429    1.1170 C.ar    1  UNL1        0.0987
     25 N           2.2047   -0.5165    0.7747 N.ar    1  UNL1       -0.3073
     26 C           2.8658   -1.8296    0.8263 C.3     1  UNL1        0.1499
     27 C           2.9564   -2.3230   -0.5812 C.3     1  UNL1       -0.0239
     28 S           4.4557   -1.6564    1.5918 S.O2    1  UNL1       -0.0129
     29 C           5.2780   -3.2253    1.7314 C.3     1  UNL1        0.0567
     30 O           4.3294   -0.9744    2.9103 O.2     1  UNL1       -0.1726
     31 O           5.3328   -0.7909    0.7106 O.2     1  UNL1       -0.1726
     32 H           0.4969    3.6468   -2.2767 H       1  UNL1        0.0248
     33 H          -1.1224    3.9365   -2.9732 H       1  UNL1        0.0248
     34 H          -0.7682    2.3082   -2.3422 H       1  UNL1        0.0248
     35 H          -2.2112    3.9134   -0.8893 H       1  UNL1        0.0520
     36 H          -0.5479    5.8964   -1.3831 H       1  UNL1        0.0578
     37 H           0.5028    5.0485   -0.1620 H       1  UNL1        0.0578
     38 H          -1.5859    5.3033    2.4949 H       1  UNL1        0.0575
     39 H          -2.6041    4.3810    1.3605 H       1  UNL1        0.0575
     40 H          -0.9430    2.9890    2.3656 H       1  UNL1        0.0487
     41 H           0.4204    4.0326    1.6739 H       1  UNL1        0.0487
     42 H          -3.1018    0.3980   -1.9980 H       1  UNL1        0.0836
     43 H          -5.5311   -3.0043   -2.4335 H       1  UNL1        0.0851
     44 H          -4.6409   -5.1870   -1.0349 H       1  UNL1        0.1654
     45 H          -2.6258   -5.7133    0.5506 H       1  UNL1        0.0807
     46 H          -1.2168   -3.4920    0.7118 H       1  UNL1        0.0639
     47 H           0.1570   -2.1612   -0.1644 H       1  UNL1        0.0660
     48 H           3.8207    0.7850    1.4816 H       1  UNL1        0.1029
     49 H           2.2255   -2.5144    1.4304 H       1  UNL1        0.0770
     50 H           2.6969   -1.5294   -1.3340 H       1  UNL1        0.0266
     51 H           3.9762   -2.6614   -0.8590 H       1  UNL1        0.0266
     52 H           2.2630   -3.1586   -0.7486 H       1  UNL1        0.0266
     53 H           6.1080   -3.3329    1.0049 H       1  UNL1        0.0464
     54 H           5.7536   -3.2454    2.7455 H       1  UNL1        0.0464
     55 H           4.5679   -4.0724    1.6590 H       1  UNL1        0.0464
@<TRIPOS>BOND
     1     1     2    1
     2     2     3    1
     3     3     4    1
     4     4     5    1
     5     5     6    1
     6     6     7    1
     7     7     8    1
     8     8     9   ar
     9     9    10   ar
    10    10    11    1
    11    11    12   ar
    12    12    13   ar
    13    13    14   ar
    14    14    15   ar
    15    15    16   ar
    16    16    17   ar
    17    17    18   ar
    18    18    19   ar
    19    10    20   ar
    20    20    21   ar
    21    21    22   ar
    22    22    23   ar
    23    23    24   ar
    24    24    25   ar
    25    25    26    1
    26    26    27    1
    27    26    28    1
    28    28    29    1
    29    28    30    2
    30    28    31    2
    31     7     2    1
    32    22     8   ar
    33    19    11   ar
    34    25    21   ar
    35    19    15   ar
    36     1    32    1
    37     1    33    1
    38     1    34    1
    39     2    35    1
    40     3    36    1
    41     3    37    1
    42     5    38    1
    43     5    39    1
    44     6    40    1
    45     6    41    1
    46    12    42    1
    47    14    43    1
    48    16    44    1
    49    17    45    1
    50    18    46    1
    51    20    47    1
    52    24    48    1
    53    26    49    1
    54    27    50    1
    55    27    51    1
    56    27    52    1
    57    29    53    1
    58    29    54    1
    59    29    55    1
