
     RDKit          3D

 57 60  0  0  0  0  0  0  0  0999 V2000
   -7.6402   -0.9604    0.9198 C   0  0  0  0  0  0  0  0  0  0  0  0
   -6.6676   -0.1636    0.0982 C   0  0  0  0  0  0  0  0  0  0  0  0
   -7.3214    0.9991   -0.6124 C   0  0  0  0  0  0  0  0  0  0  0  0
   -5.9873   -0.9593   -0.8945 N   0  0  0  0  0  0  0  0  0  0  0  0
   -4.7903   -0.2430   -1.2031 C   0  0  0  0  0  0  0  0  0  0  0  0
   -4.1439   -0.3684   -2.2838 O   0  0  0  0  0  0  0  0  0  0  0  0
   -4.4902    0.6127   -0.0765 N   0  0  0  0  0  0  0  0  0  0  0  0
   -3.3639    1.5138    0.0502 C   0  0  0  0  0  0  0  0  0  0  0  0
   -2.1683    0.8966    0.6894 C   0  0  2  0  0  0  0  0  0  0  0  0
   -1.0103    1.8771    0.8070 C   0  0  0  0  0  0  0  0  0  0  0  0
    0.1178    0.9133    1.1892 C   0  0  0  0  0  0  0  0  0  0  0  0
   -0.0848   -0.2184    0.2272 C   0  0  2  0  0  0  0  0  0  0  0  0
    0.8114    0.0572   -1.3262 S   0  0  0  0  0  0  0  0  0  0  0  0
    2.5567    0.0006   -0.9583 C   0  0  0  0  0  0  0  0  0  0  0  0
    3.2564    1.1328   -0.6070 C   0  0  0  0  0  0  0  0  0  0  0  0
    4.6207    1.0823   -0.3240 C   0  0  0  0  0  0  0  0  0  0  0  0
    5.3236   -0.1179   -0.3875 C   0  0  0  0  0  0  0  0  0  0  0  0
    6.7485   -0.2055   -0.0996 C   0  0  0  0  0  0  0  0  0  0  0  0
    7.3563    0.6133    0.8100 C   0  0  0  0  0  0  0  0  0  0  0  0
    8.7271    0.5183    1.0782 C   0  0  0  0  0  0  0  0  0  0  0  0
    9.4896   -0.4097    0.4235 C   0  0  0  0  0  0  0  0  0  0  0  0
   11.2027   -0.5233    0.7632 Cl  0  0  0  0  0  0  0  0  0  0  0  0
    8.8941   -1.2434   -0.4967 C   0  0  0  0  0  0  0  0  0  0  0  0
    7.5477   -1.1413   -0.7520 C   0  0  0  0  0  0  0  0  0  0  0  0
    4.6178   -1.2475   -0.7396 C   0  0  0  0  0  0  0  0  0  0  0  0
    3.2727   -1.1932   -1.0177 C   0  0  0  0  0  0  0  0  0  0  0  0
   -1.5838   -0.2731   -0.0183 C   0  0  1  0  0  0  0  0  0  0  0  0
   -2.0996   -1.5469    0.5493 C   0  0  0  0  0  0  0  0  0  0  0  0
   -2.9228   -1.4914    1.5048 O   0  0  0  0  0  0  0  0  0  0  0  0
   -1.6844   -2.7678    0.0387 O   0  0  0  0  0  0  0  0  0  0  0  0
   -5.5276    0.3725    0.8665 C   0  0  0  0  0  0  0  0  0  0  0  0
   -5.4554    0.5834    2.0884 O   0  0  0  0  0  0  0  0  0  0  0  0
   -8.2031   -1.6573    0.2370 H   0  0  0  0  0  0  0  0  0  0  0  0
   -8.4151   -0.2360    1.3019 H   0  0  0  0  0  0  0  0  0  0  0  0
   -7.1944   -1.4892    1.7600 H   0  0  0  0  0  0  0  0  0  0  0  0
   -7.8245    1.6457    0.1348 H   0  0  0  0  0  0  0  0  0  0  0  0
   -7.9815    0.6188   -1.3984 H   0  0  0  0  0  0  0  0  0  0  0  0
   -6.4990    1.6115   -1.0600 H   0  0  0  0  0  0  0  0  0  0  0  0
   -6.2626   -1.8804   -1.3374 H   0  0  0  0  0  0  0  0  0  0  0  0
   -3.6526    2.4308    0.6188 H   0  0  0  0  0  0  0  0  0  0  0  0
   -3.1075    1.8875   -0.9765 H   0  0  0  0  0  0  0  0  0  0  0  0
   -2.4371    0.6159    1.7372 H   0  0  0  0  0  0  0  0  0  0  0  0
   -1.1716    2.6579    1.5564 H   0  0  0  0  0  0  0  0  0  0  0  0
   -0.7952    2.3252   -0.2001 H   0  0  0  0  0  0  0  0  0  0  0  0
   -0.0750    0.6002    2.2257 H   0  0  0  0  0  0  0  0  0  0  0  0
    1.1125    1.3834    1.0744 H   0  0  0  0  0  0  0  0  0  0  0  0
    0.2758   -1.1914    0.6230 H   0  0  0  0  0  0  0  0  0  0  0  0
    2.7309    2.0820   -0.5506 H   0  0  0  0  0  0  0  0  0  0  0  0
    5.1702    1.9613   -0.0498 H   0  0  0  0  0  0  0  0  0  0  0  0
    6.7484    1.3400    1.3205 H   0  0  0  0  0  0  0  0  0  0  0  0
    9.1894    1.1759    1.8017 H   0  0  0  0  0  0  0  0  0  0  0  0
    9.5199   -1.9673   -0.9996 H   0  0  0  0  0  0  0  0  0  0  0  0
    7.0639   -1.7863   -1.4700 H   0  0  0  0  0  0  0  0  0  0  0  0
    5.1352   -2.2181   -0.8018 H   0  0  0  0  0  0  0  0  0  0  0  0
    2.7073   -2.0707   -1.2951 H   0  0  0  0  0  0  0  0  0  0  0  0
   -1.7147   -0.2937   -1.0981 H   0  0  0  0  0  0  0  0  0  0  0  0
   -1.9206   -3.6446    0.5207 H   0  0  0  0  0  0  0  0  0  0  0  0
  1  2  1  0
  2  3  1  0
  2  4  1  0
  4  5  1  0
  5  6  2  0
  5  7  1  0
  7  8  1  0
  8  9  1  0
  9 10  1  0
 10 11  1  0
 11 12  1  0
 12 13  1  0
 13 14  1  0
 14 15  2  0
 15 16  1  0
 16 17  2  0
 17 18  1  0
 18 19  2  0
 19 20  1  0
 20 21  2  0
 21 22  1  0
 21 23  1  0
 23 24  2  0
 17 25  1  0
 25 26  2  0
 12 27  1  0
 27 28  1  0
 28 29  2  0
 28 30  1  0
  7 31  1  0
 31 32  2  0
 31  2  1  0
 27  9  1  0
 26 14  1  0
 24 18  1  0
  1 33  1  0
  1 34  1  0
  1 35  1  0
  3 36  1  0
  3 37  1  0
  3 38  1  0
  4 39  1  0
  8 40  1  0
  8 41  1  0
  9 42  1  1
 10 43  1  0
 10 44  1  0
 11 45  1  0
 11 46  1  0
 12 47  1  1
 15 48  1  0
 16 49  1  0
 19 50  1  0
 20 51  1  0
 23 52  1  0
 24 53  1  0
 25 54  1  0
 26 55  1  0
 27 56  1  6
 30 57  1  0
M  END
$$$$
