@<TRIPOS>MOLECULE
*****
 57 60 0 0 0
SMALL
GASTEIGER

@<TRIPOS>ATOM
      1 C          -7.6402   -0.9604    0.9198 C.3     1  UNL1       -0.0353
      2 C          -6.6676   -0.1636    0.0982 C.3     1  UNL1        0.1070
      3 C          -7.3214    0.9991   -0.6124 C.3     1  UNL1       -0.0353
      4 N          -5.9873   -0.9593   -0.8945 N.am    1  UNL1       -0.2854
      5 C          -4.7903   -0.2430   -1.2031 C.2     1  UNL1        0.3094
      6 O          -4.1439   -0.3684   -2.2838 O.2     1  UNL1       -0.2522
      7 N          -4.4902    0.6127   -0.0765 N.am    1  UNL1       -0.2240
      8 C          -3.3639    1.5138    0.0502 C.3     1  UNL1        0.0275
      9 C          -2.1683    0.8966    0.6894 C.3     1  UNL1       -0.0107
     10 C          -1.0103    1.8771    0.8070 C.3     1  UNL1       -0.0469
     11 C           0.1178    0.9133    1.1892 C.3     1  UNL1       -0.0397
     12 C          -0.0848   -0.2184    0.2272 C.3     1  UNL1        0.0231
     13 S           0.8114    0.0572   -1.3262 S.3     1  UNL1       -0.1210
     14 C           2.5567    0.0006   -0.9583 C.ar    1  UNL1        0.0082
     15 C           3.2564    1.1328   -0.6070 C.ar    1  UNL1       -0.0477
     16 C           4.6207    1.0823   -0.3240 C.ar    1  UNL1       -0.0530
     17 C           5.3236   -0.1179   -0.3875 C.ar    1  UNL1       -0.0178
     18 C           6.7485   -0.2055   -0.0996 C.ar    1  UNL1       -0.0178
     19 C           7.3563    0.6133    0.8100 C.ar    1  UNL1       -0.0527
     20 C           8.7271    0.5183    1.0782 C.ar    1  UNL1       -0.0428
     21 C           9.4896   -0.4097    0.4235 C.ar    1  UNL1        0.0410
     22 CL         11.2027   -0.5233    0.7632 Cl      1  UNL1       -0.0835
     23 C           8.8941   -1.2434   -0.4967 C.ar    1  UNL1       -0.0428
     24 C           7.5477   -1.1413   -0.7520 C.ar    1  UNL1       -0.0527
     25 C           4.6178   -1.2475   -0.7396 C.ar    1  UNL1       -0.0530
     26 C           3.2727   -1.1932   -1.0177 C.ar    1  UNL1       -0.0477
     27 C          -1.5838   -0.2731   -0.0183 C.3     1  UNL1        0.0726
     28 C          -2.0996   -1.5469    0.5493 C.2     1  UNL1        0.3092
     29 O          -2.9228   -1.4914    1.5048 O.2     1  UNL1       -0.2507
     30 O          -1.6844   -2.7678    0.0387 O.3     1  UNL1       -0.4804
     31 C          -5.5276    0.3725    0.8665 C.2     1  UNL1        0.2460
     32 O          -5.4554    0.5834    2.0884 O.2     1  UNL1       -0.2728
     33 H          -8.2031   -1.6573    0.2370 H       1  UNL1        0.0255
     34 H          -8.4151   -0.2360    1.3019 H       1  UNL1        0.0255
     35 H          -7.1944   -1.4892    1.7600 H       1  UNL1        0.0255
     36 H          -7.8245    1.6457    0.1348 H       1  UNL1        0.0255
     37 H          -7.9815    0.6188   -1.3984 H       1  UNL1        0.0255
     38 H          -6.4990    1.6115   -1.0600 H       1  UNL1        0.0255
     39 H          -6.2626   -1.8804   -1.3374 H       1  UNL1        0.1513
     40 H          -3.6526    2.4308    0.6188 H       1  UNL1        0.0473
     41 H          -3.1075    1.8875   -0.9765 H       1  UNL1        0.0473
     42 H          -2.4371    0.6159    1.7372 H       1  UNL1        0.0324
     43 H          -1.1716    2.6579    1.5564 H       1  UNL1        0.0269
     44 H          -0.7952    2.3252   -0.2001 H       1  UNL1        0.0269
     45 H          -0.0750    0.6002    2.2257 H       1  UNL1        0.0276
     46 H           1.1125    1.3834    1.0744 H       1  UNL1        0.0276
     47 H           0.2758   -1.1914    0.6230 H       1  UNL1        0.0424
     48 H           2.7309    2.0820   -0.5506 H       1  UNL1        0.0629
     49 H           5.1702    1.9613   -0.0498 H       1  UNL1        0.0624
     50 H           6.7484    1.3400    1.3205 H       1  UNL1        0.0624
     51 H           9.1894    1.1759    1.8017 H       1  UNL1        0.0632
     52 H           9.5199   -1.9673   -0.9996 H       1  UNL1        0.0632
     53 H           7.0639   -1.7863   -1.4700 H       1  UNL1        0.0624
     54 H           5.1352   -2.2181   -0.8018 H       1  UNL1        0.0624
     55 H           2.7073   -2.0707   -1.2951 H       1  UNL1        0.0629
     56 H          -1.7147   -0.2937   -1.0981 H       1  UNL1        0.0428
     57 H          -1.9206   -3.6446    0.5207 H       1  UNL1        0.2951
@<TRIPOS>BOND
     1     1     2    1
     2     2     3    1
     3     2     4    1
     4     4     5   am
     5     5     6    2
     6     5     7   am
     7     7     8    1
     8     8     9    1
     9     9    10    1
    10    10    11    1
    11    11    12    1
    12    12    13    1
    13    13    14    1
    14    14    15   ar
    15    15    16   ar
    16    16    17   ar
    17    17    18    1
    18    18    19   ar
    19    19    20   ar
    20    20    21   ar
    21    21    22    1
    22    21    23   ar
    23    23    24   ar
    24    17    25   ar
    25    25    26   ar
    26    12    27    1
    27    27    28    1
    28    28    29    2
    29    28    30    1
    30     7    31   am
    31    31    32    2
    32    31     2    1
    33    27     9    1
    34    26    14   ar
    35    24    18   ar
    36     1    33    1
    37     1    34    1
    38     1    35    1
    39     3    36    1
    40     3    37    1
    41     3    38    1
    42     4    39    1
    43     8    40    1
    44     8    41    1
    45     9    42    1
    46    10    43    1
    47    10    44    1
    48    11    45    1
    49    11    46    1
    50    12    47    1
    51    15    48    1
    52    16    49    1
    53    19    50    1
    54    20    51    1
    55    23    52    1
    56    24    53    1
    57    25    54    1
    58    26    55    1
    59    27    56    1
    60    30    57    1
