@<TRIPOS>MOLECULE
*****
 36 36 0 0 0
SMALL
GASTEIGER

@<TRIPOS>ATOM
      1 N           4.8069   -2.0405    0.1530 N.pl3   1  UNL1       -0.2893
      2 C           4.3990   -0.7012   -0.0206 C.cat   1  UNL1        0.3765
      3 N           5.2894    0.3174   -0.4414 N.pl3   1  UNL1       -0.2893
      4 N           3.4042    0.0705    0.0598 N.pl3   1  UNL1       -0.1125
      5 C           2.0504   -0.3122    0.4580 C.3     1  UNL1        0.1173
      6 C           1.0785    0.7201   -0.0308 C.3     1  UNL1        0.0331
      7 N          -0.2926    0.5185    0.2583 N.3     1  UNL1       -0.2992
      8 C          -1.0485    1.4236   -0.4997 C.3     1  UNL1       -0.0010
      9 C          -2.4497    1.7375   -0.1171 C.3     1  UNL1       -0.0402
     10 C          -3.3406    0.9778   -1.0835 C.3     1  UNL1       -0.0519
     11 C          -3.0510   -0.5007   -0.8666 C.3     1  UNL1       -0.0530
     12 C          -3.2445   -0.8070    0.5812 C.3     1  UNL1       -0.0519
     13 C          -2.0286   -0.8349    1.4164 C.3     1  UNL1       -0.0402
     14 C          -0.7309   -0.7176    0.6953 C.3     1  UNL1       -0.0010
     15 H           5.6738   -2.3025   -0.3101 H       1  UNL1        0.2546
     16 H           4.0699   -2.4822    0.7634 H       1  UNL1        0.2546
     17 H           5.8207    1.1143    0.0157 H       1  UNL1        0.2546
     18 H           5.7011    0.5855   -1.3795 H       1  UNL1        0.2546
     19 H           2.0405   -0.3415    1.5591 H       1  UNL1        0.0706
     20 H           1.9129   -1.3083    0.0018 H       1  UNL1        0.0706
     21 H           1.3147    0.9518   -1.0843 H       1  UNL1        0.0459
     22 H           1.3472    1.7028    0.5127 H       1  UNL1        0.0459
     23 H          -0.5016    2.4189   -0.4434 H       1  UNL1        0.0426
     24 H          -0.9685    1.2228   -1.6264 H       1  UNL1        0.0426
     25 H          -2.7144    2.8263   -0.3296 H       1  UNL1        0.0278
     26 H          -2.7511    1.5902    0.9111 H       1  UNL1        0.0278
     27 H          -4.4090    1.1276   -0.8369 H       1  UNL1        0.0266
     28 H          -3.0861    1.2979   -2.1154 H       1  UNL1        0.0266
     29 H          -2.0731   -0.8002   -1.2591 H       1  UNL1        0.0265
     30 H          -3.8075   -1.0259   -1.4893 H       1  UNL1        0.0265
     31 H          -3.9375   -0.0545    1.0132 H       1  UNL1        0.0266
     32 H          -3.8410   -1.7712    0.6320 H       1  UNL1        0.0266
     33 H          -2.0049   -1.8549    1.9141 H       1  UNL1        0.0278
     34 H          -2.0050   -0.1569    2.2948 H       1  UNL1        0.0278
     35 H           0.0317   -1.0214    1.4978 H       1  UNL1        0.0426
     36 H          -0.6546   -1.5698   -0.0169 H       1  UNL1        0.0426
@<TRIPOS>BOND
     1     1     2    1
     2     2     3    1
     3     2     4    2
     4     4     5    1
     5     5     6    1
     6     6     7    1
     7     7     8    1
     8     8     9    1
     9     9    10    1
    10    10    11    1
    11    11    12    1
    12    12    13    1
    13    13    14    1
    14    14     7    1
    15     1    15    1
    16     1    16    1
    17     3    17    1
    18     3    18    1
    19     5    19    1
    20     5    20    1
    21     6    21    1
    22     6    22    1
    23     8    23    1
    24     8    24    1
    25     9    25    1
    26     9    26    1
    27    10    27    1
    28    10    28    1
    29    11    29    1
    30    11    30    1
    31    12    31    1
    32    12    32    1
    33    13    33    1
    34    13    34    1
    35    14    35    1
    36    14    36    1
