@<TRIPOS>MOLECULE
*****
 48 51 0 0 0
SMALL
GASTEIGER

@<TRIPOS>ATOM
      1 C           1.6856   -0.9091   -0.9606 C.3     1  UNL1       -0.0493
      2 C           1.5089   -1.6457    0.3341 C.3     1  UNL1        0.0126
      3 N           1.7637   -0.8509    1.5119 N.am    1  UNL1       -0.2918
      4 C           3.0987   -0.7751    2.0364 C.3     1  UNL1        0.0402
      5 C           3.8340    0.2710    1.2964 C.ar    1  UNL1       -0.0266
      6 C           3.8314    1.5907    1.6657 C.ar    1  UNL1       -0.0568
      7 C           4.5370    2.5509    0.9777 C.ar    1  UNL1       -0.0580
      8 C           5.2709    2.1723   -0.1186 C.ar    1  UNL1       -0.0199
      9 C           5.3029    0.8352   -0.5318 C.ar    1  UNL1        0.1204
     10 O           6.0666    0.5259   -1.6464 O.3     1  UNL1       -0.4951
     11 C           6.1642   -0.7736   -2.1295 C.3     1  UNL1        0.0788
     12 C           4.5879   -0.1004    0.1738 C.ar    1  UNL1       -0.0153
     13 C           0.7156   -0.1411    2.1239 C.2     1  UNL1        0.2721
     14 O           1.0097    0.5375    3.1727 O.2     1  UNL1       -0.2677
     15 C          -0.6024   -0.1389    1.6572 C.ar    1  UNL1        0.1641
     16 N          -1.7816   -0.4872    1.9887 N.ar    1  UNL1       -0.2344
     17 C          -2.8677   -0.3351    1.3356 C.ar    1  UNL1        0.0791
     18 C          -4.1721   -0.7264    1.7295 C.ar    1  UNL1       -0.0346
     19 C          -5.2437   -0.4855    0.9146 C.ar    1  UNL1       -0.0519
     20 C          -5.1745    0.1254   -0.3035 C.ar    1  UNL1       -0.0138
     21 C          -6.3016    0.3923   -1.1657 C.ar    1  UNL1        0.0193
     22 C          -6.4885    1.4267   -2.0666 C.ar    1  UNL1        0.0568
     23 N          -7.6986    1.2257   -2.6080 N.ar    1  UNL1       -0.1817
     24 N          -8.2709    0.1522   -2.1140 N.ar    1  UNL1       -0.2841
     25 C          -7.4374   -0.3799   -1.2269 C.ar    1  UNL1        0.0300
     26 C          -3.8878    0.5196   -0.7107 C.ar    1  UNL1       -0.0381
     27 C          -2.8444    0.2837    0.0868 C.ar    1  UNL1        0.0402
     28 S          -1.0459    0.6151   -0.0170 S.2     1  UNL1       -0.0627
     29 H           2.5874   -1.3114   -1.5200 H       1  UNL1        0.0245
     30 H           0.8266   -1.0888   -1.6497 H       1  UNL1        0.0245
     31 H           1.7669    0.1807   -0.8614 H       1  UNL1        0.0245
     32 H           0.4609   -2.0270    0.4097 H       1  UNL1        0.0462
     33 H           2.1732   -2.5475    0.3084 H       1  UNL1        0.0462
     34 H           3.1172   -0.4754    3.1096 H       1  UNL1        0.0514
     35 H           3.6500   -1.7299    1.9675 H       1  UNL1        0.0514
     36 H           3.2633    1.8985    2.5224 H       1  UNL1        0.0621
     37 H           4.5301    3.5791    1.2705 H       1  UNL1        0.0619
     38 H           5.8514    2.8766   -0.7102 H       1  UNL1        0.0654
     39 H           7.1259   -0.9468   -2.6719 H       1  UNL1        0.0660
     40 H           5.3243   -0.9612   -2.8357 H       1  UNL1        0.0660
     41 H           6.1145   -1.5013   -1.2909 H       1  UNL1        0.0660
     42 H           4.5729   -1.1435   -0.0997 H       1  UNL1        0.0657
     43 H          -4.3615   -1.2123    2.6585 H       1  UNL1        0.0639
     44 H          -6.2573   -0.7953    1.2246 H       1  UNL1        0.0624
     45 H          -5.7483    2.2033   -2.2390 H       1  UNL1        0.0854
     46 H          -9.2203   -0.2144   -2.3770 H       1  UNL1        0.1882
     47 H          -7.6199   -1.2739   -0.6451 H       1  UNL1        0.0830
     48 H          -3.7172    1.0153   -1.6620 H       1  UNL1        0.0635
@<TRIPOS>BOND
     1     1     2    1
     2     2     3    1
     3     3     4    1
     4     4     5    1
     5     5     6   ar
     6     6     7   ar
     7     7     8   ar
     8     8     9   ar
     9     9    10    1
    10    10    11    1
    11     9    12   ar
    12     3    13   am
    13    13    14    2
    14    13    15    1
    15    15    16   ar
    16    16    17   ar
    17    17    18   ar
    18    18    19   ar
    19    19    20   ar
    20    20    21    1
    21    21    22   ar
    22    22    23   ar
    23    23    24   ar
    24    24    25   ar
    25    20    26   ar
    26    26    27   ar
    27    27    28   ar
    28    12     5   ar
    29    28    15   ar
    30    27    17   ar
    31    25    21   ar
    32     1    29    1
    33     1    30    1
    34     1    31    1
    35     2    32    1
    36     2    33    1
    37     4    34    1
    38     4    35    1
    39     6    36    1
    40     7    37    1
    41     8    38    1
    42    11    39    1
    43    11    40    1
    44    11    41    1
    45    12    42    1
    46    18    43    1
    47    19    44    1
    48    22    45    1
    49    24    46    1
    50    25    47    1
    51    26    48    1
