
     RDKit          3D

 48 51  0  0  0  0  0  0  0  0999 V2000
    1.6856   -0.9091   -0.9606 C   0  0  0  0  0  0  0  0  0  0  0  0
    1.5089   -1.6457    0.3341 C   0  0  0  0  0  0  0  0  0  0  0  0
    1.7637   -0.8509    1.5119 N   0  0  0  0  0  0  0  0  0  0  0  0
    3.0987   -0.7751    2.0364 C   0  0  0  0  0  0  0  0  0  0  0  0
    3.8340    0.2710    1.2964 C   0  0  0  0  0  0  0  0  0  0  0  0
    3.8314    1.5907    1.6657 C   0  0  0  0  0  0  0  0  0  0  0  0
    4.5370    2.5509    0.9777 C   0  0  0  0  0  0  0  0  0  0  0  0
    5.2709    2.1723   -0.1186 C   0  0  0  0  0  0  0  0  0  0  0  0
    5.3029    0.8352   -0.5318 C   0  0  0  0  0  0  0  0  0  0  0  0
    6.0666    0.5259   -1.6464 O   0  0  0  0  0  0  0  0  0  0  0  0
    6.1642   -0.7736   -2.1295 C   0  0  0  0  0  0  0  0  0  0  0  0
    4.5879   -0.1004    0.1738 C   0  0  0  0  0  0  0  0  0  0  0  0
    0.7156   -0.1411    2.1239 C   0  0  0  0  0  0  0  0  0  0  0  0
    1.0097    0.5375    3.1727 O   0  0  0  0  0  0  0  0  0  0  0  0
   -0.6024   -0.1389    1.6572 C   0  0  0  0  0  0  0  0  0  0  0  0
   -1.7816   -0.4872    1.9887 N   0  0  0  0  0  0  0  0  0  0  0  0
   -2.8677   -0.3351    1.3356 C   0  0  0  0  0  0  0  0  0  0  0  0
   -4.1721   -0.7264    1.7295 C   0  0  0  0  0  0  0  0  0  0  0  0
   -5.2437   -0.4855    0.9146 C   0  0  0  0  0  0  0  0  0  0  0  0
   -5.1745    0.1254   -0.3035 C   0  0  0  0  0  0  0  0  0  0  0  0
   -6.3016    0.3923   -1.1657 C   0  0  0  0  0  0  0  0  0  0  0  0
   -6.4885    1.4267   -2.0666 C   0  0  0  0  0  0  0  0  0  0  0  0
   -7.6986    1.2257   -2.6080 N   0  0  0  0  0  0  0  0  0  0  0  0
   -8.2709    0.1522   -2.1140 N   0  0  0  0  0  0  0  0  0  0  0  0
   -7.4374   -0.3799   -1.2269 C   0  0  0  0  0  0  0  0  0  0  0  0
   -3.8878    0.5196   -0.7107 C   0  0  0  0  0  0  0  0  0  0  0  0
   -2.8444    0.2837    0.0868 C   0  0  0  0  0  0  0  0  0  0  0  0
   -1.0459    0.6151   -0.0170 S   0  0  0  0  0  0  0  0  0  0  0  0
    2.5874   -1.3114   -1.5200 H   0  0  0  0  0  0  0  0  0  0  0  0
    0.8266   -1.0888   -1.6497 H   0  0  0  0  0  0  0  0  0  0  0  0
    1.7669    0.1807   -0.8614 H   0  0  0  0  0  0  0  0  0  0  0  0
    0.4609   -2.0270    0.4097 H   0  0  0  0  0  0  0  0  0  0  0  0
    2.1732   -2.5475    0.3084 H   0  0  0  0  0  0  0  0  0  0  0  0
    3.1172   -0.4754    3.1096 H   0  0  0  0  0  0  0  0  0  0  0  0
    3.6500   -1.7299    1.9675 H   0  0  0  0  0  0  0  0  0  0  0  0
    3.2633    1.8985    2.5224 H   0  0  0  0  0  0  0  0  0  0  0  0
    4.5301    3.5791    1.2705 H   0  0  0  0  0  0  0  0  0  0  0  0
    5.8514    2.8766   -0.7102 H   0  0  0  0  0  0  0  0  0  0  0  0
    7.1259   -0.9468   -2.6719 H   0  0  0  0  0  0  0  0  0  0  0  0
    5.3243   -0.9612   -2.8357 H   0  0  0  0  0  0  0  0  0  0  0  0
    6.1145   -1.5013   -1.2909 H   0  0  0  0  0  0  0  0  0  0  0  0
    4.5729   -1.1435   -0.0997 H   0  0  0  0  0  0  0  0  0  0  0  0
   -4.3615   -1.2123    2.6585 H   0  0  0  0  0  0  0  0  0  0  0  0
   -6.2573   -0.7953    1.2246 H   0  0  0  0  0  0  0  0  0  0  0  0
   -5.7483    2.2033   -2.2390 H   0  0  0  0  0  0  0  0  0  0  0  0
   -9.2203   -0.2144   -2.3770 H   0  0  0  0  0  0  0  0  0  0  0  0
   -7.6199   -1.2739   -0.6451 H   0  0  0  0  0  0  0  0  0  0  0  0
   -3.7172    1.0153   -1.6620 H   0  0  0  0  0  0  0  0  0  0  0  0
  1  2  1  0
  2  3  1  0
  3  4  1  0
  4  5  1  0
  5  6  2  0
  6  7  1  0
  7  8  2  0
  8  9  1  0
  9 10  1  0
 10 11  1  0
  9 12  2  0
  3 13  1  0
 13 14  2  0
 13 15  1  0
 15 16  2  0
 16 17  1  0
 17 18  2  0
 18 19  1  0
 19 20  2  0
 20 21  1  0
 21 22  1  0
 22 23  2  0
 23 24  1  0
 24 25  1  0
 20 26  1  0
 26 27  2  0
 27 28  1  0
 12  5  1  0
 28 15  1  0
 27 17  1  0
 25 21  2  0
  1 29  1  0
  1 30  1  0
  1 31  1  0
  2 32  1  0
  2 33  1  0
  4 34  1  0
  4 35  1  0
  6 36  1  0
  7 37  1  0
  8 38  1  0
 11 39  1  0
 11 40  1  0
 11 41  1  0
 12 42  1  0
 18 43  1  0
 19 44  1  0
 22 45  1  0
 24 46  1  0
 25 47  1  0
 26 48  1  0
M  END
$$$$
