@<TRIPOS>MOLECULE
*****
 51 53 0 0 0
SMALL
GASTEIGER

@<TRIPOS>ATOM
      1 C          -5.4761    0.6012    3.2028 C.3     1  UNL1        0.0789
      2 O          -4.5328    0.3750    2.1727 O.3     1  UNL1       -0.4928
      3 C          -4.8274   -0.6257    1.2575 C.ar    1  UNL1        0.1519
      4 C          -6.0009   -1.3836    1.3390 C.ar    1  UNL1        0.0021
      5 C          -6.2484   -2.3667    0.4057 C.ar    1  UNL1        0.0625
      6 CL         -7.7053   -3.3494    0.4587 Cl      1  UNL1       -0.0819
      7 C          -5.2999   -2.5497   -0.5786 C.ar    1  UNL1        0.0470
      8 N          -4.1751   -1.8051   -0.6358 N.ar    1  UNL1       -0.2453
      9 C          -3.9032   -0.8393    0.2576 C.ar    1  UNL1        0.1672
     10 C          -2.6885   -0.0336    0.1977 C.2     1  UNL1        0.2702
     11 O          -2.4841    0.8516    1.0529 O.2     1  UNL1       -0.2680
     12 N          -1.6961   -0.2016   -0.8050 N.am    1  UNL1       -0.2801
     13 C          -0.5097    0.5870   -0.8616 C.ar    1  UNL1        0.0345
     14 C          -0.4398    1.7760   -1.5650 C.ar    1  UNL1       -0.0348
     15 C           0.6772    2.5505   -1.6377 C.ar    1  UNL1       -0.0132
     16 C           0.6672    3.8208   -2.4196 C.3     1  UNL1       -0.0369
     17 C           1.8275    2.1263   -0.9640 C.ar    1  UNL1        0.1319
     18 F           2.9231    2.9058   -1.0328 F       1  UNL1       -0.2048
     19 C           1.8157    0.9533   -0.2501 C.ar    1  UNL1        0.0198
     20 C           3.0218    0.4579    0.4712 C.3     1  UNL1        0.1258
     21 C           3.4079    1.5095    1.5197 C.3     1  UNL1        0.1196
     22 F           4.5415    1.0723    2.2182 F       1  UNL1       -0.2462
     23 C           4.1619    0.2751   -0.4764 C.3     1  UNL1        0.0251
     24 C           4.0101   -1.0519   -1.2159 C.3     1  UNL1        0.1998
     25 C           5.2070   -1.2505   -2.1181 C.3     1  UNL1        0.4266
     26 F           5.0962   -2.4458   -2.8010 F       1  UNL1       -0.1669
     27 F           5.3495   -0.2051   -3.0086 F       1  UNL1       -0.1669
     28 F           6.3526   -1.3367   -1.3516 F       1  UNL1       -0.1669
     29 O           4.0325   -2.0539   -0.2208 O.2     1  UNL1       -0.4534
     30 C           3.1193   -1.9387    0.8274 C.2     1  UNL1        0.2766
     31 N           2.7388   -3.1267    1.5071 N.pl3   1  UNL1       -0.3134
     32 N           2.6676   -0.7865    1.1309 N.2     1  UNL1       -0.2228
     33 C           0.6350    0.1891   -0.2063 C.ar    1  UNL1       -0.0321
     34 H          -5.1021    1.2904    3.9794 H       1  UNL1        0.0660
     35 H          -6.4389    0.8978    2.7706 H       1  UNL1        0.0660
     36 H          -5.6644   -0.3809    3.7260 H       1  UNL1        0.0660
     37 H          -6.7056   -1.1884    2.1387 H       1  UNL1        0.0670
     38 H          -5.5165   -3.3339   -1.3074 H       1  UNL1        0.0845
     39 H          -1.8594   -0.9424   -1.5270 H       1  UNL1        0.1552
     40 H          -1.3532    2.0789   -2.0792 H       1  UNL1        0.0640
     41 H           1.6468    4.0394   -2.8759 H       1  UNL1        0.0278
     42 H           0.2777    4.6210   -1.7769 H       1  UNL1        0.0278
     43 H          -0.0621    3.7293   -3.2711 H       1  UNL1        0.0278
     44 H           2.5952    1.6292    2.2620 H       1  UNL1        0.0643
     45 H           3.6852    2.4592    1.0712 H       1  UNL1        0.0643
     46 H           4.2366    1.1174   -1.1693 H       1  UNL1        0.0331
     47 H           5.1149    0.2316    0.0883 H       1  UNL1        0.0331
     48 H           3.0573   -1.1207   -1.7447 H       1  UNL1        0.0826
     49 H           2.9706   -3.2360    2.5008 H       1  UNL1        0.1466
     50 H           2.2367   -3.8592    0.9924 H       1  UNL1        0.1466
     51 H           0.6158   -0.7336    0.3520 H       1  UNL1        0.0640
@<TRIPOS>BOND
     1     1     2    1
     2     2     3    1
     3     3     4   ar
     4     4     5   ar
     5     5     6    1
     6     5     7   ar
     7     7     8   ar
     8     8     9   ar
     9     9    10    1
    10    10    11    2
    11    10    12   am
    12    12    13    1
    13    13    14   ar
    14    14    15   ar
    15    15    16    1
    16    15    17   ar
    17    17    18    1
    18    17    19   ar
    19    19    20    1
    20    20    21    1
    21    21    22    1
    22    20    23    1
    23    23    24    1
    24    24    25    1
    25    25    26    1
    26    25    27    1
    27    25    28    1
    28    24    29    1
    29    29    30    1
    30    30    31    1
    31    30    32    2
    32    19    33   ar
    33     9     3   ar
    34    33    13   ar
    35    32    20    1
    36     1    34    1
    37     1    35    1
    38     1    36    1
    39     4    37    1
    40     7    38    1
    41    12    39    1
    42    14    40    1
    43    16    41    1
    44    16    42    1
    45    16    43    1
    46    21    44    1
    47    21    45    1
    48    23    46    1
    49    23    47    1
    50    24    48    1
    51    31    49    1
    52    31    50    1
    53    33    51    1
