@<TRIPOS>MOLECULE
*****
 38 39 0 0 0
SMALL
GASTEIGER

@<TRIPOS>ATOM
      1 C           3.6386    1.4229    0.3354 C.3     1  UNL1       -0.0130
      2 N           2.3577    2.0751    0.4172 N.3     1  UNL1       -0.3083
      3 C           2.4899    3.4672    0.0675 C.3     1  UNL1       -0.0130
      4 C           1.3334    1.3973   -0.3378 C.3     1  UNL1       -0.0008
      5 C           1.0178    0.0592    0.3043 C.3     1  UNL1       -0.0279
      6 C          -0.0477   -0.6429   -0.4835 C.3     1  UNL1        0.0275
      7 C          -0.4266   -1.9682    0.0678 C.ar    1  UNL1       -0.0384
      8 C          -0.4461   -2.1670    1.4410 C.ar    1  UNL1       -0.0579
      9 C          -0.8062   -3.4202    1.8941 C.ar    1  UNL1       -0.0615
     10 C          -1.1511   -4.5031    1.1186 C.ar    1  UNL1       -0.0617
     11 C          -1.1163   -4.2524   -0.2512 C.ar    1  UNL1       -0.0615
     12 C          -0.7642   -3.0204   -0.7612 C.ar    1  UNL1       -0.0579
     13 C          -1.2691    0.2138   -0.6540 C.ar    1  UNL1        0.0487
     14 C          -1.6594    1.0213    0.4080 C.ar    1  UNL1       -0.0398
     15 C          -2.7892    1.7537    0.1214 C.ar    1  UNL1       -0.0586
     16 C          -3.5177    1.7598   -1.0397 C.ar    1  UNL1       -0.0436
     17 C          -3.0488    0.9171   -2.0489 C.ar    1  UNL1        0.0279
     18 N          -1.9403    0.1721   -1.8224 N.ar    1  UNL1       -0.2593
     19 H           4.4766    2.1359    0.1953 H       1  UNL1        0.0391
     20 H           3.8337    0.9047    1.2970 H       1  UNL1        0.0391
     21 H           3.6379    0.7253   -0.5038 H       1  UNL1        0.0391
     22 H           3.1446    3.9474    0.8466 H       1  UNL1        0.0391
     23 H           3.1416    3.4966   -0.8518 H       1  UNL1        0.0391
     24 H           1.5483    4.0150   -0.0357 H       1  UNL1        0.0391
     25 H           1.6551    1.1958   -1.3864 H       1  UNL1        0.0427
     26 H           0.4344    2.0383   -0.3960 H       1  UNL1        0.0427
     27 H           1.9440   -0.5273    0.2565 H       1  UNL1        0.0287
     28 H           0.7263    0.2520    1.3703 H       1  UNL1        0.0287
     29 H           0.3996   -0.8406   -1.4910 H       1  UNL1        0.0413
     30 H          -0.1939   -1.3922    2.1558 H       1  UNL1        0.0620
     31 H          -0.8186   -3.5635    2.9748 H       1  UNL1        0.0618
     32 H          -1.4231   -5.4526    1.5225 H       1  UNL1        0.0618
     33 H          -1.3813   -5.0754   -0.9320 H       1  UNL1        0.0618
     34 H          -0.7378   -2.8251   -1.8387 H       1  UNL1        0.0620
     35 H          -1.1470    1.0788    1.3555 H       1  UNL1        0.0636
     36 H          -3.1709    2.4213    0.9066 H       1  UNL1        0.0619
     37 H          -4.3927    2.3549   -1.2043 H       1  UNL1        0.0633
     38 H          -3.5312    0.8255   -3.0177 H       1  UNL1        0.0829
@<TRIPOS>BOND
     1     1     2    1
     2     2     3    1
     3     2     4    1
     4     4     5    1
     5     5     6    1
     6     6     7    1
     7     7     8   ar
     8     8     9   ar
     9     9    10   ar
    10    10    11   ar
    11    11    12   ar
    12     6    13    1
    13    13    14   ar
    14    14    15   ar
    15    15    16   ar
    16    16    17   ar
    17    17    18   ar
    18    12     7   ar
    19    18    13   ar
    20     1    19    1
    21     1    20    1
    22     1    21    1
    23     3    22    1
    24     3    23    1
    25     3    24    1
    26     4    25    1
    27     4    26    1
    28     5    27    1
    29     5    28    1
    30     6    29    1
    31     8    30    1
    32     9    31    1
    33    10    32    1
    34    11    33    1
    35    12    34    1
    36    14    35    1
    37    15    36    1
    38    16    37    1
    39    17    38    1
