@<TRIPOS>MOLECULE
*****
 47 50 0 0 0
SMALL
GASTEIGER

@<TRIPOS>ATOM
      1 C           4.6989    3.7864    0.7250 C.3     1  UNL1        0.0817
      2 O           4.0794    2.8690   -0.1814 O.3     1  UNL1       -0.4670
      3 C           3.6926    1.5970    0.2355 C.2     1  UNL1        0.3238
      4 O           3.9177    1.3159    1.4373 O.2     1  UNL1       -0.2493
      5 C           3.0539    0.5912   -0.6213 C.3     1  UNL1        0.1259
      6 C           1.7266    0.8994   -1.3089 C.3     1  UNL1       -0.0201
      7 C           1.7901   -0.0624   -0.2161 C.3     1  UNL1        0.0154
      8 C           1.7188   -1.5400   -0.3436 C.3     1  UNL1        0.0936
      9 C           2.6621   -2.1503    0.6944 C.3     1  UNL1       -0.0351
     10 C           0.3303   -1.9695   -0.0294 C.ar    1  UNL1        0.0158
     11 C          -0.6902   -1.0844    0.2333 C.ar    1  UNL1       -0.0463
     12 C          -1.9702   -1.4969    0.5310 C.ar    1  UNL1       -0.0217
     13 C          -3.0860   -0.5941    0.8026 C.2     1  UNL1       -0.0171
     14 C          -3.3316    0.5180    0.1523 C.2     1  UNL1        0.1506
     15 F          -2.4801    0.8579   -0.8546 F       1  UNL1       -0.2032
     16 C          -4.4319    1.4349    0.4104 C.ar    1  UNL1        0.1171
     17 C          -5.3339    1.1922    1.4151 C.ar    1  UNL1        0.0574
     18 N          -6.3487    2.0705    1.6379 N.ar    1  UNL1       -0.2398
     19 C          -6.5216    3.1851    0.9137 C.ar    1  UNL1        0.1472
     20 CL         -7.8455    4.2958    1.2380 Cl      1  UNL1       -0.0604
     21 C          -5.6089    3.4115   -0.0884 C.ar    1  UNL1        0.0651
     22 N          -4.6029    2.5570   -0.3210 N.ar    1  UNL1       -0.2482
     23 C          -2.2231   -2.8506    0.5633 C.ar    1  UNL1       -0.0518
     24 C          -1.2151   -3.7554    0.3032 C.ar    1  UNL1       -0.0255
     25 C           0.0557   -3.3134    0.0080 C.ar    1  UNL1        0.1289
     26 F           1.0080   -4.2695   -0.2415 F       1  UNL1       -0.2051
     27 N           2.0242   -2.0571   -1.6652 N.2     1  UNL1       -0.2521
     28 C           3.0353   -1.6982   -2.3486 C.2     1  UNL1        0.1485
     29 N           3.2949   -2.2250   -3.6250 N.pl3   1  UNL1       -0.3380
     30 S           4.1315   -0.4912   -1.6386 S.3     1  UNL1       -0.0726
     31 H           5.6029    4.1662    0.1849 H       1  UNL1        0.0661
     32 H           4.0419    4.6756    0.9138 H       1  UNL1        0.0661
     33 H           4.9619    3.2964    1.6914 H       1  UNL1        0.0661
     34 H           1.5949    0.6330   -2.3729 H       1  UNL1        0.0288
     35 H           1.3071    1.9215   -1.0745 H       1  UNL1        0.0288
     36 H           1.4210    0.2910    0.7942 H       1  UNL1        0.0347
     37 H           3.4058   -2.7716    0.1746 H       1  UNL1        0.0256
     38 H           2.1115   -2.7164    1.4608 H       1  UNL1        0.0256
     39 H           3.1771   -1.3205    1.2069 H       1  UNL1        0.0256
     40 H          -0.4993   -0.0243    0.2092 H       1  UNL1        0.0628
     41 H          -3.7516   -0.8812    1.6045 H       1  UNL1        0.0653
     42 H          -5.2785    0.3011    2.0652 H       1  UNL1        0.0853
     43 H          -5.7120    4.3058   -0.6986 H       1  UNL1        0.0860
     44 H          -3.2412   -3.2009    0.7999 H       1  UNL1        0.0624
     45 H          -1.4742   -4.7935    0.3443 H       1  UNL1        0.0646
     46 H           3.7064   -1.6687   -4.4308 H       1  UNL1        0.1442
     47 H           3.0959   -3.2371   -3.8808 H       1  UNL1        0.1442
@<TRIPOS>BOND
     1     1     2    1
     2     2     3    1
     3     3     4    2
     4     5     3    1
     5     5     6    1
     6     6     7    1
     7     7     8    1
     8     8     9    1
     9     8    10    1
    10    10    11   ar
    11    11    12   ar
    12    12    13    1
    13    13    14    2
    14    14    15    1
    15    14    16    1
    16    16    17   ar
    17    17    18   ar
    18    18    19   ar
    19    19    20    1
    20    19    21   ar
    21    21    22   ar
    22    12    23   ar
    23    23    24   ar
    24    24    25   ar
    25    25    26    1
    26     8    27    1
    27    27    28    2
    28    28    29    1
    29    28    30    1
    30     7     5    1
    31    25    10   ar
    32    30     5    1
    33    22    16   ar
    34     1    31    1
    35     1    32    1
    36     1    33    1
    37     6    34    1
    38     6    35    1
    39     7    36    1
    40     9    37    1
    41     9    38    1
    42     9    39    1
    43    11    40    1
    44    13    41    1
    45    17    42    1
    46    21    43    1
    47    23    44    1
    48    24    45    1
    49    29    46    1
    50    29    47    1
