@<TRIPOS>MOLECULE
*****
 26 27 0 0 0
SMALL
GASTEIGER

@<TRIPOS>ATOM
      1 C           5.3858   -0.2157    0.5383 C.3     1  UNL1        0.0125
      2 C           4.0316    0.3997    0.6059 C.2     1  UNL1        0.2155
      3 O           3.7623    1.4554    1.2326 O.2     1  UNL1       -0.2757
      4 N           3.0245   -0.2990   -0.1036 N.am    1  UNL1       -0.2649
      5 C           1.6168   -0.0162   -0.2679 C.ar    1  UNL1        0.1653
      6 N           0.6729   -0.3953    0.4496 N.ar    1  UNL1       -0.2288
      7 C          -0.5750   -0.0793    0.2088 C.ar    1  UNL1        0.0628
      8 C          -0.8377    0.7088   -0.8919 C.ar    1  UNL1        0.0982
      9 S           0.7440    1.0258   -1.6310 S.2     1  UNL1       -0.0472
     10 C          -2.1282    1.2372   -1.4335 C.2     1  UNL1        0.2525
     11 O          -1.8740    2.0336   -2.3773 O.2     1  UNL1       -0.2696
     12 N          -3.4527    0.9417   -1.0118 N.am    1  UNL1       -0.3109
     13 C          -3.8569    0.0153    0.0093 C.3     1  UNL1        0.0123
     14 C          -2.8193   -1.0457    0.2822 C.3     1  UNL1       -0.0319
     15 C          -1.6682   -0.5749    1.1220 C.3     1  UNL1       -0.0077
     16 H           5.8091   -0.1109   -0.4824 H       1  UNL1        0.0323
     17 H           5.3058   -1.2810    0.8031 H       1  UNL1        0.0323
     18 H           6.0006    0.3247    1.2992 H       1  UNL1        0.0323
     19 H           3.2190   -1.1926   -0.6425 H       1  UNL1        0.1567
     20 H          -4.1487    1.4795   -1.5303 H       1  UNL1        0.1490
     21 H          -4.7281   -0.5497   -0.4370 H       1  UNL1        0.0462
     22 H          -4.2493    0.4870    0.9279 H       1  UNL1        0.0462
     23 H          -2.5560   -1.5359   -0.6533 H       1  UNL1        0.0284
     24 H          -3.3520   -1.8172    0.9009 H       1  UNL1        0.0284
     25 H          -2.0089    0.3378    1.6706 H       1  UNL1        0.0329
     26 H          -1.3174   -1.3330    1.8187 H       1  UNL1        0.0329
@<TRIPOS>BOND
     1     1     2    1
     2     2     3    2
     3     2     4   am
     4     4     5    1
     5     5     6   ar
     6     6     7   ar
     7     7     8   ar
     8     8     9   ar
     9     8    10    1
    10    10    11    2
    11    10    12   am
    12    12    13    1
    13    13    14    1
    14    14    15    1
    15     9     5   ar
    16    15     7    1
    17     1    16    1
    18     1    17    1
    19     1    18    1
    20     4    19    1
    21    12    20    1
    22    13    21    1
    23    13    22    1
    24    14    23    1
    25    14    24    1
    26    15    25    1
    27    15    26    1
