
     RDKit          3D

 26 27  0  0  0  0  0  0  0  0999 V2000
    5.3858   -0.2157    0.5383 C   0  0  0  0  0  0  0  0  0  0  0  0
    4.0316    0.3997    0.6059 C   0  0  0  0  0  0  0  0  0  0  0  0
    3.7623    1.4554    1.2326 O   0  0  0  0  0  0  0  0  0  0  0  0
    3.0245   -0.2990   -0.1036 N   0  0  0  0  0  0  0  0  0  0  0  0
    1.6168   -0.0162   -0.2679 C   0  0  0  0  0  0  0  0  0  0  0  0
    0.6729   -0.3953    0.4496 N   0  0  0  0  0  0  0  0  0  0  0  0
   -0.5750   -0.0793    0.2088 C   0  0  0  0  0  0  0  0  0  0  0  0
   -0.8377    0.7088   -0.8919 C   0  0  0  0  0  0  0  0  0  0  0  0
    0.7440    1.0258   -1.6310 S   0  0  0  0  0  0  0  0  0  0  0  0
   -2.1282    1.2372   -1.4335 C   0  0  0  0  0  0  0  0  0  0  0  0
   -1.8740    2.0336   -2.3773 O   0  0  0  0  0  0  0  0  0  0  0  0
   -3.4527    0.9417   -1.0118 N   0  0  0  0  0  0  0  0  0  0  0  0
   -3.8569    0.0153    0.0093 C   0  0  0  0  0  0  0  0  0  0  0  0
   -2.8193   -1.0457    0.2822 C   0  0  0  0  0  0  0  0  0  0  0  0
   -1.6682   -0.5749    1.1220 C   0  0  0  0  0  0  0  0  0  0  0  0
    5.8091   -0.1109   -0.4824 H   0  0  0  0  0  0  0  0  0  0  0  0
    5.3058   -1.2810    0.8031 H   0  0  0  0  0  0  0  0  0  0  0  0
    6.0006    0.3247    1.2992 H   0  0  0  0  0  0  0  0  0  0  0  0
    3.2190   -1.1926   -0.6425 H   0  0  0  0  0  0  0  0  0  0  0  0
   -4.1487    1.4795   -1.5303 H   0  0  0  0  0  0  0  0  0  0  0  0
   -4.7281   -0.5497   -0.4370 H   0  0  0  0  0  0  0  0  0  0  0  0
   -4.2493    0.4870    0.9279 H   0  0  0  0  0  0  0  0  0  0  0  0
   -2.5560   -1.5359   -0.6533 H   0  0  0  0  0  0  0  0  0  0  0  0
   -3.3520   -1.8172    0.9009 H   0  0  0  0  0  0  0  0  0  0  0  0
   -2.0089    0.3378    1.6706 H   0  0  0  0  0  0  0  0  0  0  0  0
   -1.3174   -1.3330    1.8187 H   0  0  0  0  0  0  0  0  0  0  0  0
  1  2  1  0
  2  3  2  0
  2  4  1  0
  4  5  1  0
  5  6  2  0
  6  7  1  0
  7  8  2  0
  8  9  1  0
  8 10  1  0
 10 11  2  0
 10 12  1  0
 12 13  1  0
 13 14  1  0
 14 15  1  0
  9  5  1  0
 15  7  1  0
  1 16  1  0
  1 17  1  0
  1 18  1  0
  4 19  1  0
 12 20  1  0
 13 21  1  0
 13 22  1  0
 14 23  1  0
 14 24  1  0
 15 25  1  0
 15 26  1  0
M  END
$$$$
