@<TRIPOS>MOLECULE
*****
 49 52 0 0 0
SMALL
GASTEIGER

@<TRIPOS>ATOM
      1 C          -1.7906    0.6323    0.7976 C.3     1  UNL1        0.0434
      2 N          -2.2563    1.8336    1.5133 N.3     1  UNL1       -0.3242
      3 C          -1.7942    0.9741   -0.6466 C.3     1  UNL1        0.1050
      4 O          -1.3965    0.0110   -1.5428 O.3     1  UNL1       -0.4889
      5 C          -0.2248   -0.6574   -1.6961 C.ar    1  UNL1        0.1392
      6 C          -0.3178   -1.5582   -2.7687 C.ar    1  UNL1        0.0692
      7 N           0.7108   -2.3581   -3.1455 N.ar    1  UNL1       -0.2590
      8 C           1.8668   -2.2896   -2.4690 C.ar    1  UNL1        0.0355
      9 C           2.0347   -1.4345   -1.4099 C.ar    1  UNL1        0.0037
     10 C           0.9850   -0.6266   -1.0349 C.ar    1  UNL1       -0.0093
     11 C           3.2293   -1.2616   -0.5922 C.ar    1  UNL1       -0.0156
     12 C           3.5583   -0.0372   -0.0091 C.ar    1  UNL1       -0.0430
     13 C           4.6718    0.1544    0.7638 C.ar    1  UNL1        0.0230
     14 C           5.5348   -0.8750    1.0052 C.ar    1  UNL1        0.0660
     15 N           6.4992   -0.3444    1.7856 N.ar    1  UNL1       -0.2767
     16 N           6.2647    0.9191    2.0188 N.ar    1  UNL1       -0.1780
     17 C           5.1307    1.2948    1.4049 C.ar    1  UNL1        0.0674
     18 C           4.5422    2.6537    1.4395 C.3     1  UNL1       -0.0200
     19 C           5.2512   -2.0891    0.4543 C.ar    1  UNL1       -0.0357
     20 C           4.1260   -2.2795   -0.3258 C.ar    1  UNL1       -0.0520
     21 C          -2.8054   -0.4477    1.1501 C.3     1  UNL1       -0.0093
     22 C          -4.1795   -0.0795    0.7199 C.ar    1  UNL1       -0.0457
     23 C          -4.6987   -0.3970   -0.5238 C.ar    1  UNL1       -0.0575
     24 C          -5.9910   -0.0377   -0.8968 C.ar    1  UNL1       -0.0475
     25 C          -6.7963    0.6602   -0.0071 C.ar    1  UNL1        0.0179
     26 BR         -8.5853    1.1870   -0.4535 Br      1  UNL1       -0.0503
     27 C          -6.3115    0.9927    1.2396 C.ar    1  UNL1       -0.0475
     28 C          -5.0263    0.6234    1.5824 C.ar    1  UNL1       -0.0575
     29 H          -0.8356    0.3821    1.2496 H       1  UNL1        0.0495
     30 H          -3.1421    2.1152    1.0376 H       1  UNL1        0.1186
     31 H          -2.4368    1.6581    2.5082 H       1  UNL1        0.1186
     32 H          -1.2410    1.9336   -0.7726 H       1  UNL1        0.0712
     33 H          -2.8600    1.2468   -0.9060 H       1  UNL1        0.0712
     34 H          -1.1908   -1.7306   -3.4167 H       1  UNL1        0.0867
     35 H           2.7664   -2.8811   -2.6755 H       1  UNL1        0.0836
     36 H           0.9864    0.0786   -0.2374 H       1  UNL1        0.0661
     37 H           2.8923    0.8022   -0.1818 H       1  UNL1        0.0631
     38 H           7.3102   -0.8871    2.1414 H       1  UNL1        0.1889
     39 H           4.3847    2.9793    2.4959 H       1  UNL1        0.0293
     40 H           5.2491    3.3467    0.9307 H       1  UNL1        0.0293
     41 H           3.5956    2.6858    0.8715 H       1  UNL1        0.0293
     42 H           5.9349   -2.9012    0.6465 H       1  UNL1        0.0639
     43 H           3.8992   -3.2447   -0.7648 H       1  UNL1        0.0624
     44 H          -2.5646   -1.4199    0.6894 H       1  UNL1        0.0329
     45 H          -2.8250   -0.5604    2.2560 H       1  UNL1        0.0329
     46 H          -4.0858   -0.9381   -1.2246 H       1  UNL1        0.0621
     47 H          -6.4066   -0.2780   -1.8597 H       1  UNL1        0.0629
     48 H          -6.9454    1.5363    1.9265 H       1  UNL1        0.0629
     49 H          -4.7166    0.9134    2.5626 H       1  UNL1        0.0621
@<TRIPOS>BOND
     1     1     2    1
     2     1     3    1
     3     3     4    1
     4     4     5    1
     5     5     6   ar
     6     6     7   ar
     7     7     8   ar
     8     8     9   ar
     9     9    10   ar
    10     9    11    1
    11    11    12   ar
    12    12    13   ar
    13    13    14   ar
    14    14    15   ar
    15    15    16   ar
    16    16    17   ar
    17    17    18    1
    18    14    19   ar
    19    19    20   ar
    20     1    21    1
    21    21    22    1
    22    22    23   ar
    23    23    24   ar
    24    24    25   ar
    25    25    26    1
    26    25    27   ar
    27    27    28   ar
    28    10     5   ar
    29    20    11   ar
    30    28    22   ar
    31    17    13   ar
    32     1    29    1
    33     2    30    1
    34     2    31    1
    35     3    32    1
    36     3    33    1
    37     6    34    1
    38     8    35    1
    39    10    36    1
    40    12    37    1
    41    15    38    1
    42    18    39    1
    43    18    40    1
    44    18    41    1
    45    19    42    1
    46    20    43    1
    47    21    44    1
    48    21    45    1
    49    23    46    1
    50    24    47    1
    51    27    48    1
    52    28    49    1
