@<TRIPOS>MOLECULE
*****
 37 40 0 0 0
SMALL
GASTEIGER

@<TRIPOS>ATOM
      1 C          -5.8216   -0.5031   -0.9511 C.3     1  UNL1       -0.0613
      2 C          -5.2381    0.8141   -0.4806 C.3     1  UNL1       -0.0305
      3 C          -3.7773    0.6050   -0.2431 C.ar    1  UNL1       -0.0456
      4 C          -2.8672    0.8166   -1.2839 C.ar    1  UNL1       -0.0578
      5 C          -1.5291    0.6216   -1.0541 C.ar    1  UNL1       -0.0503
      6 C          -1.1236    0.2199    0.2074 C.ar    1  UNL1        0.0260
      7 C          -2.0176    0.0137    1.2243 C.ar    1  UNL1        0.0516
      8 C          -3.3876    0.2078    1.0080 C.ar    1  UNL1       -0.0345
      9 N          -1.5867   -0.3731    2.4254 N.ar    1  UNL1       -0.3203
     10 C          -0.2735   -0.5756    2.6895 C.ar    1  UNL1        0.2748
     11 O           0.1541   -0.9384    3.8085 O.2     1  UNL1       -0.2656
     12 C           0.6279   -0.3696    1.6710 C.ar    1  UNL1        0.1322
     13 N           1.9831   -0.4749    1.5834 N.ar    1  UNL1       -0.3336
     14 C           2.4418   -0.1732    0.3801 C.ar    1  UNL1        0.1408
     15 C           3.7853   -0.1414   -0.1807 C.ar    1  UNL1        0.0356
     16 C           3.9430    0.2320   -1.5325 C.ar    1  UNL1       -0.0497
     17 C           5.1550    0.2926   -2.1494 C.ar    1  UNL1       -0.0610
     18 C           6.2646   -0.0224   -1.4252 C.ar    1  UNL1       -0.0603
     19 C           6.1972   -0.3949   -0.1066 C.ar    1  UNL1       -0.0427
     20 C           4.9325   -0.4432    0.4851 C.ar    1  UNL1        0.0516
     21 CL          4.8361   -0.9200    2.1764 Cl      1  UNL1       -0.0828
     22 N           1.3156    0.1444   -0.3473 N.ar    1  UNL1       -0.2269
     23 C           0.2330    0.0279    0.4208 C.ar    1  UNL1        0.1039
     24 H          -6.3147   -0.3675   -1.9384 H       1  UNL1        0.0233
     25 H          -5.0211   -1.2604   -1.1190 H       1  UNL1        0.0233
     26 H          -6.5053   -0.9038   -0.1769 H       1  UNL1        0.0233
     27 H          -5.4004    1.6326   -1.2327 H       1  UNL1        0.0311
     28 H          -5.7364    1.1446    0.4585 H       1  UNL1        0.0311
     29 H          -3.2076    1.1254   -2.2441 H       1  UNL1        0.0620
     30 H          -0.8007    0.7740   -1.8283 H       1  UNL1        0.0625
     31 H          -4.1063    0.0489    1.8016 H       1  UNL1        0.0641
     32 H          -2.2664   -0.5260    3.1850 H       1  UNL1        0.1690
     33 H           2.5440   -0.7655    2.4059 H       1  UNL1        0.1675
     34 H           3.0526    0.4792   -2.0941 H       1  UNL1        0.0625
     35 H           5.2332    0.5800   -3.1755 H       1  UNL1        0.0618
     36 H           7.2289    0.0248   -1.9123 H       1  UNL1        0.0618
     37 H           7.0534   -0.6520    0.5012 H       1  UNL1        0.0632
@<TRIPOS>BOND
     1     1     2    1
     2     2     3    1
     3     3     4   ar
     4     4     5   ar
     5     5     6   ar
     6     6     7   ar
     7     7     8   ar
     8     7     9   ar
     9     9    10   ar
    10    10    11    2
    11    10    12   ar
    12    12    13   ar
    13    13    14   ar
    14    14    15    1
    15    15    16   ar
    16    16    17   ar
    17    17    18   ar
    18    18    19   ar
    19    19    20   ar
    20    20    21    1
    21    14    22   ar
    22    22    23   ar
    23     8     3   ar
    24    23    12   ar
    25    23     6   ar
    26    20    15   ar
    27     1    24    1
    28     1    25    1
    29     1    26    1
    30     2    27    1
    31     2    28    1
    32     4    29    1
    33     5    30    1
    34     8    31    1
    35     9    32    1
    36    13    33    1
    37    16    34    1
    38    17    35    1
    39    18    36    1
    40    19    37    1
