@<TRIPOS>MOLECULE
*****
 43 47 0 0 0
SMALL
GASTEIGER

@<TRIPOS>ATOM
      1 O           0.3731    2.7443   -0.9250 O.2     1  UNL1       -0.2698
      2 C          -0.7685    2.3307   -0.6172 C.2     1  UNL1        0.2501
      3 N          -1.9001    3.0761   -0.2629 N.am    1  UNL1       -0.2809
      4 C          -2.9687    2.1579    0.0023 C.ar    1  UNL1        0.0417
      5 C          -4.2927    2.3420    0.3878 C.ar    1  UNL1       -0.0392
      6 C          -5.1557    1.2600    0.5875 C.ar    1  UNL1       -0.0492
      7 C          -4.6364   -0.0226    0.3847 C.ar    1  UNL1        0.0195
      8 C          -3.3323   -0.2597    0.0030 C.ar    1  UNL1       -0.0413
      9 C          -2.5578    0.8494   -0.1706 C.ar    1  UNL1        0.0102
     10 C          -1.1663    0.9528   -0.5627 C.2     1  UNL1        0.0597
     11 C          -0.3452   -0.0325   -0.8377 C.2     1  UNL1        0.0065
     12 N           1.0070   -0.0935   -1.2243 N.pl3   1  UNL1       -0.3198
     13 C           2.3364    0.1613   -0.8347 C.ar    1  UNL1        0.0312
     14 C           2.8064   -0.8201    0.0207 C.ar    1  UNL1       -0.0355
     15 C           4.0959   -0.8301    0.5651 C.ar    1  UNL1       -0.0200
     16 C           4.9141    0.2086    0.2081 C.ar    1  UNL1       -0.0217
     17 C           6.2931    0.2448    0.7623 C.3     1  UNL1        0.0914
     18 S           6.5029   -1.4966    1.1649 S.O2    1  UNL1       -0.0229
     19 O           7.3724   -1.7146    2.3364 O.2     1  UNL1       -0.1737
     20 O           6.9024   -2.2573   -0.0627 O.2     1  UNL1       -0.1737
     21 C           4.7692   -1.8012    1.4992 C.3     1  UNL1        0.0914
     22 C           4.4373    1.1855   -0.6476 C.ar    1  UNL1       -0.0550
     23 C           3.1874    1.1876   -1.1703 C.ar    1  UNL1       -0.0402
     24 C          -5.5257   -1.1780    0.5881 C.ar    1  UNL1        0.1549
     25 C          -6.8553   -1.1288    0.9681 C.ar    1  UNL1        0.0737
     26 N          -7.3480   -2.3855    1.0543 N.ar    1  UNL1       -0.2240
     27 C          -6.3015   -3.1831    0.7227 C.ar    1  UNL1        0.1825
     28 O          -5.2457   -2.4374    0.4546 O.2     1  UNL1       -0.4425
     29 H          -1.9147    4.1178   -0.2140 H       1  UNL1        0.1552
     30 H          -4.6724    3.3295    0.5381 H       1  UNL1        0.0636
     31 H          -6.1844    1.4176    0.8872 H       1  UNL1        0.0625
     32 H          -2.9302   -1.2374   -0.1533 H       1  UNL1        0.0631
     33 H          -0.7330   -1.0617   -0.7711 H       1  UNL1        0.0789
     34 H           1.2149   -0.4755   -2.1954 H       1  UNL1        0.1516
     35 H           2.2053   -1.6859    0.3519 H       1  UNL1        0.0639
     36 H           6.3676    0.7933    1.7218 H       1  UNL1        0.0550
     37 H           7.0215    0.5602    0.0167 H       1  UNL1        0.0550
     38 H           4.5354   -1.4312    2.5214 H       1  UNL1        0.0550
     39 H           4.5017   -2.8372    1.3077 H       1  UNL1        0.0550
     40 H           5.0186    2.0465   -0.9845 H       1  UNL1        0.0621
     41 H           2.7682    1.9150   -1.8432 H       1  UNL1        0.0636
     42 H          -7.4552   -0.2395    1.1769 H       1  UNL1        0.0868
     43 H          -6.3405   -4.2717    0.6871 H       1  UNL1        0.1255
@<TRIPOS>BOND
     1     1     2    2
     2     2     3   am
     3     3     4    1
     4     4     5   ar
     5     5     6   ar
     6     6     7   ar
     7     7     8   ar
     8     8     9   ar
     9     9    10    1
    10    10    11    2
    11    11    12    1
    12    12    13    1
    13    13    14   ar
    14    14    15   ar
    15    15    16   ar
    16    16    17    1
    17    17    18    1
    18    18    19    2
    19    18    20    2
    20    18    21    1
    21    16    22   ar
    22    22    23   ar
    23     7    24    1
    24    24    25   ar
    25    25    26   ar
    26    26    27   ar
    27    27    28   ar
    28    10     2    1
    29    23    13   ar
    30    28    24   ar
    31     9     4   ar
    32    21    15    1
    33     3    29    1
    34     5    30    1
    35     6    31    1
    36     8    32    1
    37    11    33    1
    38    12    34    1
    39    14    35    1
    40    17    36    1
    41    17    37    1
    42    21    38    1
    43    21    39    1
    44    22    40    1
    45    23    41    1
    46    25    42    1
    47    27    43    1
