
     RDKit          3D

 58 61  0  0  0  0  0  0  0  0999 V2000
    1.0760   -0.2539    0.5000 N   0  0  0  0  0  0  0  0  0  0  0  0
    0.9403   -0.3300   -0.9410 C   0  0  0  0  0  0  0  0  0  0  0  0
   -0.5270   -0.1567   -1.2412 C   0  0  0  0  0  0  0  0  0  0  0  0
   -0.9433   -0.1774   -2.4334 O   0  0  0  0  0  0  0  0  0  0  0  0
   -1.4867    0.0341   -0.2128 N   0  0  0  0  0  0  0  0  0  0  0  0
   -2.8756    0.1922   -0.5925 C   0  0  0  0  0  0  0  0  0  0  0  0
   -3.3264    1.5306   -0.0374 C   0  0  0  0  0  0  0  0  0  0  0  0
   -4.7805    1.7929   -0.3838 C   0  0  0  0  0  0  0  0  0  0  0  0
   -5.1539    3.1417    0.2026 C   0  0  0  0  0  0  0  0  0  0  0  0
   -4.9737    3.0910    1.5913 O   0  0  0  0  0  0  0  0  0  0  0  0
   -3.6749   -0.8472    0.1040 C   0  0  0  0  0  0  0  0  0  0  0  0
   -3.4357   -1.0597    1.4396 C   0  0  0  0  0  0  0  0  0  0  0  0
   -4.1654   -2.0203    2.1066 C   0  0  0  0  0  0  0  0  0  0  0  0
   -5.1270   -2.7694    1.4633 C   0  0  0  0  0  0  0  0  0  0  0  0
   -6.0409   -3.9865    2.3403 Cl  0  0  0  0  0  0  0  0  0  0  0  0
   -5.3485   -2.5323    0.1078 C   0  0  0  0  0  0  0  0  0  0  0  0
   -4.6259   -1.5745   -0.5723 C   0  0  0  0  0  0  0  0  0  0  0  0
    1.3431   -1.6560   -1.4866 C   0  0  0  0  0  0  0  0  0  0  0  0
    2.8010   -1.9273   -1.5810 C   0  0  0  0  0  0  0  0  0  0  0  0
    3.5367   -0.6853   -1.2782 N   0  0  0  0  0  0  0  0  0  0  0  0
    4.6195   -0.7703   -0.4155 C   0  0  0  0  0  0  0  0  0  0  0  0
    5.3105   -1.9570   -0.3287 N   0  0  0  0  0  0  0  0  0  0  0  0
    6.3872   -2.1342    0.4340 C   0  0  0  0  0  0  0  0  0  0  0  0
    6.8086   -1.0854    1.1527 N   0  0  0  0  0  0  0  0  0  0  0  0
    6.2175    0.1078    1.1466 C   0  0  0  0  0  0  0  0  0  0  0  0
    6.4824    1.2428    1.7958 N   0  0  0  0  0  0  0  0  0  0  0  0
    5.5652    2.1493    1.4449 C   0  0  0  0  0  0  0  0  0  0  0  0
    4.6824    1.5763    0.5398 C   0  0  0  0  0  0  0  0  0  0  0  0
    5.0927    0.2791    0.3450 C   0  0  0  0  0  0  0  0  0  0  0  0
    3.0784    0.4747   -1.9502 C   0  0  0  0  0  0  0  0  0  0  0  0
    1.6530    0.8371   -1.5786 C   0  0  0  0  0  0  0  0  0  0  0  0
    0.9831    0.7455    0.7888 H   0  0  0  0  0  0  0  0  0  0  0  0
    1.9345   -0.7145    0.8379 H   0  0  0  0  0  0  0  0  0  0  0  0
   -1.1606    0.0539    0.7735 H   0  0  0  0  0  0  0  0  0  0  0  0
   -2.9956    0.1458   -1.6789 H   0  0  0  0  0  0  0  0  0  0  0  0
   -3.2119    1.5765    1.0483 H   0  0  0  0  0  0  0  0  0  0  0  0
   -2.7295    2.3335   -0.5113 H   0  0  0  0  0  0  0  0  0  0  0  0
   -5.4155    1.0147    0.0554 H   0  0  0  0  0  0  0  0  0  0  0  0
   -4.8778    1.8703   -1.4952 H   0  0  0  0  0  0  0  0  0  0  0  0
   -6.2260    3.3759    0.0162 H   0  0  0  0  0  0  0  0  0  0  0  0
   -4.5050    3.9421   -0.1902 H   0  0  0  0  0  0  0  0  0  0  0  0
   -4.2217    3.6519    1.8916 H   0  0  0  0  0  0  0  0  0  0  0  0
   -2.6923   -0.4992    1.9941 H   0  0  0  0  0  0  0  0  0  0  0  0
   -3.9805   -2.1905    3.1568 H   0  0  0  0  0  0  0  0  0  0  0  0
   -6.1104   -3.1338   -0.3787 H   0  0  0  0  0  0  0  0  0  0  0  0
   -4.8084   -1.3998   -1.6287 H   0  0  0  0  0  0  0  0  0  0  0  0
    0.8314   -2.4285   -0.8399 H   0  0  0  0  0  0  0  0  0  0  0  0
    0.9003   -1.8516   -2.5053 H   0  0  0  0  0  0  0  0  0  0  0  0
    3.1241   -2.2029   -2.6056 H   0  0  0  0  0  0  0  0  0  0  0  0
    3.0603   -2.7243   -0.8442 H   0  0  0  0  0  0  0  0  0  0  0  0
    6.9238   -3.0836    0.4907 H   0  0  0  0  0  0  0  0  0  0  0  0
    7.2629    1.4632    2.4834 H   0  0  0  0  0  0  0  0  0  0  0  0
    5.5004    3.1693    1.7952 H   0  0  0  0  0  0  0  0  0  0  0  0
    3.8276    2.0365    0.0796 H   0  0  0  0  0  0  0  0  0  0  0  0
    2.9614    0.1391   -3.0548 H   0  0  0  0  0  0  0  0  0  0  0  0
    3.7501    1.3247   -2.0414 H   0  0  0  0  0  0  0  0  0  0  0  0
    1.6982    1.6533   -0.8411 H   0  0  0  0  0  0  0  0  0  0  0  0
    1.0681    1.2064   -2.4395 H   0  0  0  0  0  0  0  0  0  0  0  0
  1  2  1  0
  2  3  1  0
  3  4  2  0
  3  5  1  0
  5  6  1  0
  6  7  1  0
  7  8  1  0
  8  9  1  0
  9 10  1  0
  6 11  1  0
 11 12  2  0
 12 13  1  0
 13 14  2  0
 14 15  1  0
 14 16  1  0
 16 17  2  0
  2 18  1  0
 18 19  1  0
 19 20  1  0
 20 21  1  0
 21 22  2  0
 22 23  1  0
 23 24  2  0
 24 25  1  0
 25 26  1  0
 26 27  1  0
 27 28  2  0
 28 29  1  0
 20 30  1  0
 30 31  1  0
 31  2  1  0
 17 11  1  0
 29 21  1  0
 29 25  2  0
  1 32  1  0
  1 33  1  0
  5 34  1  0
  6 35  1  0
  7 36  1  0
  7 37  1  0
  8 38  1  0
  8 39  1  0
  9 40  1  0
  9 41  1  0
 10 42  1  0
 12 43  1  0
 13 44  1  0
 16 45  1  0
 17 46  1  0
 18 47  1  0
 18 48  1  0
 19 49  1  0
 19 50  1  0
 23 51  1  0
 26 52  1  0
 27 53  1  0
 28 54  1  0
 30 55  1  0
 30 56  1  0
 31 57  1  0
 31 58  1  0
M  END
$$$$
