@<TRIPOS>MOLECULE
*****
 58 61 0 0 0
SMALL
GASTEIGER

@<TRIPOS>ATOM
      1 N           1.0760   -0.2539    0.5000 N.3     1  UNL1       -0.3173
      2 C           0.9403   -0.3300   -0.9410 C.3     1  UNL1        0.0965
      3 C          -0.5270   -0.1567   -1.2412 C.2     1  UNL1        0.2336
      4 O          -0.9433   -0.1774   -2.4334 O.2     1  UNL1       -0.2738
      5 N          -1.4867    0.0341   -0.2128 N.am    1  UNL1       -0.3070
      6 C          -2.8756    0.1922   -0.5925 C.3     1  UNL1        0.0485
      7 C          -3.3264    1.5306   -0.0374 C.3     1  UNL1       -0.0283
      8 C          -4.7805    1.7929   -0.3838 C.3     1  UNL1       -0.0277
      9 C          -5.1539    3.1417    0.2026 C.3     1  UNL1        0.0443
     10 O          -4.9737    3.0910    1.5913 O.3     1  UNL1       -0.3950
     11 C          -3.6749   -0.8472    0.1040 C.ar    1  UNL1       -0.0271
     12 C          -3.4357   -1.0597    1.4396 C.ar    1  UNL1       -0.0554
     13 C          -4.1654   -2.0203    2.1066 C.ar    1  UNL1       -0.0431
     14 C          -5.1270   -2.7694    1.4633 C.ar    1  UNL1        0.0410
     15 CL         -6.0409   -3.9865    2.3403 Cl      1  UNL1       -0.0835
     16 C          -5.3485   -2.5323    0.1078 C.ar    1  UNL1       -0.0431
     17 C          -4.6259   -1.5745   -0.5723 C.ar    1  UNL1       -0.0554
     18 C           1.3431   -1.6560   -1.4866 C.3     1  UNL1       -0.0104
     19 C           2.8010   -1.9273   -1.5810 C.3     1  UNL1        0.0156
     20 N           3.5367   -0.6853   -1.2782 N.pl3   1  UNL1       -0.3144
     21 C           4.6195   -0.7703   -0.4155 C.ar    1  UNL1        0.1337
     22 N           5.3105   -1.9570   -0.3287 N.ar    1  UNL1       -0.2200
     23 C           6.3872   -2.1342    0.4340 C.ar    1  UNL1        0.1204
     24 N           6.8086   -1.0854    1.1527 N.ar    1  UNL1       -0.2178
     25 C           6.2175    0.1078    1.1466 C.ar    1  UNL1        0.1432
     26 N           6.4824    1.2428    1.7958 N.ar    1  UNL1       -0.3457
     27 C           5.5652    2.1493    1.4449 C.ar    1  UNL1        0.0042
     28 C           4.6824    1.5763    0.5398 C.ar    1  UNL1       -0.0318
     29 C           5.0927    0.2791    0.3450 C.ar    1  UNL1        0.0585
     30 C           3.0784    0.4747   -1.9502 C.3     1  UNL1        0.0156
     31 C           1.6530    0.8371   -1.5786 C.3     1  UNL1       -0.0104
     32 H           0.9831    0.7455    0.7888 H       1  UNL1        0.1192
     33 H           1.9345   -0.7145    0.8379 H       1  UNL1        0.1192
     34 H          -1.1606    0.0539    0.7735 H       1  UNL1        0.1493
     35 H          -2.9956    0.1458   -1.6789 H       1  UNL1        0.0548
     36 H          -3.2119    1.5765    1.0483 H       1  UNL1        0.0287
     37 H          -2.7295    2.3335   -0.5113 H       1  UNL1        0.0287
     38 H          -5.4155    1.0147    0.0554 H       1  UNL1        0.0288
     39 H          -4.8778    1.8703   -1.4952 H       1  UNL1        0.0288
     40 H          -6.2260    3.3759    0.0162 H       1  UNL1        0.0557
     41 H          -4.5050    3.9421   -0.1902 H       1  UNL1        0.0557
     42 H          -4.2217    3.6519    1.8916 H       1  UNL1        0.2094
     43 H          -2.6923   -0.4992    1.9941 H       1  UNL1        0.0621
     44 H          -3.9805   -2.1905    3.1568 H       1  UNL1        0.0632
     45 H          -6.1104   -3.1338   -0.3787 H       1  UNL1        0.0632
     46 H          -4.8084   -1.3998   -1.6287 H       1  UNL1        0.0621
     47 H           0.8314   -2.4285   -0.8399 H       1  UNL1        0.0303
     48 H           0.9003   -1.8516   -2.5053 H       1  UNL1        0.0303
     49 H           3.1241   -2.2029   -2.6056 H       1  UNL1        0.0465
     50 H           3.0603   -2.7243   -0.8442 H       1  UNL1        0.0465
     51 H           6.9238   -3.0836    0.4907 H       1  UNL1        0.1048
     52 H           7.2629    1.4632    2.4834 H       1  UNL1        0.1668
     53 H           5.5004    3.1693    1.7952 H       1  UNL1        0.0807
     54 H           3.8276    2.0365    0.0796 H       1  UNL1        0.0640
     55 H           2.9614    0.1391   -3.0548 H       1  UNL1        0.0465
     56 H           3.7501    1.3247   -2.0414 H       1  UNL1        0.0465
     57 H           1.6982    1.6533   -0.8411 H       1  UNL1        0.0303
     58 H           1.0681    1.2064   -2.4395 H       1  UNL1        0.0303
@<TRIPOS>BOND
     1     1     2    1
     2     2     3    1
     3     3     4    2
     4     3     5   am
     5     5     6    1
     6     6     7    1
     7     7     8    1
     8     8     9    1
     9     9    10    1
    10     6    11    1
    11    11    12   ar
    12    12    13   ar
    13    13    14   ar
    14    14    15    1
    15    14    16   ar
    16    16    17   ar
    17     2    18    1
    18    18    19    1
    19    19    20    1
    20    20    21    1
    21    21    22   ar
    22    22    23   ar
    23    23    24   ar
    24    24    25   ar
    25    25    26   ar
    26    26    27   ar
    27    27    28   ar
    28    28    29   ar
    29    20    30    1
    30    30    31    1
    31    31     2    1
    32    17    11   ar
    33    29    21   ar
    34    29    25   ar
    35     1    32    1
    36     1    33    1
    37     5    34    1
    38     6    35    1
    39     7    36    1
    40     7    37    1
    41     8    38    1
    42     8    39    1
    43     9    40    1
    44     9    41    1
    45    10    42    1
    46    12    43    1
    47    13    44    1
    48    16    45    1
    49    17    46    1
    50    18    47    1
    51    18    48    1
    52    19    49    1
    53    19    50    1
    54    23    51    1
    55    26    52    1
    56    27    53    1
    57    28    54    1
    58    30    55    1
    59    30    56    1
    60    31    57    1
    61    31    58    1
