@<TRIPOS>MOLECULE
*****
 69 73 0 0 0
SMALL
GASTEIGER

@<TRIPOS>ATOM
      1 O          -8.8350   -1.9177    0.5292 O.3     1  UNL1       -0.3199
      2 P          -7.2018   -2.2300    0.8864 P.3     1  UNL1        0.4007
      3 O          -6.7105   -3.6891    0.1939 O.3     1  UNL1       -0.3199
      4 O          -7.0288   -2.2954    2.3697 O.2     1  UNL1       -0.2522
      5 C          -6.2416   -0.8492    0.1966 C.3     1  UNL1        0.3711
      6 F          -6.5441    0.2888    0.9207 F       1  UNL1       -0.1866
      7 F          -6.6053   -0.6214   -1.1156 F       1  UNL1       -0.1866
      8 C          -4.7890   -1.1506    0.2311 C.ar    1  UNL1        0.0328
      9 C          -4.0483   -1.0257    1.3851 C.ar    1  UNL1       -0.0521
     10 C          -2.7038   -1.3151    1.3732 C.ar    1  UNL1       -0.0580
     11 C          -1.9938   -1.7452    0.2359 C.ar    1  UNL1       -0.0447
     12 C          -0.6020   -1.9847    0.5315 C.3     1  UNL1        0.0022
     13 C           0.3519   -0.8071    0.3905 C.3     1  UNL1        0.0987
     14 C           1.6864   -1.4067    0.8335 C.3     1  UNL1        0.0022
     15 C           2.8309   -0.4962    0.7821 C.ar    1  UNL1       -0.0447
     16 C           3.4440    0.3399    1.6814 C.ar    1  UNL1       -0.0580
     17 C           4.5331    1.1144    1.3681 C.ar    1  UNL1       -0.0521
     18 C           5.0831    1.0932    0.1041 C.ar    1  UNL1        0.0328
     19 C           4.5085    0.2706   -0.8410 C.ar    1  UNL1       -0.0521
     20 C           3.4136   -0.4962   -0.4957 C.ar    1  UNL1       -0.0580
     21 C           6.2618    1.9388   -0.2169 C.3     1  UNL1        0.3711
     22 F           6.0726    2.4412   -1.4915 F       1  UNL1       -0.1866
     23 F           6.3293    2.9351    0.7257 F       1  UNL1       -0.1866
     24 P           7.7267    0.8675   -0.1817 P.3     1  UNL1        0.4007
     25 O           9.1287    1.6974   -0.5923 O.3     1  UNL1       -0.3199
     26 O           7.4313   -0.3776   -1.3160 O.3     1  UNL1       -0.3199
     27 O           7.8096    0.1991    1.1637 O.2     1  UNL1       -0.2522
     28 N          -0.0467    0.2633    1.2657 N.ar    1  UNL1       -0.2329
     29 N           0.3092    0.6160    2.4785 N.ar    1  UNL1       -0.0637
     30 N          -0.3160    1.6860    2.9118 N.ar    1  UNL1       -0.1294
     31 C          -1.1612    2.1017    1.9340 C.ar    1  UNL1        0.1127
     32 C          -0.9751    1.1826    0.8953 C.ar    1  UNL1        0.0900
     33 C          -1.7899    1.4812   -0.1915 C.ar    1  UNL1       -0.0344
     34 C          -2.6580    2.5289   -0.2494 C.ar    1  UNL1       -0.0596
     35 C          -2.7751    3.3843    0.8211 C.ar    1  UNL1       -0.0596
     36 C          -2.0109    3.1730    1.9468 C.ar    1  UNL1       -0.0324
     37 C           0.5175   -0.3289   -1.0068 C.ar    1  UNL1       -0.0165
     38 C           1.0321    0.9786   -0.9776 C.ar    1  UNL1       -0.0534
     39 C           1.3023    1.6629   -2.1697 C.ar    1  UNL1       -0.0233
     40 C           1.0759    1.0856   -3.4018 C.ar    1  UNL1        0.1584
     41 F           1.3350    1.7427   -4.5451 F       1  UNL1       -0.2025
     42 C           0.5732   -0.1931   -3.3926 C.ar    1  UNL1        0.1587
     43 F           0.3124   -0.8572   -4.5388 F       1  UNL1       -0.2025
     44 C           0.3012   -0.8833   -2.2455 C.ar    1  UNL1       -0.0181
     45 C          -2.8070   -1.8412   -0.8613 C.ar    1  UNL1       -0.0580
     46 C          -4.1520   -1.5677   -0.9157 C.ar    1  UNL1       -0.0521
     47 H          -9.4026   -2.7177    0.6325 H       1  UNL1        0.2199
     48 H          -6.8277   -4.3928    0.8740 H       1  UNL1        0.2199
     49 H          -4.6068   -0.6959    2.2450 H       1  UNL1        0.0622
     50 H          -2.2679   -1.1642    2.3679 H       1  UNL1        0.0620
     51 H          -0.4366   -2.3410    1.5830 H       1  UNL1        0.0340
     52 H          -0.1499   -2.7967   -0.0916 H       1  UNL1        0.0340
     53 H           1.8739   -2.3632    0.2802 H       1  UNL1        0.0340
     54 H           1.4935   -1.7644    1.8868 H       1  UNL1        0.0340
     55 H           2.9876    0.3101    2.6566 H       1  UNL1        0.0620
     56 H           4.9191    1.7290    2.1699 H       1  UNL1        0.0622
     57 H           4.9730    0.2917   -1.8022 H       1  UNL1        0.0622
     58 H           3.0768   -1.0938   -1.3593 H       1  UNL1        0.0620
     59 H           9.6694    1.0945   -1.1686 H       1  UNL1        0.2199
     60 H           7.9043   -1.1943   -1.0642 H       1  UNL1        0.2199
     61 H          -1.7558    0.8475   -1.0420 H       1  UNL1        0.0639
     62 H          -3.2632    2.7104   -1.1190 H       1  UNL1        0.0618
     63 H          -3.4534    4.2069    0.7814 H       1  UNL1        0.0618
     64 H          -2.0673    3.8150    2.8107 H       1  UNL1        0.0640
     65 H           1.2734    1.5931   -0.1074 H       1  UNL1        0.0622
     66 H           1.7000    2.6730   -2.2006 H       1  UNL1        0.0647
     67 H          -0.0672   -1.8716   -2.1403 H       1  UNL1        0.0651
     68 H          -2.3012   -2.1768   -1.7494 H       1  UNL1        0.0620
     69 H          -4.6460   -1.6923   -1.8527 H       1  UNL1        0.0622
@<TRIPOS>BOND
     1     1     2    1
     2     2     3    1
     3     2     4    2
     4     2     5    1
     5     5     6    1
     6     5     7    1
     7     5     8    1
     8     8     9   ar
     9     9    10   ar
    10    10    11   ar
    11    11    12    1
    12    12    13    1
    13    13    14    1
    14    14    15    1
    15    15    16   ar
    16    16    17   ar
    17    17    18   ar
    18    18    19   ar
    19    19    20   ar
    20    18    21    1
    21    21    22    1
    22    21    23    1
    23    21    24    1
    24    24    25    1
    25    24    26    1
    26    24    27    2
    27    13    28    1
    28    28    29   ar
    29    29    30   ar
    30    30    31   ar
    31    31    32   ar
    32    32    33   ar
    33    33    34   ar
    34    34    35   ar
    35    35    36   ar
    36    13    37    1
    37    37    38   ar
    38    38    39   ar
    39    39    40   ar
    40    40    41    1
    41    40    42   ar
    42    42    43    1
    43    42    44   ar
    44    11    45   ar
    45    45    46   ar
    46    46     8   ar
    47    20    15   ar
    48    32    28   ar
    49    44    37   ar
    50    36    31   ar
    51     1    47    1
    52     3    48    1
    53     9    49    1
    54    10    50    1
    55    12    51    1
    56    12    52    1
    57    14    53    1
    58    14    54    1
    59    16    55    1
    60    17    56    1
    61    19    57    1
    62    20    58    1
    63    25    59    1
    64    26    60    1
    65    33    61    1
    66    34    62    1
    67    35    63    1
    68    36    64    1
    69    38    65    1
    70    39    66    1
    71    44    67    1
    72    45    68    1
    73    46    69    1
