@<TRIPOS>MOLECULE
*****
 32 33 0 0 0
SMALL
GASTEIGER

@<TRIPOS>ATOM
      1 C          -4.1370    1.0607    1.0996 C.3     1  UNL1       -0.0332
      2 C          -3.0409    0.3648    0.3765 C.ar    1  UNL1        0.0302
      3 C          -1.7768    0.2159    0.9016 C.ar    1  UNL1        0.0199
      4 N          -0.7717   -0.4272    0.2282 N.ar    1  UNL1       -0.2737
      5 C           0.4710   -0.5174    0.8606 C.3     1  UNL1        0.1420
      6 C           1.4840   -1.4631    0.5071 C.3     1  UNL1        0.0244
      7 C           2.5301   -0.7018   -0.3179 C.3     1  UNL1        0.1617
      8 N           3.8810   -0.9541    0.1502 N.2     1  UNL1        0.0825
      9 N           4.0029   -1.7143    1.1320 N.2     1  UNL1       -0.0144
     10 N           4.4096   -2.4508    2.0346 N.2     1  UNL1       -0.3282
     11 C           2.1086    0.7073   -0.0957 C.3     1  UNL1        0.1131
     12 C           1.8192    1.4649   -1.3769 C.3     1  UNL1        0.0727
     13 O           1.5868    2.8005   -1.0302 O.3     1  UNL1       -0.3924
     14 O           1.0730    0.7654    0.7838 O.3     1  UNL1       -0.3486
     15 C          -1.1003   -0.9046   -0.9818 C.ar    1  UNL1        0.3313
     16 O          -0.1625   -1.4899   -1.5801 O.2     1  UNL1       -0.2464
     17 N          -2.3308   -0.7785   -1.5321 N.ar    1  UNL1       -0.2747
     18 C          -3.3202   -0.1475   -0.8735 C.ar    1  UNL1        0.2568
     19 O          -4.4509   -0.0509   -1.4193 O.2     1  UNL1       -0.2674
     20 H          -4.7759    1.5664    0.3311 H       1  UNL1        0.0280
     21 H          -3.7449    1.7929    1.8494 H       1  UNL1        0.0280
     22 H          -4.7283    0.2912    1.6616 H       1  UNL1        0.0280
     23 H          -1.5892    0.6363    1.8997 H       1  UNL1        0.0816
     24 H           0.2699   -0.6048    1.9795 H       1  UNL1        0.0840
     25 H           1.2686   -2.3914   -0.0049 H       1  UNL1        0.0332
     26 H           2.0655   -1.7955    1.4257 H       1  UNL1        0.0332
     27 H           2.5169   -0.9690   -1.3769 H       1  UNL1        0.0643
     28 H           2.9786    1.2402    0.3899 H       1  UNL1        0.0643
     29 H           0.8892    1.0393   -1.7988 H       1  UNL1        0.0584
     30 H           2.6405    1.3878   -2.0882 H       1  UNL1        0.0584
     31 H           2.3833    3.2228   -0.6566 H       1  UNL1        0.2095
     32 H          -2.4491   -1.1957   -2.4781 H       1  UNL1        0.1734
@<TRIPOS>UNITY_ATOM_ATTR
9 1
charge 1
10 1
charge -1
@<TRIPOS>BOND
     1     1     2    1
     2     2     3   ar
     3     3     4   ar
     4     4     5    1
     5     5     6    1
     6     6     7    1
     7     7     8    1
     8     8     9    2
     9     9    10    2
    10     7    11    1
    11    11    12    1
    12    12    13    1
    13    11    14    1
    14     4    15   ar
    15    15    16    2
    16    15    17   ar
    17    17    18   ar
    18    18    19    2
    19    18     2   ar
    20    14     5    1
    21     1    20    1
    22     1    21    1
    23     1    22    1
    24     3    23    1
    25     5    24    1
    26     6    25    1
    27     6    26    1
    28     7    27    1
    29    11    28    1
    30    12    29    1
    31    12    30    1
    32    13    31    1
    33    17    32    1
