
     RDKit          3D

 56 59  0  0  0  0  0  0  0  0999 V2000
    6.7466    2.7476   -2.2217 C   0  0  0  0  0  0  0  0  0  0  0  0
    6.2760    1.8312   -1.1451 C   0  0  0  0  0  0  0  0  0  0  0  0
    6.3748    2.2212    0.1742 C   0  0  0  0  0  0  0  0  0  0  0  0
    5.9246    1.3336    1.1384 C   0  0  0  0  0  0  0  0  0  0  0  0
    5.3875    0.0909    0.8467 C   0  0  0  0  0  0  0  0  0  0  0  0
    5.0179   -0.8014    1.9259 C   0  0  0  0  0  0  0  0  0  0  0  0
    5.0875   -0.3726    3.1202 O   0  0  0  0  0  0  0  0  0  0  0  0
    4.5911   -2.1042    1.7881 O   0  0  0  0  0  0  0  0  0  0  0  0
    5.2879   -0.2938   -0.4710 C   0  0  0  0  0  0  0  0  0  0  0  0
    4.7673   -1.5039   -0.8644 O   0  0  0  0  0  0  0  0  0  0  0  0
    3.4253   -1.8364   -0.6807 C   0  0  0  0  0  0  0  0  0  0  0  0
    2.6055   -0.9386   -0.1572 N   0  0  0  0  0  0  0  0  0  0  0  0
    1.2869   -1.1961    0.0493 C   0  0  0  0  0  0  0  0  0  0  0  0
    0.5204   -0.1899    0.5977 O   0  0  0  0  0  0  0  0  0  0  0  0
   -0.7816   -0.3666    0.9502 C   0  0  0  0  0  0  0  0  0  0  0  0
   -1.8060    0.3147    0.2757 C   0  0  0  0  0  0  0  0  0  0  0  0
   -3.1346    0.1660    0.6045 C   0  0  0  0  0  0  0  0  0  0  0  0
   -4.1683    0.8996   -0.1306 C   0  0  0  0  0  0  0  0  0  0  0  0
   -3.9266    2.1561   -0.6629 C   0  0  0  0  0  0  0  0  0  0  0  0
   -4.8940    2.8529   -1.3555 C   0  0  0  0  0  0  0  0  0  0  0  0
   -6.1529    2.3218   -1.5475 C   0  0  0  0  0  0  0  0  0  0  0  0
   -6.4034    1.0676   -1.0194 C   0  0  0  0  0  0  0  0  0  0  0  0
   -7.7632    0.4937   -1.2275 C   0  0  0  0  0  0  0  0  0  0  0  0
   -8.5849    0.9142   -0.1050 N   0  0  0  0  0  0  0  0  0  0  0  0
   -5.4258    0.3701   -0.3229 C   0  0  0  0  0  0  0  0  0  0  0  0
   -3.4231   -0.6946    1.6418 C   0  0  0  0  0  0  0  0  0  0  0  0
   -2.4324   -1.3770    2.3227 C   0  0  0  0  0  0  0  0  0  0  0  0
   -1.1233   -1.2260    1.9943 C   0  0  0  0  0  0  0  0  0  0  0  0
   -0.0521   -1.8745    2.6755 N   0  0  0  0  0  0  0  0  0  0  0  0
    0.7759   -2.4175   -0.2913 C   0  0  0  0  0  0  0  0  0  0  0  0
   -0.5619   -2.7291   -0.1412 F   0  0  0  0  0  0  0  0  0  0  0  0
    1.6160   -3.3801   -0.8432 C   0  0  0  0  0  0  0  0  0  0  0  0
    2.9361   -3.0746   -1.0313 C   0  0  0  0  0  0  0  0  0  0  0  0
    3.7670   -3.9872   -1.5620 F   0  0  0  0  0  0  0  0  0  0  0  0
    5.7446    0.6028   -1.4541 C   0  0  0  0  0  0  0  0  0  0  0  0
    6.0133    2.7845   -3.0499 H   0  0  0  0  0  0  0  0  0  0  0  0
    6.9856    3.7476   -1.8109 H   0  0  0  0  0  0  0  0  0  0  0  0
    7.7248    2.3225   -2.5728 H   0  0  0  0  0  0  0  0  0  0  0  0
    6.7886    3.1863    0.4607 H   0  0  0  0  0  0  0  0  0  0  0  0
    5.9830    1.5990    2.1921 H   0  0  0  0  0  0  0  0  0  0  0  0
    4.3977   -2.7260    2.5645 H   0  0  0  0  0  0  0  0  0  0  0  0
   -1.5575    0.9978   -0.5488 H   0  0  0  0  0  0  0  0  0  0  0  0
   -2.9312    2.5737   -0.5098 H   0  0  0  0  0  0  0  0  0  0  0  0
   -4.6517    3.8408   -1.7551 H   0  0  0  0  0  0  0  0  0  0  0  0
   -6.9067    2.8760   -2.0926 H   0  0  0  0  0  0  0  0  0  0  0  0
   -8.1797    0.9215   -2.1418 H   0  0  0  0  0  0  0  0  0  0  0  0
   -7.7388   -0.6150   -1.2352 H   0  0  0  0  0  0  0  0  0  0  0  0
   -9.5463    1.2084   -0.4003 H   0  0  0  0  0  0  0  0  0  0  0  0
   -8.5954    0.2331    0.6738 H   0  0  0  0  0  0  0  0  0  0  0  0
   -5.6604   -0.5974    0.0697 H   0  0  0  0  0  0  0  0  0  0  0  0
   -4.4581   -0.8312    1.9218 H   0  0  0  0  0  0  0  0  0  0  0  0
   -2.6875   -2.0558    3.1444 H   0  0  0  0  0  0  0  0  0  0  0  0
   -0.0417   -2.9197    2.6869 H   0  0  0  0  0  0  0  0  0  0  0  0
    0.6841   -1.3085    3.1392 H   0  0  0  0  0  0  0  0  0  0  0  0
    1.1943   -4.3442   -1.1064 H   0  0  0  0  0  0  0  0  0  0  0  0
    5.6791    0.3217   -2.5000 H   0  0  0  0  0  0  0  0  0  0  0  0
  1  2  1  0
  2  3  2  0
  3  4  1  0
  4  5  2  0
  5  6  1  0
  6  7  2  0
  6  8  1  0
  5  9  1  0
  9 10  1  0
 10 11  1  0
 11 12  2  0
 12 13  1  0
 13 14  1  0
 14 15  1  0
 15 16  2  0
 16 17  1  0
 17 18  1  0
 18 19  2  0
 19 20  1  0
 20 21  2  0
 21 22  1  0
 22 23  1  0
 23 24  1  0
 22 25  2  0
 17 26  2  0
 26 27  1  0
 27 28  2  0
 28 29  1  0
 13 30  2  0
 30 31  1  0
 30 32  1  0
 32 33  2  0
 33 34  1  0
  9 35  2  0
 35  2  1  0
 33 11  1  0
 28 15  1  0
 25 18  1  0
  1 36  1  0
  1 37  1  0
  1 38  1  0
  3 39  1  0
  4 40  1  0
  8 41  1  0
 16 42  1  0
 19 43  1  0
 20 44  1  0
 21 45  1  0
 23 46  1  0
 23 47  1  0
 24 48  1  0
 24 49  1  0
 25 50  1  0
 26 51  1  0
 27 52  1  0
 29 53  1  0
 29 54  1  0
 32 55  1  0
 35 56  1  0
M  END
$$$$
