@<TRIPOS>MOLECULE
*****
 56 59 0 0 0
SMALL
GASTEIGER

@<TRIPOS>ATOM
      1 C           6.7466    2.7476   -2.2217 C.3     1  UNL1       -0.0396
      2 C           6.2760    1.8312   -1.1451 C.ar    1  UNL1       -0.0469
      3 C           6.3748    2.2212    0.1742 C.ar    1  UNL1       -0.0578
      4 C           5.9246    1.3336    1.1384 C.ar    1  UNL1       -0.0439
      5 C           5.3875    0.0909    0.8467 C.ar    1  UNL1        0.1010
      6 C           5.0179   -0.8014    1.9259 C.2     1  UNL1        0.3404
      7 O           5.0875   -0.3726    3.1202 O.2     1  UNL1       -0.2450
      8 O           4.5911   -2.1042    1.7881 O.3     1  UNL1       -0.4770
      9 C           5.2879   -0.2938   -0.4710 C.ar    1  UNL1        0.1447
     10 O           4.7673   -1.5039   -0.8644 O.3     1  UNL1       -0.4348
     11 C           3.4253   -1.8364   -0.6807 C.ar    1  UNL1        0.2598
     12 N           2.6055   -0.9386   -0.1572 N.ar    1  UNL1       -0.1722
     13 C           1.2869   -1.1961    0.0493 C.ar    1  UNL1        0.2598
     14 O           0.5204   -0.1899    0.5977 O.3     1  UNL1       -0.4337
     15 C          -0.7816   -0.3666    0.9502 C.ar    1  UNL1        0.1515
     16 C          -1.8060    0.3147    0.2757 C.ar    1  UNL1       -0.0097
     17 C          -3.1346    0.1660    0.6045 C.ar    1  UNL1       -0.0143
     18 C          -4.1683    0.8996   -0.1306 C.ar    1  UNL1       -0.0175
     19 C          -3.9266    2.1561   -0.6629 C.ar    1  UNL1       -0.0540
     20 C          -4.8940    2.8529   -1.3555 C.ar    1  UNL1       -0.0609
     21 C          -6.1529    2.3218   -1.5475 C.ar    1  UNL1       -0.0573
     22 C          -6.4034    1.0676   -1.0194 C.ar    1  UNL1       -0.0332
     23 C          -7.7632    0.4937   -1.2275 C.3     1  UNL1        0.0186
     24 N          -8.5849    0.9142   -0.1050 N.3     1  UNL1       -0.3261
     25 C          -5.4258    0.3701   -0.3229 C.ar    1  UNL1       -0.0496
     26 C          -3.4231   -0.6946    1.6418 C.ar    1  UNL1       -0.0521
     27 C          -2.4324   -1.3770    2.3227 C.ar    1  UNL1       -0.0369
     28 C          -1.1233   -1.2260    1.9943 C.ar    1  UNL1        0.0675
     29 N          -0.0521   -1.8745    2.6755 N.pl3   1  UNL1       -0.3551
     30 C           0.7759   -2.4175   -0.2913 C.ar    1  UNL1        0.1879
     31 F          -0.5619   -2.7291   -0.1412 F       1  UNL1       -0.1998
     32 C           1.6160   -3.3801   -0.8432 C.ar    1  UNL1        0.0194
     33 C           2.9361   -3.0746   -1.0313 C.ar    1  UNL1        0.1879
     34 F           3.7670   -3.9872   -1.5620 F       1  UNL1       -0.1998
     35 C           5.7446    0.6028   -1.4541 C.ar    1  UNL1       -0.0155
     36 H           6.0133    2.7845   -3.0499 H       1  UNL1        0.0278
     37 H           6.9856    3.7476   -1.8109 H       1  UNL1        0.0278
     38 H           7.7248    2.3225   -2.5728 H       1  UNL1        0.0278
     39 H           6.7886    3.1863    0.4607 H       1  UNL1        0.0620
     40 H           5.9830    1.5990    2.1921 H       1  UNL1        0.0627
     41 H           4.3977   -2.7260    2.5645 H       1  UNL1        0.2954
     42 H          -1.5575    0.9978   -0.5488 H       1  UNL1        0.0661
     43 H          -2.9312    2.5737   -0.5098 H       1  UNL1        0.0624
     44 H          -4.6517    3.8408   -1.7551 H       1  UNL1        0.0618
     45 H          -6.9067    2.8760   -2.0926 H       1  UNL1        0.0621
     46 H          -8.1797    0.9215   -2.1418 H       1  UNL1        0.0471
     47 H          -7.7388   -0.6150   -1.2352 H       1  UNL1        0.0471
     48 H          -9.5463    1.2084   -0.4003 H       1  UNL1        0.1185
     49 H          -8.5954    0.2331    0.6738 H       1  UNL1        0.1185
     50 H          -5.6604   -0.5974    0.0697 H       1  UNL1        0.0627
     51 H          -4.4581   -0.8312    1.9218 H       1  UNL1        0.0624
     52 H          -2.6875   -2.0558    3.1444 H       1  UNL1        0.0637
     53 H          -0.0417   -2.9197    2.6869 H       1  UNL1        0.1424
     54 H           0.6841   -1.3085    3.1392 H       1  UNL1        0.1424
     55 H           1.1943   -4.3442   -1.1064 H       1  UNL1        0.0678
     56 H           5.6791    0.3217   -2.5000 H       1  UNL1        0.0657
@<TRIPOS>BOND
     1     1     2    1
     2     2     3   ar
     3     3     4   ar
     4     4     5   ar
     5     5     6    1
     6     6     7    2
     7     6     8    1
     8     5     9   ar
     9     9    10    1
    10    10    11    1
    11    11    12   ar
    12    12    13   ar
    13    13    14    1
    14    14    15    1
    15    15    16   ar
    16    16    17   ar
    17    17    18    1
    18    18    19   ar
    19    19    20   ar
    20    20    21   ar
    21    21    22   ar
    22    22    23    1
    23    23    24    1
    24    22    25   ar
    25    17    26   ar
    26    26    27   ar
    27    27    28   ar
    28    28    29    1
    29    13    30   ar
    30    30    31    1
    31    30    32   ar
    32    32    33   ar
    33    33    34    1
    34     9    35   ar
    35    35     2   ar
    36    33    11   ar
    37    28    15   ar
    38    25    18   ar
    39     1    36    1
    40     1    37    1
    41     1    38    1
    42     3    39    1
    43     4    40    1
    44     8    41    1
    45    16    42    1
    46    19    43    1
    47    20    44    1
    48    21    45    1
    49    23    46    1
    50    23    47    1
    51    24    48    1
    52    24    49    1
    53    25    50    1
    54    26    51    1
    55    27    52    1
    56    29    53    1
    57    29    54    1
    58    32    55    1
    59    35    56    1
