@<TRIPOS>MOLECULE
*****
 43 45 0 0 0
SMALL
GASTEIGER

@<TRIPOS>ATOM
      1 C           0.1824   -3.0632   -0.9225 C.3     1  UNL1       -0.0606
      2 C           1.0335   -1.8128   -0.9736 C.3     1  UNL1       -0.0224
      3 C           2.1916   -2.0025   -0.0658 C.3     1  UNL1       -0.0328
      4 C           2.8428   -0.7389    0.4084 C.3     1  UNL1        0.0151
      5 N           1.8909    0.2863    0.7603 N.am    1  UNL1       -0.2989
      6 C           2.3245    1.5762    1.1024 C.2     1  UNL1        0.2295
      7 O           1.4658    2.4699    1.4108 O.2     1  UNL1       -0.2745
      8 C           3.7362    1.9831    1.1319 C.3     1  UNL1        0.1112
      9 C           4.1075    2.7803   -0.0366 C.1     1  UNL1        0.0719
     10 N           4.3922    3.4270   -0.9775 N.1     1  UNL1       -0.1961
     11 C           0.4943   -0.0895    0.7384 C.3     1  UNL1        0.0335
     12 C           0.2244   -0.5583   -0.7015 C.3     1  UNL1        0.0429
     13 N          -1.1747   -0.7437   -0.9462 N.pl3   1  UNL1       -0.3128
     14 C          -1.6409   -1.3102   -2.1861 C.3     1  UNL1        0.0024
     15 C          -2.1308   -0.3399    0.0032 C.ar    1  UNL1        0.1338
     16 N          -2.7416   -1.1920    0.8501 N.ar    1  UNL1       -0.2200
     17 C          -3.6437   -0.7599    1.7609 C.ar    1  UNL1        0.1204
     18 N          -3.9756    0.5418    1.8658 N.ar    1  UNL1       -0.2178
     19 C          -3.3883    1.4225    1.0382 C.ar    1  UNL1        0.1432
     20 N          -3.5473    2.7479    0.9319 N.ar    1  UNL1       -0.3457
     21 C          -2.7599    3.2173   -0.0448 C.ar    1  UNL1        0.0042
     22 C          -2.0864    2.1556   -0.5671 C.ar    1  UNL1       -0.0318
     23 C          -2.4595    0.9955    0.0970 C.ar    1  UNL1        0.0585
     24 H          -0.0727   -3.4311   -1.9481 H       1  UNL1        0.0233
     25 H           0.7748   -3.9083   -0.4738 H       1  UNL1        0.0233
     26 H          -0.7018   -2.9485   -0.2736 H       1  UNL1        0.0233
     27 H           1.4223   -1.7515   -2.0181 H       1  UNL1        0.0317
     28 H           1.8742   -2.6627    0.7804 H       1  UNL1        0.0284
     29 H           2.9718   -2.5904   -0.6076 H       1  UNL1        0.0284
     30 H           3.3768   -1.0008    1.3695 H       1  UNL1        0.0465
     31 H           3.6394   -0.3719   -0.2668 H       1  UNL1        0.0465
     32 H           3.9798    2.5256    2.0779 H       1  UNL1        0.0513
     33 H           4.3862    1.0797    1.1367 H       1  UNL1        0.0513
     34 H           0.3268   -0.9401    1.4379 H       1  UNL1        0.0483
     35 H          -0.1754    0.7527    0.9421 H       1  UNL1        0.0483
     36 H           0.5869    0.2615   -1.3435 H       1  UNL1        0.0518
     37 H          -2.1739   -2.2824   -2.0478 H       1  UNL1        0.0428
     38 H          -2.4117   -0.6490   -2.6818 H       1  UNL1        0.0428
     39 H          -0.8207   -1.3804   -2.9410 H       1  UNL1        0.0428
     40 H          -4.1230   -1.4702    2.4334 H       1  UNL1        0.1048
     41 H          -4.1856    3.3115    1.5210 H       1  UNL1        0.1668
     42 H          -2.6516    4.2572   -0.3876 H       1  UNL1        0.0807
     43 H          -1.3601    2.2065   -1.3865 H       1  UNL1        0.0640
@<TRIPOS>BOND
     1     1     2    1
     2     2     3    1
     3     3     4    1
     4     4     5    1
     5     5     6   am
     6     6     7    2
     7     6     8    1
     8     8     9    1
     9     9    10    3
    10     5    11    1
    11    11    12    1
    12    12    13    1
    13    13    14    1
    14    13    15    1
    15    15    16   ar
    16    16    17   ar
    17    17    18   ar
    18    18    19   ar
    19    19    20   ar
    20    20    21   ar
    21    21    22   ar
    22    22    23   ar
    23    12     2    1
    24    23    15   ar
    25    23    19   ar
    26     1    24    1
    27     1    25    1
    28     1    26    1
    29     2    27    1
    30     3    28    1
    31     3    29    1
    32     4    30    1
    33     4    31    1
    34     8    32    1
    35     8    33    1
    36    11    34    1
    37    11    35    1
    38    12    36    1
    39    14    37    1
    40    14    38    1
    41    14    39    1
    42    17    40    1
    43    20    41    1
    44    21    42    1
    45    22    43    1
