@<TRIPOS>MOLECULE
*****
 56 59 0 0 0
SMALL
GASTEIGER

@<TRIPOS>ATOM
      1 C          -2.3403   -5.3746   -1.5043 C.3     1  UNL1       -0.0306
      2 C          -3.0072   -4.2241   -2.2207 C.3     1  UNL1        0.0897
      3 O          -2.1863   -3.1122   -2.3846 O.3     1  UNL1       -0.4644
      4 C          -1.6025   -2.3900   -1.3793 C.2     1  UNL1        0.3167
      5 O          -1.8010   -2.7327   -0.1883 O.2     1  UNL1       -0.2501
      6 C          -0.7299   -1.1986   -1.6095 C.3     1  UNL1        0.1052
      7 C           0.4501   -1.5434   -2.4060 C.2     1  UNL1        0.0328
      8 C           0.2667   -2.2768   -3.6704 C.3     1  UNL1       -0.0254
      9 N           1.6283   -1.2292   -2.0417 N.2     1  UNL1       -0.2362
     10 C           1.9276   -0.5229   -0.8457 C.ar    1  UNL1        0.1583
     11 N           3.2253   -0.2400   -0.5329 N.ar    1  UNL1       -0.2322
     12 C           3.5984    0.4094    0.5741 C.ar    1  UNL1        0.0486
     13 C           2.5821    0.7960    1.4181 C.ar    1  UNL1       -0.0050
     14 C           1.2547    0.5287    1.1377 C.ar    1  UNL1        0.0369
     15 N           0.2524    0.9442    2.0471 N.pl3   1  UNL1       -0.3574
     16 C           0.8981   -0.1477   -0.0209 C.ar    1  UNL1        0.0261
     17 C          -0.4891   -0.4446   -0.3580 C.3     1  UNL1        0.0326
     18 C          -1.2613    0.8527   -0.3628 C.ar    1  UNL1       -0.0384
     19 C          -1.0839    1.8069   -1.3285 C.ar    1  UNL1       -0.0545
     20 C          -1.8327    2.9691   -1.3011 C.ar    1  UNL1       -0.0197
     21 C          -2.7713    3.2192   -0.3253 C.ar    1  UNL1        0.1201
     22 O          -3.5121    4.3980   -0.3218 O.3     1  UNL1       -0.4951
     23 C          -4.4523    4.6043    0.6910 C.3     1  UNL1        0.0788
     24 C          -2.9544    2.2636    0.6491 C.ar    1  UNL1       -0.0197
     25 C          -2.2038    1.1059    0.6157 C.ar    1  UNL1       -0.0545
     26 C           2.9587    1.5225    2.6580 C.3     1  UNL1       -0.0242
     27 C           4.1442    0.8175    3.2438 C.3     1  UNL1       -0.0486
     28 C           5.3311    0.7528    2.3446 C.3     1  UNL1       -0.0473
     29 C           5.0320    0.7021    0.8844 C.3     1  UNL1       -0.0100
     30 H          -3.0065   -6.2590   -1.5488 H       1  UNL1        0.0262
     31 H          -2.2158   -5.1603   -0.4114 H       1  UNL1        0.0262
     32 H          -1.3916   -5.6736   -1.9792 H       1  UNL1        0.0262
     33 H          -3.2888   -4.5873   -3.2375 H       1  UNL1        0.0694
     34 H          -3.9585   -3.9855   -1.6961 H       1  UNL1        0.0694
     35 H          -1.3600   -0.5391   -2.2870 H       1  UNL1        0.0484
     36 H           0.9671   -1.9556   -4.4731 H       1  UNL1        0.0290
     37 H           0.4641   -3.3800   -3.5401 H       1  UNL1        0.0290
     38 H          -0.7587   -2.1085   -4.0796 H       1  UNL1        0.0290
     39 H          -0.3156    0.3139    2.6308 H       1  UNL1        0.1423
     40 H           0.0840    1.9800    2.1295 H       1  UNL1        0.1423
     41 H          -0.8963   -1.0573    0.4945 H       1  UNL1        0.0411
     42 H          -0.3552    1.6476   -2.1127 H       1  UNL1        0.0622
     43 H          -1.6829    3.7191   -2.0748 H       1  UNL1        0.0654
     44 H          -5.2731    3.8563    0.5481 H       1  UNL1        0.0660
     45 H          -4.9080    5.6159    0.6340 H       1  UNL1        0.0660
     46 H          -4.0547    4.4219    1.7140 H       1  UNL1        0.0660
     47 H          -3.6853    2.4389    1.4235 H       1  UNL1        0.0654
     48 H          -2.4096    0.3963    1.4249 H       1  UNL1        0.0622
     49 H           2.1454    1.5010    3.4037 H       1  UNL1        0.0314
     50 H           3.2661    2.5587    2.4149 H       1  UNL1        0.0314
     51 H           4.4859    1.3004    4.2021 H       1  UNL1        0.0269
     52 H           3.8705   -0.2224    3.5528 H       1  UNL1        0.0269
     53 H           5.9872    1.6400    2.5477 H       1  UNL1        0.0269
     54 H           5.9554   -0.1248    2.6851 H       1  UNL1        0.0269
     55 H           5.4124    1.5825    0.3525 H       1  UNL1        0.0328
     56 H           5.6010   -0.1751    0.4587 H       1  UNL1        0.0328
@<TRIPOS>BOND
     1     1     2    1
     2     2     3    1
     3     3     4    1
     4     4     5    2
     5     4     6    1
     6     6     7    1
     7     7     8    1
     8     7     9    2
     9     9    10    1
    10    10    11   ar
    11    11    12   ar
    12    12    13   ar
    13    13    14   ar
    14    14    15    1
    15    14    16   ar
    16    16    17    1
    17    17    18    1
    18    18    19   ar
    19    19    20   ar
    20    20    21   ar
    21    21    22    1
    22    22    23    1
    23    21    24   ar
    24    24    25   ar
    25    13    26    1
    26    26    27    1
    27    27    28    1
    28    28    29    1
    29    17     6    1
    30    25    18   ar
    31    16    10   ar
    32    29    12    1
    33     1    30    1
    34     1    31    1
    35     1    32    1
    36     2    33    1
    37     2    34    1
    38     6    35    1
    39     8    36    1
    40     8    37    1
    41     8    38    1
    42    15    39    1
    43    15    40    1
    44    17    41    1
    45    19    42    1
    46    20    43    1
    47    23    44    1
    48    23    45    1
    49    23    46    1
    50    24    47    1
    51    25    48    1
    52    26    49    1
    53    26    50    1
    54    27    51    1
    55    27    52    1
    56    28    53    1
    57    28    54    1
    58    29    55    1
    59    29    56    1
