@<TRIPOS>MOLECULE
*****
 50 52 0 0 0
SMALL
GASTEIGER

@<TRIPOS>ATOM
      1 C          -6.0603    2.7140   -0.9472 C.3     1  UNL1       -0.0397
      2 C          -6.0377    1.2225   -0.9712 C.ar    1  UNL1       -0.0501
      3 C          -5.5523    0.5173    0.1150 C.ar    1  UNL1       -0.0542
      4 C          -5.5152   -0.8663    0.1302 C.ar    1  UNL1       -0.0301
      5 C          -5.0049   -1.6403    1.2662 C.3     1  UNL1        0.0372
      6 N          -3.5875   -1.9420    1.1973 N.am    1  UNL1       -0.3060
      7 C          -2.5188   -1.0454    1.4563 C.2     1  UNL1        0.2628
      8 O          -2.7641    0.1513    1.7839 O.2     1  UNL1       -0.2685
      9 C          -1.1300   -1.4818    1.3509 C.ar    1  UNL1        0.1292
     10 C          -0.0995   -0.6007    1.6059 C.ar    1  UNL1       -0.0006
     11 C           1.1951   -1.0926    1.4864 C.ar    1  UNL1        0.1292
     12 N           1.4109   -2.3861    1.1332 N.ar    1  UNL1       -0.2308
     13 C           0.3852   -3.2179    0.8918 C.ar    1  UNL1        0.1176
     14 N          -0.8653   -2.7377    1.0086 N.ar    1  UNL1       -0.2308
     15 C           2.3337   -0.1861    1.7497 C.2     1  UNL1        0.2628
     16 O           2.1643    1.0142    2.0717 O.2     1  UNL1       -0.2685
     17 N           3.6386   -0.7064    1.6296 N.am    1  UNL1       -0.3060
     18 C           4.8752    0.0189    1.8449 C.3     1  UNL1        0.0372
     19 C           5.1914    0.9130    0.6969 C.ar    1  UNL1       -0.0301
     20 C           4.8314    2.2272    0.5051 C.ar    1  UNL1       -0.0571
     21 C           5.2297    2.8709   -0.6357 C.ar    1  UNL1       -0.0612
     22 C           5.9836    2.2687   -1.6213 C.ar    1  UNL1       -0.0588
     23 C           6.3399    0.9537   -1.4221 C.ar    1  UNL1       -0.0501
     24 C           7.1540    0.2840   -2.4759 C.3     1  UNL1       -0.0397
     25 C           5.9566    0.2741   -0.2850 C.ar    1  UNL1       -0.0542
     26 C          -5.9719   -1.5519   -0.9602 C.ar    1  UNL1       -0.0571
     27 C          -6.4554   -0.8369   -2.0412 C.ar    1  UNL1       -0.0612
     28 C          -6.5099    0.5586   -2.0962 C.ar    1  UNL1       -0.0588
     29 H          -6.7286    3.1051   -1.7368 H       1  UNL1        0.0278
     30 H          -6.3145    3.1231    0.0556 H       1  UNL1        0.0278
     31 H          -5.0211    3.0488   -1.1460 H       1  UNL1        0.0278
     32 H          -5.2075    1.0811    0.9442 H       1  UNL1        0.0623
     33 H          -5.1804   -1.0210    2.1699 H       1  UNL1        0.0512
     34 H          -5.5407   -2.5887    1.4351 H       1  UNL1        0.0512
     35 H          -3.2881   -2.9267    0.9280 H       1  UNL1        0.1494
     36 H          -0.2734    0.4277    1.8863 H       1  UNL1        0.0663
     37 H           0.5180   -4.2432    0.6107 H       1  UNL1        0.1047
     38 H           3.7541   -1.7162    1.3590 H       1  UNL1        0.1494
     39 H           4.7226    0.6398    2.7760 H       1  UNL1        0.0512
     40 H           5.7139   -0.6519    2.0830 H       1  UNL1        0.0512
     41 H           4.2523    2.6313    1.2986 H       1  UNL1        0.0621
     42 H           4.9243    3.9194   -0.7531 H       1  UNL1        0.0618
     43 H           6.2939    2.7770   -2.5149 H       1  UNL1        0.0620
     44 H           7.6474   -0.6467   -2.1203 H       1  UNL1        0.0278
     45 H           7.9696    0.9586   -2.8041 H       1  UNL1        0.0278
     46 H           6.5293    0.0781   -3.3791 H       1  UNL1        0.0278
     47 H           6.2900   -0.7569   -0.2253 H       1  UNL1        0.0623
     48 H          -5.9621   -2.6352   -0.9950 H       1  UNL1        0.0621
     49 H          -6.8163   -1.3639   -2.9011 H       1  UNL1        0.0618
     50 H          -6.8995    1.0642   -2.9731 H       1  UNL1        0.0620
@<TRIPOS>BOND
     1     1     2    1
     2     2     3   ar
     3     3     4   ar
     4     4     5    1
     5     5     6    1
     6     6     7   am
     7     7     8    2
     8     7     9    1
     9     9    10   ar
    10    10    11   ar
    11    11    12   ar
    12    12    13   ar
    13    13    14   ar
    14    11    15    1
    15    15    16    2
    16    15    17   am
    17    17    18    1
    18    18    19    1
    19    19    20   ar
    20    20    21   ar
    21    21    22   ar
    22    22    23   ar
    23    23    24    1
    24    23    25   ar
    25     4    26   ar
    26    26    27   ar
    27    27    28   ar
    28    28     2   ar
    29    14     9   ar
    30    25    19   ar
    31     1    29    1
    32     1    30    1
    33     1    31    1
    34     3    32    1
    35     5    33    1
    36     5    34    1
    37     6    35    1
    38    10    36    1
    39    13    37    1
    40    17    38    1
    41    18    39    1
    42    18    40    1
    43    20    41    1
    44    21    42    1
    45    22    43    1
    46    24    44    1
    47    24    45    1
    48    24    46    1
    49    25    47    1
    50    26    48    1
    51    27    49    1
    52    28    50    1
