
     RDKit          3D

 52 56  0  0  0  0  0  0  0  0999 V2000
    4.9846   -4.3989   -1.2559 C   0  0  0  0  0  0  0  0  0  0  0  0
    4.6179   -3.0134   -1.1691 N   0  0  0  0  0  0  0  0  0  0  0  0
    3.6511   -2.5693   -0.2375 C   0  0  0  0  0  0  0  0  0  0  0  0
    3.1343   -3.4643    0.5049 O   0  0  0  0  0  0  0  0  0  0  0  0
    3.2431   -1.1867   -0.1018 C   0  0  0  0  0  0  0  0  0  0  0  0
    4.0098   -0.0388   -0.1691 C   0  0  0  0  0  0  0  0  0  0  0  0
    3.2385    1.0397    0.0138 N   0  0  0  0  0  0  0  0  0  0  0  0
    3.6837    2.4381    0.0083 C   0  0  0  0  0  0  0  0  0  0  0  0
    1.9620    0.5808    0.2011 C   0  0  0  0  0  0  0  0  0  0  0  0
    1.9278   -0.7782    0.1372 C   0  0  0  0  0  0  0  0  0  0  0  0
    0.5612   -1.2286    0.3578 C   0  0  0  0  0  0  0  0  0  0  0  0
    0.1942   -2.4441    0.3581 O   0  0  0  0  0  0  0  0  0  0  0  0
   -0.2288   -0.0748    0.5623 N   0  0  0  0  0  0  0  0  0  0  0  0
   -1.6339   -0.1919    0.8500 C   0  0  0  0  0  0  0  0  0  0  0  0
   -2.4159    0.9224    1.1042 C   0  0  0  0  0  0  0  0  0  0  0  0
   -3.7706    0.7912    1.3776 C   0  0  0  0  0  0  0  0  0  0  0  0
   -4.6231    1.9769    1.6551 C   0  0  0  0  0  0  0  0  0  0  0  0
   -4.3237   -0.4692    1.3905 C   0  0  0  0  0  0  0  0  0  0  0  0
   -5.5599   -0.9484    1.6110 N   0  0  0  0  0  0  0  0  0  0  0  0
   -5.5392   -2.2518    1.5007 N   0  0  0  0  0  0  0  0  0  0  0  0
   -4.3268   -2.6973    1.2102 N   0  0  0  0  0  0  0  0  0  0  0  0
   -3.9091   -4.0728    1.0109 C   0  0  0  0  0  0  0  0  0  0  0  0
   -3.5388   -1.5930    1.1349 C   0  0  0  0  0  0  0  0  0  0  0  0
   -2.2494   -1.3825    0.8821 N   0  0  0  0  0  0  0  0  0  0  0  0
    0.5829    1.0601    0.4352 C   0  0  0  0  0  0  0  0  0  0  0  0
    0.1607    2.0642   -0.5456 C   0  0  0  0  0  0  0  0  0  0  0  0
   -0.1846    1.6792   -1.8295 C   0  0  0  0  0  0  0  0  0  0  0  0
   -0.5744    2.6559   -2.7147 C   0  0  0  0  0  0  0  0  0  0  0  0
   -0.6292    3.9933   -2.3601 C   0  0  0  0  0  0  0  0  0  0  0  0
   -1.1283    5.2101   -3.5155 Cl  0  0  0  0  0  0  0  0  0  0  0  0
   -0.2833    4.3587   -1.0832 C   0  0  0  0  0  0  0  0  0  0  0  0
    0.1169    3.3842   -0.1615 C   0  0  0  0  0  0  0  0  0  0  0  0
    4.4995   -4.9975   -0.4816 H   0  0  0  0  0  0  0  0  0  0  0  0
    4.7346   -4.8498   -2.2382 H   0  0  0  0  0  0  0  0  0  0  0  0
    6.0934   -4.4677   -1.0849 H   0  0  0  0  0  0  0  0  0  0  0  0
    5.0631   -2.3206   -1.7950 H   0  0  0  0  0  0  0  0  0  0  0  0
    5.0810   -0.0762   -0.3481 H   0  0  0  0  0  0  0  0  0  0  0  0
    3.8988    2.7931    1.0170 H   0  0  0  0  0  0  0  0  0  0  0  0
    4.6050    2.4488   -0.6501 H   0  0  0  0  0  0  0  0  0  0  0  0
    2.9451    3.0447   -0.5556 H   0  0  0  0  0  0  0  0  0  0  0  0
   -1.9975    1.8962    1.0979 H   0  0  0  0  0  0  0  0  0  0  0  0
   -3.9963    2.8327    2.0063 H   0  0  0  0  0  0  0  0  0  0  0  0
   -5.3519    1.7907    2.4715 H   0  0  0  0  0  0  0  0  0  0  0  0
   -5.1192    2.2745    0.7057 H   0  0  0  0  0  0  0  0  0  0  0  0
   -2.8579   -4.2240    1.3323 H   0  0  0  0  0  0  0  0  0  0  0  0
   -3.9602   -4.3671   -0.0613 H   0  0  0  0  0  0  0  0  0  0  0  0
   -4.5167   -4.7755    1.6430 H   0  0  0  0  0  0  0  0  0  0  0  0
    0.6168    1.5630    1.4492 H   0  0  0  0  0  0  0  0  0  0  0  0
   -0.1192    0.6244   -2.0447 H   0  0  0  0  0  0  0  0  0  0  0  0
   -0.8421    2.3401   -3.7153 H   0  0  0  0  0  0  0  0  0  0  0  0
   -0.3072    5.3957   -0.7457 H   0  0  0  0  0  0  0  0  0  0  0  0
    0.3808    3.7238    0.8351 H   0  0  0  0  0  0  0  0  0  0  0  0
  1  2  1  0
  2  3  1  0
  3  4  2  0
  3  5  1  0
  5  6  2  0
  6  7  1  0
  7  8  1  0
  7  9  1  0
  9 10  2  0
 10 11  1  0
 11 12  2  0
 11 13  1  0
 13 14  1  0
 14 15  2  0
 15 16  1  0
 16 17  1  0
 16 18  2  0
 18 19  1  0
 19 20  2  0
 20 21  1  0
 21 22  1  0
 21 23  1  0
 23 24  2  0
 13 25  1  0
 25 26  1  0
 26 27  2  0
 27 28  1  0
 28 29  2  0
 29 30  1  0
 29 31  1  0
 31 32  2  0
 10  5  1  0
 24 14  1  0
 32 26  1  0
 25  9  1  0
 23 18  1  0
  1 33  1  0
  1 34  1  0
  1 35  1  0
  2 36  1  0
  6 37  1  0
  8 38  1  0
  8 39  1  0
  8 40  1  0
 15 41  1  0
 17 42  1  0
 17 43  1  0
 17 44  1  0
 22 45  1  0
 22 46  1  0
 22 47  1  0
 25 48  1  0
 27 49  1  0
 28 50  1  0
 31 51  1  0
 32 52  1  0
M  END
$$$$
