@<TRIPOS>MOLECULE
*****
 52 56 0 0 0
SMALL
GASTEIGER

@<TRIPOS>ATOM
      1 C           4.9846   -4.3989   -1.2559 C.3     1  UNL1        0.0004
      2 N           4.6179   -3.0134   -1.1691 N.am    1  UNL1       -0.3144
      3 C           3.6511   -2.5693   -0.2375 C.2     1  UNL1        0.2460
      4 O           3.1343   -3.4643    0.5049 O.2     1  UNL1       -0.2701
      5 C           3.2431   -1.1867   -0.1018 C.ar    1  UNL1        0.0666
      6 C           4.0098   -0.0388   -0.1691 C.ar    1  UNL1        0.0175
      7 N           3.2385    1.0397    0.0138 N.ar    1  UNL1       -0.3503
      8 C           3.6837    2.4381    0.0083 C.3     1  UNL1        0.0117
      9 C           1.9620    0.5808    0.2011 C.ar    1  UNL1        0.0570
     10 C           1.9278   -0.7782    0.1372 C.ar    1  UNL1        0.0722
     11 C           0.5612   -1.2286    0.3578 C.2     1  UNL1        0.2553
     12 O           0.1942   -2.4441    0.3581 O.2     1  UNL1       -0.2695
     13 N          -0.2288   -0.0748    0.5623 N.am    1  UNL1       -0.2388
     14 C          -1.6339   -0.1919    0.8500 C.ar    1  UNL1        0.1313
     15 C          -2.4159    0.9224    1.1042 C.ar    1  UNL1       -0.0161
     16 C          -3.7706    0.7912    1.3776 C.ar    1  UNL1       -0.0164
     17 C          -4.6231    1.9769    1.6551 C.3     1  UNL1       -0.0374
     18 C          -4.3237   -0.4692    1.3905 C.ar    1  UNL1        0.1345
     19 N          -5.5599   -0.9484    1.6110 N.ar    1  UNL1       -0.1276
     20 N          -5.5392   -2.2518    1.5007 N.ar    1  UNL1       -0.0635
     21 N          -4.3268   -2.6973    1.2102 N.ar    1  UNL1       -0.2297
     22 C          -3.9091   -4.0728    1.0109 C.3     1  UNL1        0.0341
     23 C          -3.5388   -1.5930    1.1349 C.ar    1  UNL1        0.1803
     24 N          -2.2494   -1.3825    0.8821 N.ar    1  UNL1       -0.2108
     25 C           0.5829    1.0601    0.4352 C.3     1  UNL1        0.0986
     26 C           0.1607    2.0642   -0.5456 C.ar    1  UNL1       -0.0207
     27 C          -0.1846    1.6792   -1.8295 C.ar    1  UNL1       -0.0550
     28 C          -0.5744    2.6559   -2.7147 C.ar    1  UNL1       -0.0431
     29 C          -0.6292    3.9933   -2.3601 C.ar    1  UNL1        0.0410
     30 CL         -1.1283    5.2101   -3.5155 Cl      1  UNL1       -0.0835
     31 C          -0.2833    4.3587   -1.0832 C.ar    1  UNL1       -0.0431
     32 C           0.1169    3.3842   -0.1615 C.ar    1  UNL1       -0.0550
     33 H           4.4995   -4.9975   -0.4816 H       1  UNL1        0.0426
     34 H           4.7346   -4.8498   -2.2382 H       1  UNL1        0.0426
     35 H           6.0934   -4.4677   -1.0849 H       1  UNL1        0.0426
     36 H           5.0631   -2.3206   -1.7950 H       1  UNL1        0.1487
     37 H           5.0810   -0.0762   -0.3481 H       1  UNL1        0.0817
     38 H           3.8988    2.7931    1.0170 H       1  UNL1        0.0456
     39 H           4.6050    2.4488   -0.6501 H       1  UNL1        0.0456
     40 H           2.9451    3.0447   -0.5556 H       1  UNL1        0.0456
     41 H          -1.9975    1.8962    1.0979 H       1  UNL1        0.0655
     42 H          -3.9963    2.8327    2.0063 H       1  UNL1        0.0278
     43 H          -5.3519    1.7907    2.4715 H       1  UNL1        0.0278
     44 H          -5.1192    2.2745    0.7057 H       1  UNL1        0.0278
     45 H          -2.8579   -4.2240    1.3323 H       1  UNL1        0.0474
     46 H          -3.9602   -4.3671   -0.0613 H       1  UNL1        0.0474
     47 H          -4.5167   -4.7755    1.6430 H       1  UNL1        0.0474
     48 H           0.6168    1.5630    1.4492 H       1  UNL1        0.0620
     49 H          -0.1192    0.6244   -2.0447 H       1  UNL1        0.0621
     50 H          -0.8421    2.3401   -3.7153 H       1  UNL1        0.0632
     51 H          -0.3072    5.3957   -0.7457 H       1  UNL1        0.0632
     52 H           0.3808    3.7238    0.8351 H       1  UNL1        0.0621
@<TRIPOS>BOND
     1     1     2    1
     2     2     3   am
     3     3     4    2
     4     3     5    1
     5     5     6   ar
     6     6     7   ar
     7     7     8    1
     8     7     9   ar
     9     9    10   ar
    10    10    11    1
    11    11    12    2
    12    11    13   am
    13    13    14    1
    14    14    15   ar
    15    15    16   ar
    16    16    17    1
    17    16    18   ar
    18    18    19   ar
    19    19    20   ar
    20    20    21   ar
    21    21    22    1
    22    21    23   ar
    23    23    24   ar
    24    13    25    1
    25    25    26    1
    26    26    27   ar
    27    27    28   ar
    28    28    29   ar
    29    29    30    1
    30    29    31   ar
    31    31    32   ar
    32    10     5   ar
    33    24    14   ar
    34    32    26   ar
    35    25     9    1
    36    23    18   ar
    37     1    33    1
    38     1    34    1
    39     1    35    1
    40     2    36    1
    41     6    37    1
    42     8    38    1
    43     8    39    1
    44     8    40    1
    45    15    41    1
    46    17    42    1
    47    17    43    1
    48    17    44    1
    49    22    45    1
    50    22    46    1
    51    22    47    1
    52    25    48    1
    53    27    49    1
    54    28    50    1
    55    31    51    1
    56    32    52    1
