@<TRIPOS>MOLECULE
*****
 53 56 0 0 0
SMALL
GASTEIGER

@<TRIPOS>ATOM
      1 C           3.4574   -0.2499   -1.6304 C.3     1  UNL1        0.0235
      2 N           3.8852    0.7363   -0.6694 N.pl3   1  UNL1       -0.2060
      3 C           5.2928    0.7389   -0.5476 C.ar    1  UNL1        0.0523
      4 C           5.7419   -0.1299    0.4241 C.ar    1  UNL1       -0.0207
      5 C           7.0840   -0.2880    0.7111 C.ar    1  UNL1        0.0428
      6 CL          7.6745   -1.3925    1.9472 Cl      1  UNL1       -0.0835
      7 C           8.0360    0.4486    0.0032 C.ar    1  UNL1       -0.0433
      8 C           7.5682    1.3172   -0.9698 C.ar    1  UNL1       -0.0586
      9 C           6.2321    1.4663   -1.2465 C.ar    1  UNL1       -0.0390
     10 S           2.6785    1.6828    0.1170 S.O2    1  UNL1        0.0745
     11 O           1.8771    2.5016   -0.8495 O.2     1  UNL1       -0.1498
     12 O           3.3348    2.6596    1.0623 O.2     1  UNL1       -0.1498
     13 C           1.6154    0.6467    1.0413 C.ar    1  UNL1        0.1094
     14 C           0.4650    0.0746    0.5439 C.ar    1  UNL1       -0.0257
     15 C          -0.3816   -0.7511    1.2834 C.ar    1  UNL1        0.0084
     16 C          -1.5279   -1.3648    0.9144 C.2     1  UNL1        0.0310
     17 C          -2.1249   -1.2663   -0.4110 C.3     1  UNL1        0.0186
     18 C          -3.4536   -0.6622   -0.4684 C.ar    1  UNL1        0.0239
     19 C          -4.7622   -1.0144   -0.2478 C.ar    1  UNL1       -0.0265
     20 C          -5.1400   -2.3888    0.1442 C.3     1  UNL1       -0.0378
     21 C          -5.6373    0.0290   -0.4479 C.ar    1  UNL1       -0.0270
     22 C          -7.1050   -0.0411   -0.2892 C.3     1  UNL1       -0.0378
     23 C          -4.8428    1.0822   -0.8106 C.ar    1  UNL1        0.0162
     24 C          -5.3714    2.4296   -1.1272 C.3     1  UNL1       -0.0242
     25 N          -3.5667    0.6577   -0.8173 N.ar    1  UNL1       -0.3612
     26 C          -1.8819   -2.0474    2.1501 C.2     1  UNL1        0.2647
     27 O          -2.8748   -2.7629    2.3319 O.2     1  UNL1       -0.2684
     28 N          -0.8884   -1.7545    3.1239 N.am    1  UNL1       -0.1764
     29 C          -0.0001   -0.9787    2.5890 C.ar    1  UNL1        0.0646
     30 C           1.1416   -0.4241    3.1186 C.ar    1  UNL1       -0.0362
     31 C           1.9512    0.3865    2.3534 C.ar    1  UNL1       -0.0332
     32 H           2.3453   -0.2205   -1.7973 H       1  UNL1        0.0446
     33 H           3.9908   -0.0092   -2.5906 H       1  UNL1        0.0446
     34 H           3.7589   -1.2611   -1.3100 H       1  UNL1        0.0446
     35 H           5.1055   -0.7657    1.0500 H       1  UNL1        0.0651
     36 H           9.0727    0.3271    0.2247 H       1  UNL1        0.0632
     37 H           8.2707    1.9006   -1.5354 H       1  UNL1        0.0619
     38 H           5.8030    2.1245   -1.9902 H       1  UNL1        0.0637
     39 H           0.2356    0.3088   -0.5063 H       1  UNL1        0.0644
     40 H          -1.3938   -0.7753   -1.0980 H       1  UNL1        0.0378
     41 H          -2.1578   -2.3337   -0.8199 H       1  UNL1        0.0378
     42 H          -5.5167   -2.3923    1.2018 H       1  UNL1        0.0278
     43 H          -4.3583   -3.1283   -0.0153 H       1  UNL1        0.0278
     44 H          -6.0097   -2.7235   -0.4887 H       1  UNL1        0.0278
     45 H          -7.6516    0.5347   -1.0611 H       1  UNL1        0.0278
     46 H          -7.4334   -1.0893   -0.2931 H       1  UNL1        0.0278
     47 H          -7.3285    0.4064    0.7119 H       1  UNL1        0.0278
     48 H          -5.7429    2.8544   -0.1581 H       1  UNL1        0.0292
     49 H          -6.2613    2.2961   -1.7698 H       1  UNL1        0.0292
     50 H          -4.6282    3.0841   -1.6092 H       1  UNL1        0.0292
     51 H          -2.8049    1.3504   -1.0789 H       1  UNL1        0.1653
     52 H           1.3822   -0.6405    4.1397 H       1  UNL1        0.0637
     53 H           2.8450    0.8112    2.7924 H       1  UNL1        0.0638
@<TRIPOS>BOND
     1     1     2    1
     2     2     3    1
     3     3     4   ar
     4     4     5   ar
     5     5     6    1
     6     5     7   ar
     7     7     8   ar
     8     8     9   ar
     9     2    10    1
    10    10    11    2
    11    10    12    2
    12    10    13    1
    13    13    14   ar
    14    14    15   ar
    15    15    16    2
    16    16    17    1
    17    17    18    1
    18    18    19   ar
    19    19    20    1
    20    19    21   ar
    21    21    22    1
    22    21    23   ar
    23    23    24    1
    24    23    25   ar
    25    16    26    1
    26    26    27    2
    27    26    28    1
    28    28    29    2
    29    29    30   ar
    30    30    31   ar
    31     9     3   ar
    32    31    13   ar
    33    29    15   ar
    34    25    18   ar
    35     1    32    1
    36     1    33    1
    37     1    34    1
    38     4    35    1
    39     7    36    1
    40     8    37    1
    41     9    38    1
    42    14    39    1
    43    17    40    1
    44    17    41    1
    45    20    42    1
    46    20    43    1
    47    20    44    1
    48    22    45    1
    49    22    46    1
    50    22    47    1
    51    24    48    1
    52    24    49    1
    53    24    50    1
    54    25    51    1
    55    30    52    1
    56    31    53    1
