
     RDKit          3D

 53 56  0  0  0  0  0  0  0  0999 V2000
    3.4574   -0.2499   -1.6304 C   0  0  0  0  0  0  0  0  0  0  0  0
    3.8852    0.7363   -0.6694 N   0  0  0  0  0  0  0  0  0  0  0  0
    5.2928    0.7389   -0.5476 C   0  0  0  0  0  0  0  0  0  0  0  0
    5.7419   -0.1299    0.4241 C   0  0  0  0  0  0  0  0  0  0  0  0
    7.0840   -0.2880    0.7111 C   0  0  0  0  0  0  0  0  0  0  0  0
    7.6745   -1.3925    1.9472 Cl  0  0  0  0  0  0  0  0  0  0  0  0
    8.0360    0.4486    0.0032 C   0  0  0  0  0  0  0  0  0  0  0  0
    7.5682    1.3172   -0.9698 C   0  0  0  0  0  0  0  0  0  0  0  0
    6.2321    1.4663   -1.2465 C   0  0  0  0  0  0  0  0  0  0  0  0
    2.6785    1.6828    0.1170 S   0  0  0  0  0  0  0  0  0  0  0  0
    1.8771    2.5016   -0.8495 O   0  0  0  0  0  0  0  0  0  0  0  0
    3.3348    2.6596    1.0623 O   0  0  0  0  0  0  0  0  0  0  0  0
    1.6154    0.6467    1.0413 C   0  0  0  0  0  0  0  0  0  0  0  0
    0.4650    0.0746    0.5439 C   0  0  0  0  0  0  0  0  0  0  0  0
   -0.3816   -0.7511    1.2834 C   0  0  0  0  0  0  0  0  0  0  0  0
   -1.5279   -1.3648    0.9144 C   0  0  0  0  0  0  0  0  0  0  0  0
   -2.1249   -1.2663   -0.4110 C   0  0  0  0  0  0  0  0  0  0  0  0
   -3.4536   -0.6622   -0.4684 C   0  0  0  0  0  0  0  0  0  0  0  0
   -4.7622   -1.0144   -0.2478 C   0  0  0  0  0  0  0  0  0  0  0  0
   -5.1400   -2.3888    0.1442 C   0  0  0  0  0  0  0  0  0  0  0  0
   -5.6373    0.0290   -0.4479 C   0  0  0  0  0  0  0  0  0  0  0  0
   -7.1050   -0.0411   -0.2892 C   0  0  0  0  0  0  0  0  0  0  0  0
   -4.8428    1.0822   -0.8106 C   0  0  0  0  0  0  0  0  0  0  0  0
   -5.3714    2.4296   -1.1272 C   0  0  0  0  0  0  0  0  0  0  0  0
   -3.5667    0.6577   -0.8173 N   0  0  0  0  0  0  0  0  0  0  0  0
   -1.8819   -2.0474    2.1501 C   0  0  0  0  0  0  0  0  0  0  0  0
   -2.8748   -2.7629    2.3319 O   0  0  0  0  0  0  0  0  0  0  0  0
   -0.8884   -1.7545    3.1239 N   0  0  0  0  0  0  0  0  0  0  0  0
   -0.0001   -0.9787    2.5890 C   0  0  0  0  0  0  0  0  0  0  0  0
    1.1416   -0.4241    3.1186 C   0  0  0  0  0  0  0  0  0  0  0  0
    1.9512    0.3865    2.3534 C   0  0  0  0  0  0  0  0  0  0  0  0
    2.3453   -0.2205   -1.7973 H   0  0  0  0  0  0  0  0  0  0  0  0
    3.9908   -0.0092   -2.5906 H   0  0  0  0  0  0  0  0  0  0  0  0
    3.7589   -1.2611   -1.3100 H   0  0  0  0  0  0  0  0  0  0  0  0
    5.1055   -0.7657    1.0500 H   0  0  0  0  0  0  0  0  0  0  0  0
    9.0727    0.3271    0.2247 H   0  0  0  0  0  0  0  0  0  0  0  0
    8.2707    1.9006   -1.5354 H   0  0  0  0  0  0  0  0  0  0  0  0
    5.8030    2.1245   -1.9902 H   0  0  0  0  0  0  0  0  0  0  0  0
    0.2356    0.3088   -0.5063 H   0  0  0  0  0  0  0  0  0  0  0  0
   -1.3938   -0.7753   -1.0980 H   0  0  0  0  0  0  0  0  0  0  0  0
   -2.1578   -2.3337   -0.8199 H   0  0  0  0  0  0  0  0  0  0  0  0
   -5.5167   -2.3923    1.2018 H   0  0  0  0  0  0  0  0  0  0  0  0
   -4.3583   -3.1283   -0.0153 H   0  0  0  0  0  0  0  0  0  0  0  0
   -6.0097   -2.7235   -0.4887 H   0  0  0  0  0  0  0  0  0  0  0  0
   -7.6516    0.5347   -1.0611 H   0  0  0  0  0  0  0  0  0  0  0  0
   -7.4334   -1.0893   -0.2931 H   0  0  0  0  0  0  0  0  0  0  0  0
   -7.3285    0.4064    0.7119 H   0  0  0  0  0  0  0  0  0  0  0  0
   -5.7429    2.8544   -0.1581 H   0  0  0  0  0  0  0  0  0  0  0  0
   -6.2613    2.2961   -1.7698 H   0  0  0  0  0  0  0  0  0  0  0  0
   -4.6282    3.0841   -1.6092 H   0  0  0  0  0  0  0  0  0  0  0  0
   -2.8049    1.3504   -1.0789 H   0  0  0  0  0  0  0  0  0  0  0  0
    1.3822   -0.6405    4.1397 H   0  0  0  0  0  0  0  0  0  0  0  0
    2.8450    0.8112    2.7924 H   0  0  0  0  0  0  0  0  0  0  0  0
  1  2  1  0
  2  3  1  0
  3  4  2  0
  4  5  1  0
  5  6  1  0
  5  7  2  0
  7  8  1  0
  8  9  2  0
  2 10  1  0
 10 11  2  0
 10 12  2  0
 10 13  1  0
 13 14  2  0
 14 15  1  0
 15 16  2  0
 16 17  1  0
 17 18  1  0
 18 19  2  0
 19 20  1  0
 19 21  1  0
 21 22  1  0
 21 23  2  0
 23 24  1  0
 23 25  1  0
 16 26  1  0
 26 27  2  0
 26 28  1  0
 28 29  2  0
 29 30  1  0
 30 31  2  0
  9  3  1  0
 31 13  1  0
 29 15  1  0
 25 18  1  0
  1 32  1  0
  1 33  1  0
  1 34  1  0
  4 35  1  0
  7 36  1  0
  8 37  1  0
  9 38  1  0
 14 39  1  0
 17 40  1  0
 17 41  1  0
 20 42  1  0
 20 43  1  0
 20 44  1  0
 22 45  1  0
 22 46  1  0
 22 47  1  0
 24 48  1  0
 24 49  1  0
 24 50  1  0
 25 51  1  0
 30 52  1  0
 31 53  1  0
M  END
$$$$
