@<TRIPOS>MOLECULE
*****
 63 69 0 0 0
SMALL
GASTEIGER

@<TRIPOS>ATOM
      1 C           6.5464    0.8251    2.8544 C.3     1  UNL1        0.0124
      2 C           5.1438    1.3083    2.7937 C.2     1  UNL1        0.2126
      3 O           4.7939    2.1846    3.6234 O.2     1  UNL1       -0.2759
      4 N           4.2180    0.8158    1.8464 N.am    1  UNL1       -0.2977
      5 C           4.2672   -0.1584    0.7777 C.3     1  UNL1        0.0370
      6 C           3.1883    0.7033    0.1079 C.3     1  UNL1        0.0657
      7 N           2.2888   -0.0118   -0.7297 N.ar    1  UNL1       -0.3417
      8 C           2.7032   -0.6953   -1.8137 C.ar    1  UNL1        0.0095
      9 C           1.6518   -1.2848   -2.4319 C.ar    1  UNL1       -0.0143
     10 C           1.6588   -2.1335   -3.6645 C.3     1  UNL1       -0.0137
     11 C           1.8401   -3.6454   -3.4048 C.3     1  UNL1       -0.0456
     12 C           2.8910   -2.8131   -4.1052 C.3     1  UNL1       -0.0456
     13 C           0.5364   -0.9530   -1.6993 C.ar    1  UNL1        0.0636
     14 C           0.9566   -0.1682   -0.6576 C.ar    1  UNL1        0.0571
     15 C          -0.2076    0.2173    0.1312 C.3     1  UNL1        0.0986
     16 C          -0.4701    1.6817    0.0902 C.ar    1  UNL1       -0.0207
     17 C          -0.8506    2.3275   -1.0624 C.ar    1  UNL1       -0.0550
     18 C          -1.0997    3.6847   -1.1199 C.ar    1  UNL1       -0.0431
     19 C          -0.9699    4.4515    0.0102 C.ar    1  UNL1        0.0410
     20 CL         -1.2812    6.1690   -0.0451 Cl      1  UNL1       -0.0835
     21 C          -0.5897    3.8240    1.1753 C.ar    1  UNL1       -0.0431
     22 C          -0.3460    2.4862    1.2242 C.ar    1  UNL1       -0.0550
     23 N          -1.3318   -0.4496   -0.4911 N.am    1  UNL1       -0.2388
     24 C          -2.6898   -0.4815   -0.0776 C.ar    1  UNL1        0.1313
     25 C          -3.6469    0.3620   -0.5244 C.ar    1  UNL1       -0.0161
     26 C          -4.9744    0.3002   -0.0832 C.ar    1  UNL1       -0.0164
     27 C          -6.0005    1.2342   -0.5874 C.3     1  UNL1       -0.0374
     28 C          -5.2714   -0.6756    0.8436 C.ar    1  UNL1        0.1345
     29 N          -6.4092   -1.0396    1.4893 N.ar    1  UNL1       -0.1276
     30 N          -6.1280   -2.0492    2.2761 N.ar    1  UNL1       -0.0635
     31 N          -4.8573   -2.3835    2.1926 N.ar    1  UNL1       -0.2297
     32 C          -4.1656   -3.4601    2.9171 C.3     1  UNL1        0.0341
     33 C          -4.3021   -1.5381    1.3028 C.ar    1  UNL1        0.1803
     34 N          -3.0335   -1.4184    0.8292 N.ar    1  UNL1       -0.2108
     35 C          -0.8997   -1.1731   -1.6623 C.2     1  UNL1        0.2548
     36 O          -1.5879   -1.8413   -2.4711 O.2     1  UNL1       -0.2695
     37 C           2.8294    1.0263    1.4876 C.3     1  UNL1        0.0370
     38 H           6.5872   -0.1761    3.3652 H       1  UNL1        0.0323
     39 H           7.2165    1.5544    3.3204 H       1  UNL1        0.0323
     40 H           6.9508    0.6251    1.8187 H       1  UNL1        0.0323
     41 H           5.2040   -0.2112    0.2061 H       1  UNL1        0.0485
     42 H           3.8918   -1.1446    1.1205 H       1  UNL1        0.0485
     43 H           3.6892    1.5521   -0.4018 H       1  UNL1        0.0559
     44 H           3.7364   -0.7894   -2.1826 H       1  UNL1        0.0812
     45 H           0.8742   -1.9005   -4.4124 H       1  UNL1        0.0349
     46 H           1.9890   -3.9441   -2.3600 H       1  UNL1        0.0271
     47 H           1.2318   -4.3282   -4.0089 H       1  UNL1        0.0271
     48 H           3.0044   -2.9578   -5.1993 H       1  UNL1        0.0271
     49 H           3.8140   -2.6513   -3.5222 H       1  UNL1        0.0271
     50 H          -0.1910   -0.1430    1.1773 H       1  UNL1        0.0620
     51 H          -0.9723    1.7745   -1.9977 H       1  UNL1        0.0621
     52 H          -1.3997    4.1554   -2.0572 H       1  UNL1        0.0632
     53 H          -0.4948    4.4535    2.0533 H       1  UNL1        0.0632
     54 H          -0.0454    2.0139    2.1632 H       1  UNL1        0.0621
     55 H          -3.4191    1.1228   -1.2542 H       1  UNL1        0.0655
     56 H          -5.6911    1.5394   -1.6193 H       1  UNL1        0.0278
     57 H          -6.9911    0.7510   -0.7072 H       1  UNL1        0.0278
     58 H          -6.0359    2.1197    0.0644 H       1  UNL1        0.0278
     59 H          -3.1027   -3.4233    2.6528 H       1  UNL1        0.0474
     60 H          -4.6385   -4.4384    2.7188 H       1  UNL1        0.0474
     61 H          -4.3074   -3.2105    3.9986 H       1  UNL1        0.0474
     62 H           2.4906    2.0875    1.6539 H       1  UNL1        0.0485
     63 H           2.2080    0.3410    2.0680 H       1  UNL1        0.0485
@<TRIPOS>BOND
     1     1     2    1
     2     2     3    2
     3     2     4   am
     4     4     5    1
     5     5     6    1
     6     6     7    1
     7     7     8   ar
     8     8     9   ar
     9     9    10    1
    10    10    11    1
    11    11    12    1
    12     9    13   ar
    13    13    14   ar
    14    14    15    1
    15    15    16    1
    16    16    17   ar
    17    17    18   ar
    18    18    19   ar
    19    19    20    1
    20    19    21   ar
    21    21    22   ar
    22    15    23    1
    23    23    24    1
    24    24    25   ar
    25    25    26   ar
    26    26    27    1
    27    26    28   ar
    28    28    29   ar
    29    29    30   ar
    30    30    31   ar
    31    31    32    1
    32    31    33   ar
    33    33    34   ar
    34    23    35   am
    35    35    36    2
    36     6    37    1
    37    37     4    1
    38    14     7   ar
    39    22    16   ar
    40    34    24   ar
    41    12    10    1
    42    35    13    1
    43    33    28   ar
    44     1    38    1
    45     1    39    1
    46     1    40    1
    47     5    41    1
    48     5    42    1
    49     6    43    1
    50     8    44    1
    51    10    45    1
    52    11    46    1
    53    11    47    1
    54    12    48    1
    55    12    49    1
    56    15    50    1
    57    17    51    1
    58    18    52    1
    59    21    53    1
    60    22    54    1
    61    25    55    1
    62    27    56    1
    63    27    57    1
    64    27    58    1
    65    32    59    1
    66    32    60    1
    67    32    61    1
    68    37    62    1
    69    37    63    1
