
     RDKit          3D

 37 39  0  0  0  0  0  0  0  0999 V2000
   -2.1713    3.0470    0.5542 C   0  0  0  0  0  0  0  0  0  0  0  0
   -0.8457    2.3162    0.4112 C   0  0  0  0  0  0  0  0  0  0  0  0
   -0.9576    1.1430   -0.5318 C   0  0  0  0  0  0  0  0  0  0  0  0
   -1.9306    0.1383   -0.1031 C   0  0  0  0  0  0  0  0  0  0  0  0
   -2.5250   -0.6042   -1.1233 C   0  0  0  0  0  0  0  0  0  0  0  0
   -3.4511   -1.5662   -0.8698 C   0  0  0  0  0  0  0  0  0  0  0  0
   -3.8063   -1.8073    0.4368 C   0  0  0  0  0  0  0  0  0  0  0  0
   -3.2625   -1.1119    1.5220 C   0  0  0  0  0  0  0  0  0  0  0  0
   -2.3332   -0.1554    1.1828 C   0  0  0  0  0  0  0  0  0  0  0  0
    0.3568    0.4900   -0.7325 C   0  0  0  0  0  0  0  0  0  0  0  0
    1.2085   -0.0052    0.2299 C   0  0  0  0  0  0  0  0  0  0  0  0
    0.8054    0.1161    1.5537 O   0  0  0  0  0  0  0  0  0  0  0  0
    2.4077   -0.5955   -0.0896 C   0  0  0  0  0  0  0  0  0  0  0  0
    2.8341   -0.7279   -1.4130 C   0  0  0  0  0  0  0  0  0  0  0  0
    2.0175   -0.2544   -2.3152 O   0  0  0  0  0  0  0  0  0  0  0  0
    0.8770    0.3069   -2.0105 C   0  0  0  0  0  0  0  0  0  0  0  0
    0.2262    0.7043   -3.0354 O   0  0  0  0  0  0  0  0  0  0  0  0
    4.0355   -1.3216   -1.6979 C   0  0  0  0  0  0  0  0  0  0  0  0
    4.8379   -1.7970   -0.6542 C   0  0  0  0  0  0  0  0  0  0  0  0
    4.4214   -1.6688    0.6606 C   0  0  0  0  0  0  0  0  0  0  0  0
    3.1968   -1.0645    0.9609 C   0  0  0  0  0  0  0  0  0  0  0  0
   -2.4657    3.4442   -0.4179 H   0  0  0  0  0  0  0  0  0  0  0  0
   -2.9565    2.4498    1.0538 H   0  0  0  0  0  0  0  0  0  0  0  0
   -1.9616    3.9008    1.2581 H   0  0  0  0  0  0  0  0  0  0  0  0
   -0.4263    2.0835    1.3928 H   0  0  0  0  0  0  0  0  0  0  0  0
   -0.1571    3.0498   -0.0666 H   0  0  0  0  0  0  0  0  0  0  0  0
   -1.2528    1.5643   -1.5351 H   0  0  0  0  0  0  0  0  0  0  0  0
   -2.2688   -0.4400   -2.1587 H   0  0  0  0  0  0  0  0  0  0  0  0
   -3.9408   -2.1713   -1.6505 H   0  0  0  0  0  0  0  0  0  0  0  0
   -4.5562   -2.5844    0.6504 H   0  0  0  0  0  0  0  0  0  0  0  0
   -3.5445   -1.3071    2.5476 H   0  0  0  0  0  0  0  0  0  0  0  0
   -1.8747    0.4229    1.9717 H   0  0  0  0  0  0  0  0  0  0  0  0
    1.3765    0.7048    2.1804 H   0  0  0  0  0  0  0  0  0  0  0  0
    4.3195   -1.4010   -2.7296 H   0  0  0  0  0  0  0  0  0  0  0  0
    5.7566   -2.2465   -0.9479 H   0  0  0  0  0  0  0  0  0  0  0  0
    5.0626   -2.0462    1.4688 H   0  0  0  0  0  0  0  0  0  0  0  0
    2.9485   -1.0055    2.0065 H   0  0  0  0  0  0  0  0  0  0  0  0
  1  2  1  0
  2  3  1  0
  3  4  1  0
  4  5  2  0
  5  6  1  0
  6  7  2  0
  7  8  1  0
  8  9  2  0
  3 10  1  0
 10 11  2  0
 11 12  1  0
 11 13  1  0
 13 14  2  0
 14 15  1  0
 15 16  1  0
 16 17  2  0
 14 18  1  0
 18 19  2  0
 19 20  1  0
 20 21  2  0
  9  4  1  0
 16 10  1  0
 21 13  1  0
  1 22  1  0
  1 23  1  0
  1 24  1  0
  2 25  1  0
  2 26  1  0
  3 27  1  0
  5 28  1  0
  6 29  1  0
  7 30  1  0
  8 31  1  0
  9 32  1  0
 12 33  1  0
 18 34  1  0
 19 35  1  0
 20 36  1  0
 21 37  1  0
M  END
$$$$
