@<TRIPOS>MOLECULE
*****
 37 39 0 0 0
SMALL
GASTEIGER

@<TRIPOS>ATOM
      1 C          -2.1713    3.0470    0.5542 C.3     1  UNL1       -0.0644
      2 C          -0.8457    2.3162    0.4112 C.3     1  UNL1       -0.0447
      3 C          -0.9576    1.1430   -0.5318 C.3     1  UNL1        0.0193
      4 C          -1.9306    0.1383   -0.1031 C.ar    1  UNL1       -0.0396
      5 C          -2.5250   -0.6042   -1.1233 C.ar    1  UNL1       -0.0580
      6 C          -3.4511   -1.5662   -0.8698 C.ar    1  UNL1       -0.0615
      7 C          -3.8063   -1.8073    0.4368 C.ar    1  UNL1       -0.0617
      8 C          -3.2625   -1.1119    1.5220 C.ar    1  UNL1       -0.0615
      9 C          -2.3332   -0.1554    1.1828 C.ar    1  UNL1       -0.0580
     10 C           0.3568    0.4900   -0.7325 C.ar    1  UNL1        0.0862
     11 C           1.2085   -0.0052    0.2299 C.ar    1  UNL1        0.1381
     12 O           0.8054    0.1161    1.5537 O.3     1  UNL1       -0.5055
     13 C           2.4077   -0.5955   -0.0896 C.ar    1  UNL1        0.0593
     14 C           2.8341   -0.7279   -1.4130 C.ar    1  UNL1        0.1426
     15 O           2.0175   -0.2544   -2.3152 O.2     1  UNL1       -0.4217
     16 C           0.8770    0.3069   -2.0105 C.ar    1  UNL1        0.3446
     17 O           0.2262    0.7043   -3.0354 O.2     1  UNL1       -0.2447
     18 C           4.0355   -1.3216   -1.6979 C.ar    1  UNL1       -0.0185
     19 C           4.8379   -1.7970   -0.6542 C.ar    1  UNL1       -0.0582
     20 C           4.4214   -1.6688    0.6606 C.ar    1  UNL1       -0.0609
     21 C           3.1968   -1.0645    0.9609 C.ar    1  UNL1       -0.0475
     22 H          -2.4657    3.4442   -0.4179 H       1  UNL1        0.0230
     23 H          -2.9565    2.4498    1.0538 H       1  UNL1        0.0230
     24 H          -1.9616    3.9008    1.2581 H       1  UNL1        0.0230
     25 H          -0.4263    2.0835    1.3928 H       1  UNL1        0.0272
     26 H          -0.1571    3.0498   -0.0666 H       1  UNL1        0.0272
     27 H          -1.2528    1.5643   -1.5351 H       1  UNL1        0.0400
     28 H          -2.2688   -0.4400   -2.1587 H       1  UNL1        0.0620
     29 H          -3.9408   -2.1713   -1.6505 H       1  UNL1        0.0618
     30 H          -4.5562   -2.5844    0.6504 H       1  UNL1        0.0618
     31 H          -3.5445   -1.3071    2.5476 H       1  UNL1        0.0618
     32 H          -1.8747    0.4229    1.9717 H       1  UNL1        0.0620
     33 H           1.3765    0.7048    2.1804 H       1  UNL1        0.2922
     34 H           4.3195   -1.4010   -2.7296 H       1  UNL1        0.0654
     35 H           5.7566   -2.2465   -0.9479 H       1  UNL1        0.0619
     36 H           5.0626   -2.0462    1.4688 H       1  UNL1        0.0618
     37 H           2.9485   -1.0055    2.0065 H       1  UNL1        0.0626
@<TRIPOS>BOND
     1     1     2    1
     2     2     3    1
     3     3     4    1
     4     4     5   ar
     5     5     6   ar
     6     6     7   ar
     7     7     8   ar
     8     8     9   ar
     9     3    10    1
    10    10    11   ar
    11    11    12    1
    12    11    13   ar
    13    13    14   ar
    14    14    15   ar
    15    15    16   ar
    16    16    17    2
    17    14    18   ar
    18    18    19   ar
    19    19    20   ar
    20    20    21   ar
    21     9     4   ar
    22    16    10   ar
    23    21    13   ar
    24     1    22    1
    25     1    23    1
    26     1    24    1
    27     2    25    1
    28     2    26    1
    29     3    27    1
    30     5    28    1
    31     6    29    1
    32     7    30    1
    33     8    31    1
    34     9    32    1
    35    12    33    1
    36    18    34    1
    37    19    35    1
    38    20    36    1
    39    21    37    1
