@<TRIPOS>MOLECULE
*****
 44 47 0 0 0
SMALL
GASTEIGER

@<TRIPOS>ATOM
      1 O          -0.7525    1.0978    0.4704 O.2     1  UNL1       -0.2683
      2 C          -1.2315   -0.0248    0.0908 C.2     1  UNL1        0.2672
      3 N          -0.2827   -1.0149   -0.2465 N.am    1  UNL1       -0.2803
      4 C           1.1346   -0.7549   -0.1610 C.ar    1  UNL1        0.0337
      5 C           1.7550   -0.2490   -1.2782 C.ar    1  UNL1       -0.0399
      6 C           3.1305    0.0220   -1.2507 C.ar    1  UNL1       -0.0523
      7 C           3.8639   -0.2153   -0.1125 C.ar    1  UNL1       -0.0177
      8 C           5.3085    0.0773   -0.1064 C.ar    1  UNL1       -0.0164
      9 C           5.8616    1.0965   -0.8414 C.ar    1  UNL1       -0.0526
     10 C           7.2290    1.3227   -0.7944 C.ar    1  UNL1       -0.0414
     11 C           8.0611    0.5325   -0.0115 C.ar    1  UNL1        0.0593
     12 CL          9.7950    0.8001    0.0635 Cl      1  UNL1       -0.0820
     13 C           7.5086   -0.4997    0.7342 C.ar    1  UNL1        0.0598
     14 CL          8.4749   -1.5476    1.7491 Cl      1  UNL1       -0.0820
     15 C           6.1632   -0.7056    0.6744 C.ar    1  UNL1       -0.0342
     16 C           3.2449   -0.7231    1.0111 C.ar    1  UNL1       -0.0523
     17 C           1.8903   -0.9810    0.9579 C.ar    1  UNL1       -0.0399
     18 C          -2.6780   -0.2406    0.0204 C.2     1  UNL1        0.1520
     19 C          -3.4645    0.7523    0.3585 C.2     1  UNL1        0.1532
     20 O          -2.8449    1.9544    0.7649 O.2     1  UNL1       -0.5040
     21 C          -4.9181    0.7563    0.3626 C.ar    1  UNL1        0.0451
     22 C          -5.6266    1.8759    0.7442 C.ar    1  UNL1       -0.0491
     23 C          -6.9854    1.8693    0.7451 C.ar    1  UNL1       -0.0610
     24 C          -7.6944    0.7418    0.3642 C.ar    1  UNL1       -0.0599
     25 C          -7.0086   -0.3819   -0.0187 C.ar    1  UNL1       -0.0344
     26 C          -5.6404   -0.3496   -0.0109 C.ar    1  UNL1        0.1191
     27 S          -4.8242   -1.8062   -0.5075 S.O2    1  UNL1        0.0733
     28 O          -5.1923   -2.8971    0.4708 O.2     1  UNL1       -0.1499
     29 O          -5.2431   -2.2117   -1.9032 O.2     1  UNL1       -0.1499
     30 N          -3.1390   -1.5018   -0.4063 N.pl3   1  UNL1       -0.2079
     31 H          -0.6287   -1.9434   -0.5606 H       1  UNL1        0.1552
     32 H           1.2566   -0.0342   -2.2096 H       1  UNL1        0.0636
     33 H           3.6376    0.4204   -2.1197 H       1  UNL1        0.0624
     34 H           5.2172    1.7108   -1.4496 H       1  UNL1        0.0624
     35 H           7.6533    2.1318   -1.3804 H       1  UNL1        0.0633
     36 H           5.6989   -1.5001    1.2418 H       1  UNL1        0.0639
     37 H           3.8473   -0.8975    1.8862 H       1  UNL1        0.0624
     38 H           1.4054   -1.3777    1.8351 H       1  UNL1        0.0636
     39 H          -2.5404    2.0315    1.7257 H       1  UNL1        0.2923
     40 H          -5.0676    2.7466    1.0384 H       1  UNL1        0.0625
     41 H          -7.5786    2.7249    1.0366 H       1  UNL1        0.0618
     42 H          -8.7669    0.7373    0.3651 H       1  UNL1        0.0618
     43 H          -7.5196   -1.2743   -0.3205 H       1  UNL1        0.0637
     44 H          -2.5092   -2.2702   -0.6672 H       1  UNL1        0.1740
@<TRIPOS>BOND
     1     1     2    2
     2     2     3   am
     3     3     4    1
     4     4     5   ar
     5     5     6   ar
     6     6     7   ar
     7     7     8    1
     8     8     9   ar
     9     9    10   ar
    10    10    11   ar
    11    11    12    1
    12    11    13   ar
    13    13    14    1
    14    13    15   ar
    15     7    16   ar
    16    16    17   ar
    17     2    18    1
    18    18    19    2
    19    19    20    1
    20    19    21    1
    21    21    22   ar
    22    22    23   ar
    23    23    24   ar
    24    24    25   ar
    25    25    26   ar
    26    26    27    1
    27    27    28    2
    28    27    29    2
    29    27    30    1
    30    17     4   ar
    31    30    18    1
    32    15     8   ar
    33    26    21   ar
    34     3    31    1
    35     5    32    1
    36     6    33    1
    37     9    34    1
    38    10    35    1
    39    15    36    1
    40    16    37    1
    41    17    38    1
    42    20    39    1
    43    22    40    1
    44    23    41    1
    45    24    42    1
    46    25    43    1
    47    30    44    1
