
     RDKit          3D

 42 44  0  0  0  0  0  0  0  0999 V2000
   -2.6540   -2.5563   -1.1391 O   0  0  0  0  0  0  0  0  0  0  0  0
   -3.2535   -1.3477   -1.3529 C   0  0  0  0  0  0  0  0  0  0  0  0
   -3.1569   -0.3904   -0.2062 C   0  0  0  0  0  0  0  0  0  0  0  0
   -3.8537    0.9074   -0.5578 C   0  0  0  0  0  0  0  0  0  0  0  0
   -3.2898    1.3293   -1.7836 O   0  0  0  0  0  0  0  0  0  0  0  0
   -3.7156    1.9520    0.4987 C   0  0  0  0  0  0  0  0  0  0  0  0
   -4.9149    2.5359    0.8681 O   0  0  0  0  0  0  0  0  0  0  0  0
   -2.9240    1.4579    1.7088 C   0  0  0  0  0  0  0  0  0  0  0  0
   -2.6336    2.5344    2.5316 O   0  0  0  0  0  0  0  0  0  0  0  0
   -1.6781    0.8498    1.1624 C   0  0  0  0  0  0  0  0  0  0  0  0
   -0.3533    1.0071    1.4079 N   0  0  0  0  0  0  0  0  0  0  0  0
    0.3549    0.1883    0.6109 C   0  0  0  0  0  0  0  0  0  0  0  0
    1.8376    0.1079    0.6220 C   0  0  0  0  0  0  0  0  0  0  0  0
    2.3426   -0.9060   -0.3884 C   0  0  0  0  0  0  0  0  0  0  0  0
    3.8307   -0.8977   -0.2859 C   0  0  0  0  0  0  0  0  0  0  0  0
    4.5141   -0.0183   -1.0942 C   0  0  0  0  0  0  0  0  0  0  0  0
    5.8985    0.0242   -1.0328 C   0  0  0  0  0  0  0  0  0  0  0  0
    6.6119   -0.7928   -0.1817 C   0  0  0  0  0  0  0  0  0  0  0  0
    5.8817   -1.6566    0.6078 C   0  0  0  0  0  0  0  0  0  0  0  0
    4.5169   -1.7238    0.5720 C   0  0  0  0  0  0  0  0  0  0  0  0
   -0.5690   -0.4890   -0.1438 C   0  0  0  0  0  0  0  0  0  0  0  0
   -1.8231   -0.0799    0.1974 N   0  0  0  0  0  0  0  0  0  0  0  0
   -2.9961   -3.0733   -0.3920 H   0  0  0  0  0  0  0  0  0  0  0  0
   -4.3163   -1.5176   -1.6195 H   0  0  0  0  0  0  0  0  0  0  0  0
   -2.7874   -0.9024   -2.2752 H   0  0  0  0  0  0  0  0  0  0  0  0
   -3.6716   -0.8573    0.6691 H   0  0  0  0  0  0  0  0  0  0  0  0
   -4.9463    0.7592   -0.7479 H   0  0  0  0  0  0  0  0  0  0  0  0
   -3.8722    1.1065   -2.5470 H   0  0  0  0  0  0  0  0  0  0  0  0
   -3.0842    2.7843    0.0692 H   0  0  0  0  0  0  0  0  0  0  0  0
   -5.1598    3.3174    0.2773 H   0  0  0  0  0  0  0  0  0  0  0  0
   -3.4853    0.6766    2.2590 H   0  0  0  0  0  0  0  0  0  0  0  0
   -3.2632    2.6061    3.2999 H   0  0  0  0  0  0  0  0  0  0  0  0
    2.1442   -0.1563    1.6530 H   0  0  0  0  0  0  0  0  0  0  0  0
    2.3110    1.0752    0.3741 H   0  0  0  0  0  0  0  0  0  0  0  0
    2.0595   -0.6235   -1.4219 H   0  0  0  0  0  0  0  0  0  0  0  0
    1.9640   -1.9169   -0.2130 H   0  0  0  0  0  0  0  0  0  0  0  0
    3.9563    0.6344   -1.7732 H   0  0  0  0  0  0  0  0  0  0  0  0
    6.4262    0.7181   -1.6714 H   0  0  0  0  0  0  0  0  0  0  0  0
    7.7095   -0.7487   -0.1433 H   0  0  0  0  0  0  0  0  0  0  0  0
    6.4383   -2.2992    1.2768 H   0  0  0  0  0  0  0  0  0  0  0  0
    3.9371   -2.3970    1.1865 H   0  0  0  0  0  0  0  0  0  0  0  0
   -0.3330   -1.2211   -0.8815 H   0  0  0  0  0  0  0  0  0  0  0  0
  1  2  1  0
  2  3  1  0
  3  4  1  0
  4  5  1  0
  4  6  1  0
  6  7  1  0
  6  8  1  0
  8  9  1  0
  8 10  1  0
 10 11  2  0
 11 12  1  0
 12 13  1  0
 13 14  1  0
 14 15  1  0
 15 16  2  0
 16 17  1  0
 17 18  2  0
 18 19  1  0
 19 20  2  0
 12 21  2  0
 21 22  1  0
 22  3  1  0
 22 10  1  0
 20 15  1  0
  1 23  1  0
  2 24  1  0
  2 25  1  0
  3 26  1  0
  4 27  1  0
  5 28  1  0
  6 29  1  0
  7 30  1  0
  8 31  1  0
  9 32  1  0
 13 33  1  0
 13 34  1  0
 14 35  1  0
 14 36  1  0
 16 37  1  0
 17 38  1  0
 18 39  1  0
 19 40  1  0
 20 41  1  0
 21 42  1  0
M  END
$$$$
