@<TRIPOS>MOLECULE
*****
 42 44 0 0 0
SMALL
GASTEIGER

@<TRIPOS>ATOM
      1 O          -2.6540   -2.5563   -1.1391 O.3     1  UNL1       -0.3929
      2 C          -3.2535   -1.3477   -1.3529 C.3     1  UNL1        0.0675
      3 C          -3.1569   -0.3904   -0.2062 C.3     1  UNL1        0.0871
      4 C          -3.8537    0.9074   -0.5578 C.3     1  UNL1        0.1067
      5 O          -3.2898    1.3293   -1.7836 O.3     1  UNL1       -0.3870
      6 C          -3.7156    1.9520    0.4987 C.3     1  UNL1        0.1158
      7 O          -4.9149    2.5359    0.8681 O.3     1  UNL1       -0.3861
      8 C          -2.9240    1.4579    1.7088 C.3     1  UNL1        0.1409
      9 O          -2.6336    2.5344    2.5316 O.3     1  UNL1       -0.3814
     10 C          -1.6781    0.8498    1.1624 C.ar    1  UNL1        0.1417
     11 N          -0.3533    1.0071    1.4079 N.ar    1  UNL1       -0.2344
     12 C           0.3549    0.1883    0.6109 C.ar    1  UNL1        0.0598
     13 C           1.8376    0.1079    0.6220 C.3     1  UNL1       -0.0050
     14 C           2.3426   -0.9060   -0.3884 C.3     1  UNL1       -0.0222
     15 C           3.8307   -0.8977   -0.2859 C.ar    1  UNL1       -0.0470
     16 C           4.5141   -0.0183   -1.0942 C.ar    1  UNL1       -0.0586
     17 C           5.8985    0.0242   -1.0328 C.ar    1  UNL1       -0.0615
     18 C           6.6119   -0.7928   -0.1817 C.ar    1  UNL1       -0.0617
     19 C           5.8817   -1.6566    0.6078 C.ar    1  UNL1       -0.0615
     20 C           4.5169   -1.7238    0.5720 C.ar    1  UNL1       -0.0586
     21 C          -0.5690   -0.4890   -0.1438 C.ar    1  UNL1        0.0280
     22 N          -1.8231   -0.0799    0.1974 N.ar    1  UNL1       -0.3241
     23 H          -2.9961   -3.0733   -0.3920 H       1  UNL1        0.2095
     24 H          -4.3163   -1.5176   -1.6195 H       1  UNL1        0.0579
     25 H          -2.7874   -0.9024   -2.2752 H       1  UNL1        0.0579
     26 H          -3.6716   -0.8573    0.6691 H       1  UNL1        0.0577
     27 H          -4.9463    0.7592   -0.7479 H       1  UNL1        0.0642
     28 H          -3.8722    1.1065   -2.5470 H       1  UNL1        0.2100
     29 H          -3.0842    2.7843    0.0692 H       1  UNL1        0.0650
     30 H          -5.1598    3.3174    0.2773 H       1  UNL1        0.2100
     31 H          -3.4853    0.6766    2.2590 H       1  UNL1        0.0702
     32 H          -3.2632    2.6061    3.2999 H       1  UNL1        0.2105
     33 H           2.1442   -0.1563    1.6530 H       1  UNL1        0.0332
     34 H           2.3110    1.0752    0.3741 H       1  UNL1        0.0332
     35 H           2.0595   -0.6235   -1.4219 H       1  UNL1        0.0317
     36 H           1.9640   -1.9169   -0.2130 H       1  UNL1        0.0317
     37 H           3.9563    0.6344   -1.7732 H       1  UNL1        0.0620
     38 H           6.4262    0.7181   -1.6714 H       1  UNL1        0.0618
     39 H           7.7095   -0.7487   -0.1433 H       1  UNL1        0.0618
     40 H           6.4383   -2.2992    1.2768 H       1  UNL1        0.0618
     41 H           3.9371   -2.3970    1.1865 H       1  UNL1        0.0620
     42 H          -0.3330   -1.2211   -0.8815 H       1  UNL1        0.0828
@<TRIPOS>BOND
     1     1     2    1
     2     2     3    1
     3     3     4    1
     4     4     5    1
     5     4     6    1
     6     6     7    1
     7     6     8    1
     8     8     9    1
     9     8    10    1
    10    10    11   ar
    11    11    12   ar
    12    12    13    1
    13    13    14    1
    14    14    15    1
    15    15    16   ar
    16    16    17   ar
    17    17    18   ar
    18    18    19   ar
    19    19    20   ar
    20    12    21   ar
    21    21    22   ar
    22    22     3    1
    23    22    10   ar
    24    20    15   ar
    25     1    23    1
    26     2    24    1
    27     2    25    1
    28     3    26    1
    29     4    27    1
    30     5    28    1
    31     6    29    1
    32     7    30    1
    33     8    31    1
    34     9    32    1
    35    13    33    1
    36    13    34    1
    37    14    35    1
    38    14    36    1
    39    16    37    1
    40    17    38    1
    41    18    39    1
    42    19    40    1
    43    20    41    1
    44    21    42    1
