@<TRIPOS>MOLECULE
*****
 13 13 0 0 0
SMALL
GASTEIGER

@<TRIPOS>ATOM
      1 C          -1.8605    0.0063    0.0215 C.3     1  UNL1        0.0137
      2 N          -0.3919   -0.0492   -0.0005 N.ar    1  UNL1       -0.3295
      3 C           0.3616   -1.1634   -0.0197 C.ar    1  UNL1        0.0225
      4 C           1.6908   -0.7227   -0.0360 C.ar    1  UNL1        0.0201
      5 N           1.6335    0.6290   -0.0254 N.ar    1  UNL1       -0.3403
      6 C           0.3625    1.0516   -0.0036 C.ar    1  UNL1        0.1577
      7 S          -0.1246    2.6114    0.0149 S.2     1  UNL1       -0.0129
      8 H          -2.1992    0.7205    0.8136 H       1  UNL1        0.0456
      9 H          -2.2204   -1.0044    0.3386 H       1  UNL1        0.0456
     10 H          -2.2193    0.2852   -0.9953 H       1  UNL1        0.0456
     11 H          -0.0575   -2.1557   -0.0207 H       1  UNL1        0.0824
     12 H           2.5204   -1.4185   -0.0533 H       1  UNL1        0.0822
     13 H           2.5045    1.2098   -0.0340 H       1  UNL1        0.1673
@<TRIPOS>BOND
     1     1     2    1
     2     2     3   ar
     3     3     4   ar
     4     4     5   ar
     5     5     6   ar
     6     6     7    2
     7     6     2   ar
     8     1     8    1
     9     1     9    1
    10     1    10    1
    11     3    11    1
    12     4    12    1
    13     5    13    1
