@<TRIPOS>MOLECULE
*****
 42 45 0 0 0
SMALL
GASTEIGER

@<TRIPOS>ATOM
      1 C          -2.9934    4.1091    0.0705 C.3     1  UNL1        0.0790
      2 O          -2.6827    2.7520    0.1526 O.3     1  UNL1       -0.4914
      3 C          -1.4119    2.2334   -0.0315 C.ar    1  UNL1        0.1618
      4 C          -0.3570    3.1071   -0.3192 C.ar    1  UNL1       -0.0160
      5 C           0.9146    2.5503   -0.4994 C.ar    1  UNL1       -0.0534
      6 C           1.0924    1.1911   -0.3923 C.ar    1  UNL1       -0.0255
      7 C           0.0714    0.3464   -0.1149 C.ar    1  UNL1        0.0158
      8 C          -1.1835    0.8778    0.0659 C.ar    1  UNL1        0.1667
      9 O          -2.0811   -0.1744    0.3459 O.3     1  UNL1       -0.4836
     10 C          -1.2591   -1.1954    0.9624 C.3     1  UNL1        0.1161
     11 C          -1.8603   -2.5507    0.8919 C.3     1  UNL1        0.0151
     12 C          -2.5101   -2.6910   -0.4673 C.3     1  UNL1        0.0768
     13 O          -3.5455   -1.7467   -0.5165 O.3     1  UNL1       -0.3876
     14 C          -1.4690   -2.4281   -1.4790 C.2     1  UNL1       -0.0588
     15 C          -0.3904   -1.7300   -1.2411 C.2     1  UNL1       -0.0715
     16 C          -0.0656   -1.1162    0.0493 C.3     1  UNL1        0.0558
     17 C           1.1151   -1.7375    0.7338 C.3     1  UNL1       -0.0235
     18 C           2.4283   -1.3496    0.0944 C.3     1  UNL1        0.0001
     19 N           2.8649   -0.0547    0.4880 N.3     1  UNL1       -0.3011
     20 C           4.2764    0.0481    0.7526 C.3     1  UNL1       -0.0124
     21 C           2.5433    0.8721   -0.6139 C.3     1  UNL1        0.0242
     22 H          -2.5908    4.7097    0.9229 H       1  UNL1        0.0660
     23 H          -2.5863    4.5204   -0.8679 H       1  UNL1        0.0660
     24 H          -4.1085    4.1911    0.0030 H       1  UNL1        0.0660
     25 H          -0.5301    4.1716   -0.3971 H       1  UNL1        0.0655
     26 H           1.7186    3.2388   -0.7207 H       1  UNL1        0.0622
     27 H          -0.9988   -0.8895    2.0024 H       1  UNL1        0.0746
     28 H          -2.5841   -2.7524    1.7076 H       1  UNL1        0.0329
     29 H          -1.0279   -3.2956    0.9679 H       1  UNL1        0.0329
     30 H          -2.9564   -3.7037   -0.5582 H       1  UNL1        0.0639
     31 H          -3.9677   -1.6920    0.3779 H       1  UNL1        0.2102
     32 H          -1.6051   -2.8421   -2.4938 H       1  UNL1        0.0595
     33 H           0.3554   -1.5691   -2.0487 H       1  UNL1        0.0580
     34 H           1.1725   -1.4872    1.8095 H       1  UNL1        0.0290
     35 H           1.0244   -2.8387    0.6600 H       1  UNL1        0.0290
     36 H           3.1890   -2.1176    0.4106 H       1  UNL1        0.0427
     37 H           2.3449   -1.4864   -1.0138 H       1  UNL1        0.0427
     38 H           4.6412   -0.7656    1.3786 H       1  UNL1        0.0391
     39 H           4.4231    1.0126    1.3168 H       1  UNL1        0.0391
     40 H           4.8310    0.1823   -0.1973 H       1  UNL1        0.0391
     41 H           3.1758    1.7590   -0.6004 H       1  UNL1        0.0476
     42 H           2.5828    0.3411   -1.5916 H       1  UNL1        0.0476
@<TRIPOS>BOND
     1     1     2    1
     2     2     3    1
     3     3     4   ar
     4     4     5   ar
     5     5     6   ar
     6     6     7   ar
     7     7     8   ar
     8     8     9    1
     9     9    10    1
    10    10    11    1
    11    11    12    1
    12    12    13    1
    13    12    14    1
    14    14    15    2
    15    15    16    1
    16    16    17    1
    17    17    18    1
    18    18    19    1
    19    19    20    1
    20    19    21    1
    21     8     3   ar
    22    16    10    1
    23    21     6    1
    24    16     7    1
    25     1    22    1
    26     1    23    1
    27     1    24    1
    28     4    25    1
    29     5    26    1
    30    10    27    1
    31    11    28    1
    32    11    29    1
    33    12    30    1
    34    13    31    1
    35    14    32    1
    36    15    33    1
    37    17    34    1
    38    17    35    1
    39    18    36    1
    40    18    37    1
    41    20    38    1
    42    20    39    1
    43    20    40    1
    44    21    41    1
    45    21    42    1
