
     RDKit          3D

 42 45  0  0  0  0  0  0  0  0999 V2000
   -2.9934    4.1091    0.0705 C   0  0  0  0  0  0  0  0  0  0  0  0
   -2.6827    2.7520    0.1526 O   0  0  0  0  0  0  0  0  0  0  0  0
   -1.4119    2.2334   -0.0315 C   0  0  0  0  0  0  0  0  0  0  0  0
   -0.3570    3.1071   -0.3192 C   0  0  0  0  0  0  0  0  0  0  0  0
    0.9146    2.5503   -0.4994 C   0  0  0  0  0  0  0  0  0  0  0  0
    1.0924    1.1911   -0.3923 C   0  0  0  0  0  0  0  0  0  0  0  0
    0.0714    0.3464   -0.1149 C   0  0  0  0  0  0  0  0  0  0  0  0
   -1.1835    0.8778    0.0659 C   0  0  0  0  0  0  0  0  0  0  0  0
   -2.0811   -0.1744    0.3459 O   0  0  0  0  0  0  0  0  0  0  0  0
   -1.2591   -1.1954    0.9624 C   0  0  1  0  0  0  0  0  0  0  0  0
   -1.8603   -2.5507    0.8919 C   0  0  0  0  0  0  0  0  0  0  0  0
   -2.5101   -2.6910   -0.4673 C   0  0  1  0  0  0  0  0  0  0  0  0
   -3.5455   -1.7467   -0.5165 O   0  0  0  0  0  0  0  0  0  0  0  0
   -1.4690   -2.4281   -1.4790 C   0  0  0  0  0  0  0  0  0  0  0  0
   -0.3904   -1.7300   -1.2411 C   0  0  0  0  0  0  0  0  0  0  0  0
   -0.0656   -1.1162    0.0493 C   0  0  1  0  0  0  0  0  0  0  0  0
    1.1151   -1.7375    0.7338 C   0  0  0  0  0  0  0  0  0  0  0  0
    2.4283   -1.3496    0.0944 C   0  0  0  0  0  0  0  0  0  0  0  0
    2.8649   -0.0547    0.4880 N   0  0  0  0  0  0  0  0  0  0  0  0
    4.2764    0.0481    0.7526 C   0  0  0  0  0  0  0  0  0  0  0  0
    2.5433    0.8721   -0.6139 C   0  0  0  0  0  0  0  0  0  0  0  0
   -2.5908    4.7097    0.9229 H   0  0  0  0  0  0  0  0  0  0  0  0
   -2.5863    4.5204   -0.8679 H   0  0  0  0  0  0  0  0  0  0  0  0
   -4.1085    4.1911    0.0030 H   0  0  0  0  0  0  0  0  0  0  0  0
   -0.5301    4.1716   -0.3971 H   0  0  0  0  0  0  0  0  0  0  0  0
    1.7186    3.2388   -0.7207 H   0  0  0  0  0  0  0  0  0  0  0  0
   -0.9988   -0.8895    2.0024 H   0  0  0  0  0  0  0  0  0  0  0  0
   -2.5841   -2.7524    1.7076 H   0  0  0  0  0  0  0  0  0  0  0  0
   -1.0279   -3.2956    0.9679 H   0  0  0  0  0  0  0  0  0  0  0  0
   -2.9564   -3.7037   -0.5582 H   0  0  0  0  0  0  0  0  0  0  0  0
   -3.9677   -1.6920    0.3779 H   0  0  0  0  0  0  0  0  0  0  0  0
   -1.6051   -2.8421   -2.4938 H   0  0  0  0  0  0  0  0  0  0  0  0
    0.3554   -1.5691   -2.0487 H   0  0  0  0  0  0  0  0  0  0  0  0
    1.1725   -1.4872    1.8095 H   0  0  0  0  0  0  0  0  0  0  0  0
    1.0244   -2.8387    0.6600 H   0  0  0  0  0  0  0  0  0  0  0  0
    3.1890   -2.1176    0.4106 H   0  0  0  0  0  0  0  0  0  0  0  0
    2.3449   -1.4864   -1.0138 H   0  0  0  0  0  0  0  0  0  0  0  0
    4.6412   -0.7656    1.3786 H   0  0  0  0  0  0  0  0  0  0  0  0
    4.4231    1.0126    1.3168 H   0  0  0  0  0  0  0  0  0  0  0  0
    4.8310    0.1823   -0.1973 H   0  0  0  0  0  0  0  0  0  0  0  0
    3.1758    1.7590   -0.6004 H   0  0  0  0  0  0  0  0  0  0  0  0
    2.5828    0.3411   -1.5916 H   0  0  0  0  0  0  0  0  0  0  0  0
  1  2  1  0
  2  3  1  0
  3  4  2  0
  4  5  1  0
  5  6  2  0
  6  7  1  0
  7  8  2  0
  8  9  1  0
  9 10  1  0
 10 11  1  0
 11 12  1  0
 12 13  1  0
 12 14  1  0
 14 15  2  0
 15 16  1  0
 16 17  1  1
 17 18  1  0
 18 19  1  0
 19 20  1  0
 19 21  1  0
  8  3  1  0
 16 10  1  0
 21  6  1  0
 16  7  1  0
  1 22  1  0
  1 23  1  0
  1 24  1  0
  4 25  1  0
  5 26  1  0
 10 27  1  1
 11 28  1  0
 11 29  1  0
 12 30  1  6
 13 31  1  0
 14 32  1  0
 15 33  1  0
 17 34  1  0
 17 35  1  0
 18 36  1  0
 18 37  1  0
 20 38  1  0
 20 39  1  0
 20 40  1  0
 21 41  1  0
 21 42  1  0
M  END
$$$$
