@<TRIPOS>MOLECULE
*****
 26 25 0 0 0
SMALL
GASTEIGER

@<TRIPOS>ATOM
      1 N           2.3721   -1.1459    0.2018 N.3     1  UNL1       -0.3199
      2 C           2.0620    0.1013   -0.4502 C.3     1  UNL1        0.0821
      3 C           0.6786    0.5791    0.0087 C.3     1  UNL1       -0.0291
      4 C          -0.3806   -0.4307   -0.3408 C.3     1  UNL1       -0.0464
      5 C          -1.7197    0.0984    0.1374 C.3     1  UNL1       -0.0126
      6 C          -2.8549   -0.8482   -0.1680 C.3     1  UNL1       -0.0354
      7 N          -4.0870   -0.2724    0.3171 N.4     1  UNL1        0.2185
      8 C           3.0870    1.1136   -0.1689 C.2     1  UNL1        0.2273
      9 N           4.2774    1.1014    0.5919 N.am    1  UNL1       -0.3280
     10 O           2.7817    2.1986   -0.7593 O.2     1  UNL1       -0.2743
     11 H           1.6816   -1.3554    0.9730 H       1  UNL1        0.1189
     12 H           2.2974   -1.9669   -0.4534 H       1  UNL1        0.1189
     13 H           2.0371   -0.0570   -1.5440 H       1  UNL1        0.0554
     14 H           0.4978    1.5311   -0.5083 H       1  UNL1        0.0285
     15 H           0.6751    0.7523    1.0988 H       1  UNL1        0.0285
     16 H          -0.4316   -0.5675   -1.4407 H       1  UNL1        0.0268
     17 H          -0.1931   -1.4081    0.1052 H       1  UNL1        0.0268
     18 H          -1.9458    1.0548   -0.3903 H       1  UNL1        0.0317
     19 H          -1.7049    0.3177    1.2164 H       1  UNL1        0.0317
     20 H          -2.8839   -0.9645   -1.2853 H       1  UNL1        0.0813
     21 H          -2.6310   -1.8282    0.2901 H       1  UNL1        0.0813
     22 H          -3.8740    0.4981    0.9789 H       1  UNL1        0.1994
     23 H          -4.5914    0.1301   -0.5065 H       1  UNL1        0.1994
     24 H          -4.6853   -0.9691    0.8175 H       1  UNL1        0.1994
     25 H           5.0438    0.3946    0.7245 H       1  UNL1        0.1450
     26 H           4.4915    1.9427    1.1599 H       1  UNL1        0.1450
@<TRIPOS>UNITY_ATOM_ATTR
7 1
charge 1
@<TRIPOS>BOND
     1     1     2    1
     2     2     3    1
     3     3     4    1
     4     4     5    1
     5     5     6    1
     6     6     7    1
     7     2     8    1
     8     8     9   am
     9     8    10    2
    10     1    11    1
    11     1    12    1
    12     2    13    1
    13     3    14    1
    14     3    15    1
    15     4    16    1
    16     4    17    1
    17     5    18    1
    18     5    19    1
    19     6    20    1
    20     6    21    1
    21     7    22    1
    22     7    23    1
    23     7    24    1
    24     9    25    1
    25     9    26    1
