
     RDKit          3D

 26 25  0  0  0  0  0  0  0  0999 V2000
    2.3721   -1.1459    0.2018 N   0  0  0  0  0  0  0  0  0  0  0  0
    2.0620    0.1013   -0.4502 C   0  0  1  0  0  0  0  0  0  0  0  0
    0.6786    0.5791    0.0087 C   0  0  0  0  0  0  0  0  0  0  0  0
   -0.3806   -0.4307   -0.3408 C   0  0  0  0  0  0  0  0  0  0  0  0
   -1.7197    0.0984    0.1374 C   0  0  0  0  0  0  0  0  0  0  0  0
   -2.8549   -0.8482   -0.1680 C   0  0  0  0  0  0  0  0  0  0  0  0
   -4.0870   -0.2724    0.3171 N   0  0  0  0  0  4  0  0  0  0  0  0
    3.0870    1.1136   -0.1689 C   0  0  0  0  0  0  0  0  0  0  0  0
    4.2774    1.1014    0.5919 N   0  0  0  0  0  0  0  0  0  0  0  0
    2.7817    2.1986   -0.7593 O   0  0  0  0  0  0  0  0  0  0  0  0
    1.6816   -1.3554    0.9730 H   0  0  0  0  0  0  0  0  0  0  0  0
    2.2974   -1.9669   -0.4534 H   0  0  0  0  0  0  0  0  0  0  0  0
    2.0371   -0.0570   -1.5440 H   0  0  0  0  0  0  0  0  0  0  0  0
    0.4978    1.5311   -0.5083 H   0  0  0  0  0  0  0  0  0  0  0  0
    0.6751    0.7523    1.0988 H   0  0  0  0  0  0  0  0  0  0  0  0
   -0.4316   -0.5675   -1.4407 H   0  0  0  0  0  0  0  0  0  0  0  0
   -0.1931   -1.4081    0.1052 H   0  0  0  0  0  0  0  0  0  0  0  0
   -1.9458    1.0548   -0.3903 H   0  0  0  0  0  0  0  0  0  0  0  0
   -1.7049    0.3177    1.2164 H   0  0  0  0  0  0  0  0  0  0  0  0
   -2.8839   -0.9645   -1.2853 H   0  0  0  0  0  0  0  0  0  0  0  0
   -2.6310   -1.8282    0.2901 H   0  0  0  0  0  0  0  0  0  0  0  0
   -3.8740    0.4981    0.9789 H   0  0  0  0  0  0  0  0  0  0  0  0
   -4.5914    0.1301   -0.5065 H   0  0  0  0  0  0  0  0  0  0  0  0
   -4.6853   -0.9691    0.8175 H   0  0  0  0  0  0  0  0  0  0  0  0
    5.0438    0.3946    0.7245 H   0  0  0  0  0  0  0  0  0  0  0  0
    4.4915    1.9427    1.1599 H   0  0  0  0  0  0  0  0  0  0  0  0
  1  2  1  0
  2  3  1  0
  3  4  1  0
  4  5  1  0
  5  6  1  0
  6  7  1  0
  2  8  1  0
  8  9  1  0
  8 10  2  0
  1 11  1  0
  1 12  1  0
  2 13  1  6
  3 14  1  0
  3 15  1  0
  4 16  1  0
  4 17  1  0
  5 18  1  0
  5 19  1  0
  6 20  1  0
  6 21  1  0
  7 22  1  0
  7 23  1  0
  7 24  1  0
  9 25  1  0
  9 26  1  0
M  CHG  1   7   1
M  END
$$$$
