
     RDKit          3D

 69 72  0  0  0  0  0  0  0  0999 V2000
   -1.1930   -4.6896    2.1421 C   0  0  0  0  0  0  0  0  0  0  0  0
   -1.4623   -3.2028    2.2907 C   0  0  0  0  0  0  0  0  0  0  0  0
   -1.9095   -2.6613    0.9497 C   0  0  0  0  0  0  0  0  0  0  0  0
   -2.1837   -1.2049    1.0538 C   0  0  0  0  0  0  0  0  0  0  0  0
   -3.4407   -0.6752    1.1037 C   0  0  0  0  0  0  0  0  0  0  0  0
   -3.6425    0.6677    1.1994 C   0  0  0  0  0  0  0  0  0  0  0  0
   -5.0008    1.2688    1.2567 C   0  0  0  0  0  0  0  0  0  0  0  0
   -5.5204    1.5909   -0.1281 C   0  0  0  0  0  0  0  0  0  0  0  0
   -4.6149    2.5648   -0.8112 C   0  0  0  0  0  0  0  0  0  0  0  0
   -5.1664    3.2025   -2.0307 C   0  0  0  0  0  0  0  0  0  0  0  0
   -6.4379    2.4544   -2.4246 C   0  0  0  0  0  0  0  0  0  0  0  0
   -7.4250    2.7468   -1.2866 C   0  0  0  0  0  0  0  0  0  0  0  0
   -6.9521    1.9650   -0.1053 C   0  0  0  0  0  0  0  0  0  0  0  0
   -2.5554    1.5056    1.2463 C   0  0  0  0  0  0  0  0  0  0  0  0
   -1.2505    1.0115    1.1984 C   0  0  0  0  0  0  0  0  0  0  0  0
   -1.1045   -0.3557    1.1017 C   0  0  0  0  0  0  0  0  0  0  0  0
    0.1952   -0.8828    1.0518 O   0  0  0  0  0  0  0  0  0  0  0  0
    1.3537   -0.1078    1.0930 C   0  0  0  0  0  0  0  0  0  0  0  0
    2.5357   -1.0607    1.0176 C   0  0  0  0  0  0  0  0  0  0  0  0
    2.4045   -1.8104   -0.2834 C   0  0  0  0  0  0  0  0  0  0  0  0
    3.4657   -2.6856   -0.4409 O   0  0  0  0  0  0  0  0  0  0  0  0
    4.7612   -2.3138   -0.6223 C   0  0  0  0  0  0  0  0  0  0  0  0
    5.7620   -3.2868   -0.7154 C   0  0  0  0  0  0  0  0  0  0  0  0
    7.0727   -2.9463   -0.9026 C   0  0  0  0  0  0  0  0  0  0  0  0
    7.4248   -1.5901   -1.0043 C   0  0  0  0  0  0  0  0  0  0  0  0
    6.4803   -0.6155   -0.9195 C   0  0  0  0  0  0  0  0  0  0  0  0
    6.8183    0.8106   -1.0227 C   0  0  0  0  0  0  0  0  0  0  0  0
    5.6463    2.1240   -0.9207 S   0  0  0  0  0  0  0  0  0  0  0  0
    6.8493    3.4566   -1.1354 C   0  0  0  0  0  0  0  0  0  0  0  0
    6.5905    4.6990   -1.1518 O   0  0  0  0  0  0  0  0  0  0  0  0
    7.9939    2.7682   -1.2593 N   0  0  0  0  0  0  0  0  0  0  0  0
    7.9726    1.4641   -1.2030 C   0  0  0  0  0  0  0  0  0  0  0  0
    9.1965    0.7119   -1.3349 O   0  0  0  0  0  0  0  0  0  0  0  0
    5.1552   -1.0065   -0.7290 C   0  0  0  0  0  0  0  0  0  0  0  0
   -0.3256   -4.8794    1.4689 H   0  0  0  0  0  0  0  0  0  0  0  0
   -0.9460   -5.1560    3.1118 H   0  0  0  0  0  0  0  0  0  0  0  0
   -2.0526   -5.2314    1.7082 H   0  0  0  0  0  0  0  0  0  0  0  0
   -0.5202   -2.7086    2.5706 H   0  0  0  0  0  0  0  0  0  0  0  0
   -2.2476   -3.0581    3.0341 H   0  0  0  0  0  0  0  0  0  0  0  0
   -1.1693   -2.9069    0.1776 H   0  0  0  0  0  0  0  0  0  0  0  0
   -2.8463   -3.1980    0.6814 H   0  0  0  0  0  0  0  0  0  0  0  0
   -4.2850   -1.3480    1.0653 H   0  0  0  0  0  0  0  0  0  0  0  0
   -5.7312    0.5241    1.6825 H   0  0  0  0  0  0  0  0  0  0  0  0
   -5.0290    2.1624    1.8764 H   0  0  0  0  0  0  0  0  0  0  0  0
   -5.4375    0.6211   -0.7055 H   0  0  0  0  0  0  0  0  0  0  0  0
   -3.6195    2.1431   -1.0201 H   0  0  0  0  0  0  0  0  0  0  0  0
   -4.4279    3.3972   -0.0690 H   0  0  0  0  0  0  0  0  0  0  0  0
   -4.4308    3.1740   -2.8391 H   0  0  0  0  0  0  0  0  0  0  0  0
   -5.4795    4.2578   -1.8911 H   0  0  0  0  0  0  0  0  0  0  0  0
   -6.2723    1.3645   -2.4153 H   0  0  0  0  0  0  0  0  0  0  0  0
   -6.8366    2.7910   -3.3964 H   0  0  0  0  0  0  0  0  0  0  0  0
   -8.4083    2.3668   -1.6084 H   0  0  0  0  0  0  0  0  0  0  0  0
   -7.5058    3.8313   -1.0925 H   0  0  0  0  0  0  0  0  0  0  0  0
   -7.1384    2.5958    0.8111 H   0  0  0  0  0  0  0  0  0  0  0  0
   -7.6072    1.0703    0.0432 H   0  0  0  0  0  0  0  0  0  0  0  0
   -2.6664    2.5603    1.3214 H   0  0  0  0  0  0  0  0  0  0  0  0
   -0.4245    1.6969    1.2373 H   0  0  0  0  0  0  0  0  0  0  0  0
    1.4595    0.6087    0.2608 H   0  0  0  0  0  0  0  0  0  0  0  0
    1.4782    0.4614    2.0370 H   0  0  0  0  0  0  0  0  0  0  0  0
    3.4795   -0.5790    1.2096 H   0  0  0  0  0  0  0  0  0  0  0  0
    2.4168   -1.8528    1.8235 H   0  0  0  0  0  0  0  0  0  0  0  0
    2.3301   -1.0614   -1.1178 H   0  0  0  0  0  0  0  0  0  0  0  0
    1.4132   -2.3245   -0.2406 H   0  0  0  0  0  0  0  0  0  0  0  0
    5.4350   -4.3194   -0.6300 H   0  0  0  0  0  0  0  0  0  0  0  0
    7.8524   -3.7136   -0.9745 H   0  0  0  0  0  0  0  0  0  0  0  0
    8.4543   -1.3844   -1.1482 H   0  0  0  0  0  0  0  0  0  0  0  0
    8.9116    3.3463   -1.4054 H   0  0  0  0  0  0  0  0  0  0  0  0
    9.9025    1.0055   -1.9665 H   0  0  0  0  0  0  0  0  0  0  0  0
    4.4560   -0.1738   -0.7083 H   0  0  0  0  0  0  0  0  0  0  0  0
  1  2  1  0
  2  3  1  0
  3  4  1  0
  4  5  2  0
  5  6  1  0
  6  7  1  0
  7  8  1  0
  8  9  1  0
  9 10  1  0
 10 11  1  0
 11 12  1  0
 12 13  1  0
  6 14  2  0
 14 15  1  0
 15 16  2  0
 16 17  1  0
 17 18  1  0
 18 19  1  0
 19 20  1  0
 20 21  1  0
 21 22  1  0
 22 23  2  0
 23 24  1  0
 24 25  2  0
 25 26  1  0
 26 27  1  0
 27 28  1  0
 28 29  1  0
 29 30  2  0
 29 31  1  0
 31 32  1  0
 32 33  1  0
 26 34  2  0
 16  4  1  0
 34 22  1  0
 13  8  1  0
 32 27  2  0
  1 35  1  0
  1 36  1  0
  1 37  1  0
  2 38  1  0
  2 39  1  0
  3 40  1  0
  3 41  1  0
  5 42  1  0
  7 43  1  0
  7 44  1  0
  8 45  1  0
  9 46  1  0
  9 47  1  0
 10 48  1  0
 10 49  1  0
 11 50  1  0
 11 51  1  0
 12 52  1  0
 12 53  1  0
 13 54  1  0
 13 55  1  0
 14 56  1  0
 15 57  1  0
 18 58  1  0
 18 59  1  0
 19 60  1  0
 19 61  1  0
 20 62  1  0
 20 63  1  0
 23 64  1  0
 24 65  1  0
 25 66  1  0
 31 67  1  0
 33 68  1  0
 34 69  1  0
M  END
$$$$
