@<TRIPOS>MOLECULE
*****
 69 72 0 0 0
SMALL
GASTEIGER

@<TRIPOS>ATOM
      1 C          -1.1930   -4.6896    2.1421 C.3     1  UNL1       -0.0650
      2 C          -1.4623   -3.2028    2.2907 C.3     1  UNL1       -0.0518
      3 C          -1.9095   -2.6613    0.9497 C.3     1  UNL1       -0.0245
      4 C          -2.1837   -1.2049    1.0538 C.ar    1  UNL1       -0.0055
      5 C          -3.4407   -0.6752    1.1037 C.ar    1  UNL1       -0.0519
      6 C          -3.6425    0.6677    1.1994 C.ar    1  UNL1       -0.0466
      7 C          -5.0008    1.2688    1.2567 C.3     1  UNL1       -0.0248
      8 C          -5.5204    1.5909   -0.1281 C.3     1  UNL1       -0.0371
      9 C          -4.6149    2.5648   -0.8112 C.3     1  UNL1       -0.0499
     10 C          -5.1664    3.2025   -2.0307 C.3     1  UNL1       -0.0528
     11 C          -6.4379    2.4544   -2.4246 C.3     1  UNL1       -0.0530
     12 C          -7.4250    2.7468   -1.2866 C.3     1  UNL1       -0.0528
     13 C          -6.9521    1.9650   -0.1053 C.3     1  UNL1       -0.0499
     14 C          -2.5554    1.5056    1.2463 C.ar    1  UNL1       -0.0551
     15 C          -1.2505    1.0115    1.1984 C.ar    1  UNL1       -0.0194
     16 C          -1.1045   -0.3557    1.1017 C.ar    1  UNL1        0.1237
     17 O           0.1952   -0.8828    1.0518 O.3     1  UNL1       -0.4916
     18 C           1.3537   -0.1078    1.0930 C.3     1  UNL1        0.0927
     19 C           2.5357   -1.0607    1.0176 C.3     1  UNL1        0.0157
     20 C           2.4045   -1.8104   -0.2834 C.3     1  UNL1        0.0927
     21 O           3.4657   -2.6856   -0.4409 O.3     1  UNL1       -0.4918
     22 C           4.7612   -2.3138   -0.6223 C.ar    1  UNL1        0.1211
     23 C           5.7620   -3.2868   -0.7154 C.ar    1  UNL1       -0.0199
     24 C           7.0727   -2.9463   -0.9026 C.ar    1  UNL1       -0.0577
     25 C           7.4248   -1.5901   -1.0043 C.ar    1  UNL1       -0.0531
     26 C           6.4803   -0.6155   -0.9195 C.ar    1  UNL1       -0.0026
     27 C           6.8183    0.8106   -1.0227 C.ar    1  UNL1        0.0838
     28 S           5.6463    2.1240   -0.9207 S.2     1  UNL1       -0.0230
     29 C           6.8493    3.4566   -1.1354 C.ar    1  UNL1        0.2913
     30 O           6.5905    4.6990   -1.1518 O.2     1  UNL1       -0.2596
     31 N           7.9939    2.7682   -1.2593 N.ar    1  UNL1       -0.2870
     32 C           7.9726    1.4641   -1.2030 C.ar    1  UNL1        0.2081
     33 O           9.1965    0.7119   -1.3349 O.3     1  UNL1       -0.4928
     34 C           5.1552   -1.0065   -0.7290 C.ar    1  UNL1       -0.0116
     35 H          -0.3256   -4.8794    1.4689 H       1  UNL1        0.0230
     36 H          -0.9460   -5.1560    3.1118 H       1  UNL1        0.0230
     37 H          -2.0526   -5.2314    1.7082 H       1  UNL1        0.0230
     38 H          -0.5202   -2.7086    2.5706 H       1  UNL1        0.0266
     39 H          -2.2476   -3.0581    3.0341 H       1  UNL1        0.0266
     40 H          -1.1693   -2.9069    0.1776 H       1  UNL1        0.0314
     41 H          -2.8463   -3.1980    0.6814 H       1  UNL1        0.0314
     42 H          -4.2850   -1.3480    1.0653 H       1  UNL1        0.0624
     43 H          -5.7312    0.5241    1.6825 H       1  UNL1        0.0316
     44 H          -5.0290    2.1624    1.8764 H       1  UNL1        0.0316
     45 H          -5.4375    0.6211   -0.7055 H       1  UNL1        0.0304
     46 H          -3.6195    2.1431   -1.0201 H       1  UNL1        0.0268
     47 H          -4.4279    3.3972   -0.0690 H       1  UNL1        0.0268
     48 H          -4.4308    3.1740   -2.8391 H       1  UNL1        0.0265
     49 H          -5.4795    4.2578   -1.8911 H       1  UNL1        0.0265
     50 H          -6.2723    1.3645   -2.4153 H       1  UNL1        0.0265
     51 H          -6.8366    2.7910   -3.3964 H       1  UNL1        0.0265
     52 H          -8.4083    2.3668   -1.6084 H       1  UNL1        0.0265
     53 H          -7.5058    3.8313   -1.0925 H       1  UNL1        0.0265
     54 H          -7.1384    2.5958    0.8111 H       1  UNL1        0.0268
     55 H          -7.6072    1.0703    0.0432 H       1  UNL1        0.0268
     56 H          -2.6664    2.5603    1.3214 H       1  UNL1        0.0621
     57 H          -0.4245    1.6969    1.2373 H       1  UNL1        0.0654
     58 H           1.4595    0.6087    0.2608 H       1  UNL1        0.0697
     59 H           1.4782    0.4614    2.0370 H       1  UNL1        0.0697
     60 H           3.4795   -0.5790    1.2096 H       1  UNL1        0.0331
     61 H           2.4168   -1.8528    1.8235 H       1  UNL1        0.0331
     62 H           2.3301   -1.0614   -1.1178 H       1  UNL1        0.0697
     63 H           1.4132   -2.3245   -0.2406 H       1  UNL1        0.0697
     64 H           5.4350   -4.3194   -0.6300 H       1  UNL1        0.0654
     65 H           7.8524   -3.7136   -0.9745 H       1  UNL1        0.0619
     66 H           8.4543   -1.3844   -1.1482 H       1  UNL1        0.0624
     67 H           8.9116    3.3463   -1.4054 H       1  UNL1        0.1723
     68 H           9.9025    1.0055   -1.9665 H       1  UNL1        0.2937
     69 H           4.4560   -0.1738   -0.7083 H       1  UNL1        0.0660
@<TRIPOS>BOND
     1     1     2    1
     2     2     3    1
     3     3     4    1
     4     4     5   ar
     5     5     6   ar
     6     6     7    1
     7     7     8    1
     8     8     9    1
     9     9    10    1
    10    10    11    1
    11    11    12    1
    12    12    13    1
    13     6    14   ar
    14    14    15   ar
    15    15    16   ar
    16    16    17    1
    17    17    18    1
    18    18    19    1
    19    19    20    1
    20    20    21    1
    21    21    22    1
    22    22    23   ar
    23    23    24   ar
    24    24    25   ar
    25    25    26   ar
    26    26    27    1
    27    27    28   ar
    28    28    29   ar
    29    29    30    2
    30    29    31   ar
    31    31    32   ar
    32    32    33    1
    33    26    34   ar
    34    16     4   ar
    35    34    22   ar
    36    13     8    1
    37    32    27   ar
    38     1    35    1
    39     1    36    1
    40     1    37    1
    41     2    38    1
    42     2    39    1
    43     3    40    1
    44     3    41    1
    45     5    42    1
    46     7    43    1
    47     7    44    1
    48     8    45    1
    49     9    46    1
    50     9    47    1
    51    10    48    1
    52    10    49    1
    53    11    50    1
    54    11    51    1
    55    12    52    1
    56    12    53    1
    57    13    54    1
    58    13    55    1
    59    14    56    1
    60    15    57    1
    61    18    58    1
    62    18    59    1
    63    19    60    1
    64    19    61    1
    65    20    62    1
    66    20    63    1
    67    23    64    1
    68    24    65    1
    69    25    66    1
    70    31    67    1
    71    33    68    1
    72    34    69    1
