@<TRIPOS>MOLECULE
*****
 62 65 0 0 0
SMALL
GASTEIGER

@<TRIPOS>ATOM
      1 C           9.6393   -2.4658    0.8452 C.3     1  UNL1        0.0788
      2 O           8.3427   -2.4212    0.3211 O.3     1  UNL1       -0.4951
      3 C           7.5512   -1.2574    0.2868 C.ar    1  UNL1        0.1205
      4 C           6.2814   -1.4211   -0.2786 C.ar    1  UNL1       -0.0142
      5 C           5.4397   -0.3074   -0.3456 C.ar    1  UNL1       -0.0133
      6 C           5.9403    0.8774    0.1591 C.ar    1  UNL1        0.0128
      7 S           5.0699    2.4370    0.1931 S.3     1  UNL1       -0.1233
      8 C           3.3873    2.1427    0.8228 C.3     1  UNL1        0.0141
      9 C           3.1239    0.6647    1.0279 C.3     1  UNL1        0.0243
     10 N           3.0083   -0.0751   -0.2051 N.am    1  UNL1       -0.2963
     11 C           4.1269   -0.6160   -0.9662 C.3     1  UNL1        0.0409
     12 C           1.7479   -0.3561   -0.8136 C.2     1  UNL1        0.2171
     13 O           1.6512   -1.0118   -1.9080 O.2     1  UNL1       -0.2755
     14 C           0.5290    0.1490   -0.1186 C.3     1  UNL1        0.0369
     15 C          -0.6611   -0.2320   -0.9242 C.3     1  UNL1        0.0071
     16 N          -1.9194    0.1789   -0.3975 N.3     1  UNL1       -0.3018
     17 C          -2.1539    1.5915   -0.4041 C.3     1  UNL1       -0.0008
     18 C          -3.3788    1.9427    0.3941 C.3     1  UNL1       -0.0370
     19 C          -4.5955    1.2936   -0.2325 C.3     1  UNL1       -0.0347
     20 C          -5.3241    0.5658    0.8506 C.3     1  UNL1       -0.0248
     21 C          -6.5410   -0.1349    0.4425 C.ar    1  UNL1       -0.0471
     22 C          -7.6786    0.6309    0.5202 C.ar    1  UNL1       -0.0586
     23 C          -8.9228    0.1069    0.1661 C.ar    1  UNL1       -0.0615
     24 C          -8.9958   -1.2166   -0.2715 C.ar    1  UNL1       -0.0617
     25 C          -7.8669   -2.0031   -0.3572 C.ar    1  UNL1       -0.0615
     26 C          -6.6755   -1.4356    0.0031 C.ar    1  UNL1       -0.0586
     27 C          -4.1588    0.3393   -1.3088 C.3     1  UNL1       -0.0370
     28 C          -3.0385   -0.5737   -0.8627 C.3     1  UNL1       -0.0008
     29 C           7.1846    1.0577    0.7180 C.ar    1  UNL1       -0.0446
     30 C           8.0229   -0.0611    0.7825 C.ar    1  UNL1       -0.0189
     31 H          10.3932   -2.1941    0.0834 H       1  UNL1        0.0660
     32 H           9.7811   -3.5235    1.2134 H       1  UNL1        0.0660
     33 H           9.6656   -1.8155    1.7500 H       1  UNL1        0.0660
     34 H           5.9650   -2.3700   -0.6477 H       1  UNL1        0.0658
     35 H           2.6276    2.5770    0.1447 H       1  UNL1        0.0395
     36 H           3.3305    2.6110    1.8253 H       1  UNL1        0.0395
     37 H           2.2339    0.5806    1.6865 H       1  UNL1        0.0473
     38 H           3.9700    0.2625    1.6378 H       1  UNL1        0.0473
     39 H           4.1101   -0.1229   -1.9710 H       1  UNL1        0.0514
     40 H           4.0618   -1.7245   -1.0690 H       1  UNL1        0.0514
     41 H           0.5384   -0.3519    0.8747 H       1  UNL1        0.0371
     42 H           0.6598    1.2124    0.0573 H       1  UNL1        0.0371
     43 H          -0.6791   -1.3399   -0.9915 H       1  UNL1        0.0431
     44 H          -0.5703    0.1221   -1.9625 H       1  UNL1        0.0431
     45 H          -2.3387    1.9048   -1.4531 H       1  UNL1        0.0427
     46 H          -1.2579    2.1478   -0.0941 H       1  UNL1        0.0427
     47 H          -3.4870    3.0655    0.4130 H       1  UNL1        0.0280
     48 H          -3.2710    1.6769    1.4682 H       1  UNL1        0.0280
     49 H          -5.1933    2.1081   -0.6926 H       1  UNL1        0.0305
     50 H          -4.6185   -0.2317    1.2217 H       1  UNL1        0.0316
     51 H          -5.4608    1.2413    1.7045 H       1  UNL1        0.0316
     52 H          -7.7126    1.6666    0.8492 H       1  UNL1        0.0620
     53 H          -9.8243    0.7030    0.2234 H       1  UNL1        0.0618
     54 H          -9.9827   -1.5947   -0.5398 H       1  UNL1        0.0618
     55 H          -7.9221   -3.0264   -0.6955 H       1  UNL1        0.0618
     56 H          -5.7384   -2.0003   -0.0390 H       1  UNL1        0.0620
     57 H          -3.8712    0.8333   -2.2591 H       1  UNL1        0.0280
     58 H          -4.9963   -0.3485   -1.6051 H       1  UNL1        0.0280
     59 H          -3.3722   -1.3949   -0.1996 H       1  UNL1        0.0427
     60 H          -2.6917   -1.0983   -1.8013 H       1  UNL1        0.0427
     61 H           7.5239    2.0031    1.0954 H       1  UNL1        0.0630
     62 H           8.9917    0.0320    1.2065 H       1  UNL1        0.0654
@<TRIPOS>BOND
     1     1     2    1
     2     2     3    1
     3     3     4   ar
     4     4     5   ar
     5     5     6   ar
     6     6     7    1
     7     7     8    1
     8     8     9    1
     9     9    10    1
    10    10    11    1
    11    10    12   am
    12    12    13    2
    13    12    14    1
    14    14    15    1
    15    15    16    1
    16    16    17    1
    17    17    18    1
    18    18    19    1
    19    19    20    1
    20    20    21    1
    21    21    22   ar
    22    22    23   ar
    23    23    24   ar
    24    24    25   ar
    25    25    26   ar
    26    19    27    1
    27    27    28    1
    28     6    29   ar
    29    29    30   ar
    30    30     3   ar
    31    11     5    1
    32    28    16    1
    33    26    21   ar
    34     1    31    1
    35     1    32    1
    36     1    33    1
    37     4    34    1
    38     8    35    1
    39     8    36    1
    40     9    37    1
    41     9    38    1
    42    11    39    1
    43    11    40    1
    44    14    41    1
    45    14    42    1
    46    15    43    1
    47    15    44    1
    48    17    45    1
    49    17    46    1
    50    18    47    1
    51    18    48    1
    52    19    49    1
    53    20    50    1
    54    20    51    1
    55    22    52    1
    56    23    53    1
    57    24    54    1
    58    25    55    1
    59    26    56    1
    60    27    57    1
    61    27    58    1
    62    28    59    1
    63    28    60    1
    64    29    61    1
    65    30    62    1
