@<TRIPOS>MOLECULE
*****
 71 76 0 0 0
SMALL
GASTEIGER

@<TRIPOS>ATOM
      1 C          -7.6810    2.7528    0.7766 C.3     1  UNL1        0.0032
      2 N          -6.2731    2.4457    0.7872 N.am    1  UNL1       -0.3024
      3 C          -5.5727    2.4760    2.0474 C.3     1  UNL1        0.0032
      4 C          -5.5354    2.1366   -0.3887 C.2     1  UNL1        0.2627
      5 O          -6.1773    2.1554   -1.4626 O.2     1  UNL1       -0.2684
      6 C          -4.1242    1.8283   -0.2884 C.ar    1  UNL1        0.1070
      7 C          -3.1565    2.7436    0.1387 C.ar    1  UNL1       -0.0209
      8 C          -1.9705    2.0898    0.1147 C.ar    1  UNL1        0.0378
      9 C          -0.6483    2.4346    0.4129 C.ar    1  UNL1        0.0419
     10 N           0.3246    1.5208    0.2697 N.ar    1  UNL1       -0.2219
     11 C           0.1350    0.2750   -0.1447 C.ar    1  UNL1        0.2224
     12 N           1.0570   -0.7373   -0.3604 N.pl3   1  UNL1       -0.2684
     13 C           2.4568   -0.6115   -0.2168 C.ar    1  UNL1        0.1251
     14 C           3.1099    0.5128    0.2203 C.ar    1  UNL1       -0.0197
     15 C           4.4956    0.6213    0.2956 C.ar    1  UNL1       -0.0355
     16 C           5.2612   -0.4371   -0.0825 C.ar    1  UNL1        0.0546
     17 N           6.6962   -0.4024   -0.0754 N.am    1  UNL1       -0.2672
     18 C           7.5005   -0.8861    1.0072 C.3     1  UNL1        0.0353
     19 C           8.9482   -0.9876    0.6499 C.3     1  UNL1        0.0245
     20 C           9.5846    0.3668    0.9027 C.3     1  UNL1       -0.0342
     21 C           9.5925    0.9962   -0.4735 C.3     1  UNL1       -0.0275
     22 C           8.8697    0.0192   -1.3513 C.3     1  UNL1        0.0856
     23 N           9.2014   -1.2624   -0.7494 N.3     1  UNL1       -0.3014
     24 C           7.3914    0.1380   -1.2246 C.2     1  UNL1        0.2369
     25 O           6.6645    0.7031   -2.0833 O.2     1  UNL1       -0.2735
     26 C           4.5906   -1.5619   -0.5177 C.ar    1  UNL1        0.0511
     27 N           3.2689   -1.6548   -0.5850 N.ar    1  UNL1       -0.2383
     28 N          -1.1729   -0.0373   -0.4300 N.ar    1  UNL1       -0.1962
     29 C          -2.1848    0.8229   -0.3090 C.ar    1  UNL1        0.1466
     30 N          -3.5402    0.6682   -0.5587 N.ar    1  UNL1       -0.3180
     31 C          -4.0194   -0.5945   -1.0004 C.3     1  UNL1        0.0366
     32 C          -5.3413   -0.6745   -1.6474 C.3     1  UNL1       -0.0320
     33 C          -5.4879   -2.1397   -2.1207 C.3     1  UNL1       -0.0512
     34 C          -6.3756   -2.8939   -1.1450 C.3     1  UNL1       -0.0530
     35 C          -5.5917   -3.2549    0.0891 C.3     1  UNL1       -0.0530
     36 C          -5.1205   -1.9875    0.7838 C.3     1  UNL1       -0.0512
     37 C          -3.8388   -1.5844    0.1366 C.3     1  UNL1       -0.0320
     38 H          -8.3113    1.9950    1.2866 H       1  UNL1        0.0428
     39 H          -7.9274    3.7512    1.2207 H       1  UNL1        0.0428
     40 H          -8.0798    2.7974   -0.2776 H       1  UNL1        0.0428
     41 H          -4.7267    1.7645    2.1049 H       1  UNL1        0.0428
     42 H          -5.1755    3.5355    2.1246 H       1  UNL1        0.0428
     43 H          -6.1869    2.3090    2.9318 H       1  UNL1        0.0428
     44 H          -3.3237    3.7520    0.4253 H       1  UNL1        0.0647
     45 H          -0.4278    3.4215    0.7476 H       1  UNL1        0.0838
     46 H           0.7206   -1.7025   -0.6565 H       1  UNL1        0.1564
     47 H           2.5365    1.3827    0.5358 H       1  UNL1        0.0652
     48 H           4.9773    1.5140    0.6423 H       1  UNL1        0.0638
     49 H           7.3581   -0.1613    1.8632 H       1  UNL1        0.0484
     50 H           7.0920   -1.8869    1.3179 H       1  UNL1        0.0484
     51 H           9.3991   -1.7886    1.2723 H       1  UNL1        0.0476
     52 H           8.9983    1.0043    1.5857 H       1  UNL1        0.0281
     53 H          10.6157    0.1927    1.2926 H       1  UNL1        0.0281
     54 H          10.6259    1.0843   -0.8708 H       1  UNL1        0.0285
     55 H           9.1188    2.0029   -0.4689 H       1  UNL1        0.0285
     56 H           9.1862    0.0639   -2.4182 H       1  UNL1        0.0557
     57 H          10.1686   -1.5628   -0.8810 H       1  UNL1        0.1230
     58 H           5.2368   -2.4060   -0.8119 H       1  UNL1        0.0849
     59 H          -3.2747   -0.9515   -1.7953 H       1  UNL1        0.0528
     60 H          -6.2192   -0.5045   -1.0319 H       1  UNL1        0.0285
     61 H          -5.2953   -0.1080   -2.6045 H       1  UNL1        0.0285
     62 H          -4.5123   -2.6641   -2.0954 H       1  UNL1        0.0266
     63 H          -5.8519   -2.1908   -3.1506 H       1  UNL1        0.0266
     64 H          -6.8027   -3.7956   -1.5976 H       1  UNL1        0.0265
     65 H          -7.1529   -2.1469   -0.8151 H       1  UNL1        0.0265
     66 H          -6.2207   -3.7988    0.8034 H       1  UNL1        0.0265
     67 H          -4.6696   -3.8195   -0.1592 H       1  UNL1        0.0265
     68 H          -4.8694   -2.2257    1.8595 H       1  UNL1        0.0266
     69 H          -5.8800   -1.2088    0.8396 H       1  UNL1        0.0266
     70 H          -3.3138   -2.5022   -0.2146 H       1  UNL1        0.0285
     71 H          -3.1487   -1.1456    0.8970 H       1  UNL1        0.0285
@<TRIPOS>BOND
     1     1     2    1
     2     2     3    1
     3     2     4   am
     4     4     5    2
     5     4     6    1
     6     6     7   ar
     7     7     8   ar
     8     8     9   ar
     9     9    10   ar
    10    10    11   ar
    11    11    12    1
    12    12    13    1
    13    13    14   ar
    14    14    15   ar
    15    15    16   ar
    16    16    17    1
    17    17    18    1
    18    18    19    1
    19    19    20    1
    20    20    21    1
    21    21    22    1
    22    22    23    1
    23    22    24    1
    24    24    25    2
    25    16    26   ar
    26    26    27   ar
    27    11    28   ar
    28    28    29   ar
    29    29    30   ar
    30    30    31    1
    31    31    32    1
    32    32    33    1
    33    33    34    1
    34    34    35    1
    35    35    36    1
    36    36    37    1
    37    30     6   ar
    38    37    31    1
    39    29     8   ar
    40    27    13   ar
    41    24    17   am
    42    23    19    1
    43     1    38    1
    44     1    39    1
    45     1    40    1
    46     3    41    1
    47     3    42    1
    48     3    43    1
    49     7    44    1
    50     9    45    1
    51    12    46    1
    52    14    47    1
    53    15    48    1
    54    18    49    1
    55    18    50    1
    56    19    51    1
    57    20    52    1
    58    20    53    1
    59    21    54    1
    60    21    55    1
    61    22    56    1
    62    23    57    1
    63    26    58    1
    64    31    59    1
    65    32    60    1
    66    32    61    1
    67    33    62    1
    68    33    63    1
    69    34    64    1
    70    34    65    1
    71    35    66    1
    72    35    67    1
    73    36    68    1
    74    36    69    1
    75    37    70    1
    76    37    71    1
