@<TRIPOS>MOLECULE
*****
 51 53 0 0 0
SMALL
GASTEIGER

@<TRIPOS>ATOM
      1 CE         -3.8319    0.1528   -0.8029 C.3     1  MET1        0.0732
      2 C          -5.2446    0.4618   -0.5226 C.3     1  MET1       -0.0248
      3 C          -5.5473    1.0831    0.7928 C.3     1  MET1       -0.0484
      4 C          -4.5199    0.8652    1.8577 C.3     1  MET1       -0.0238
      5 CA         -3.6652   -0.3448    1.6546 C.3     1  MET1        0.1239
      6 N          -3.0348   -0.1925    0.3444 N.am    1  MET1       -0.2745
      7 C          -1.6366   -0.4112    0.3391 C.2     1  MET1        0.2374
      8 O          -1.1836   -0.9521    1.4047 O.2     1  MET1       -0.2735
      9 CA         -0.6487   -0.0902   -0.7443 C.3     1  MET1        0.1004
     10 CB         -0.8803   -0.9515   -1.9384 C.3     1  MET1       -0.0169
     11 CG         -1.9807   -1.9735   -1.7627 C.3     1  MET1       -0.0024
     12 SD         -3.6345   -1.2506   -1.9687 S.3     1  MET1       -0.1382
     13 N           0.6933   -0.0428   -0.2594 N.am    1  MET1       -0.3031
     14 C           1.4329    1.1918   -0.2193 C.2     0  UNK0        0.2266
     15 O           0.8494    2.2478   -0.6325 O.2     0  UNK0       -0.2746
     16 C           2.8157    1.2343    0.2815 C.3     0  UNK0        0.0824
     17 S           2.8298    0.6700    2.0053 S.3     0  UNK0       -0.1652
     18 C           3.6544    0.3243   -0.5856 C.3     0  UNK0       -0.0076
     19 C           5.0789    0.2848   -0.1739 C.ar    0  UNK0       -0.0459
     20 C           5.9348    1.2070   -0.7474 C.ar    0  UNK0       -0.0585
     21 C           7.2748    1.2325   -0.4143 C.ar    0  UNK0       -0.0615
     22 C           7.7399    0.3160    0.5043 C.ar    0  UNK0       -0.0617
     23 C           6.9146   -0.6143    1.0929 C.ar    0  UNK0       -0.0615
     24 C           5.5806   -0.6163    0.7410 C.ar    0  UNK0       -0.0585
     25 C          -4.4587   -1.5760    1.7662 C.2     1  MET1        0.3255
     26 O          -4.5206   -2.4270    0.6583 O.3     1  MET1       -0.4793
     27 OXT        -5.0738   -1.8576    2.8477 O.2     1  MET1       -0.2489
     28 HE         -3.2989    1.0076   -1.3114 H       1  MET1        0.0616
     29 H          -5.8696   -0.4423   -0.6876 H       1  MET1        0.0291
     30 H          -5.5953    1.1750   -1.3248 H       1  MET1        0.0291
     31 H          -5.7116    2.1778    0.6912 H       1  MET1        0.0267
     32 H          -6.5086    0.6706    1.1665 H       1  MET1        0.0267
     33 H          -4.9555    0.8070    2.8838 H       1  MET1        0.0288
     34 H          -3.8243    1.7544    1.9016 H       1  MET1        0.0288
     35 HA         -2.9007   -0.3349    2.4646 H       1  MET1        0.0617
     36 HA         -0.9082    0.9687   -1.0389 H       1  MET1        0.0595
     37 HB1         0.0487   -1.5227   -2.1965 H       1  MET1        0.0296
     38 HB2        -1.1160   -0.3706   -2.8661 H       1  MET1        0.0296
     39 HG1        -1.8619   -2.4586   -0.7523 H       1  MET1        0.0378
     40 HG2        -1.8662   -2.7621   -2.5309 H       1  MET1        0.0378
     41 H           1.1424   -0.9146    0.0697 H       1  MET1        0.1495
     42 H           3.1595    2.2785    0.2856 H       0  UNK0        0.0508
     43 H           3.0093    1.6926    2.9262 H       0  UNK0        0.1024
     44 H           3.1881   -0.6904   -0.5113 H       0  UNK0        0.0328
     45 H           3.5985    0.6706   -1.6177 H       0  UNK0        0.0328
     46 H           5.5501    1.9160   -1.4645 H       0  UNK0        0.0620
     47 H           7.8885    1.9809   -0.9011 H       0  UNK0        0.0618
     48 H           8.7794    0.3758    0.7279 H       0  UNK0        0.0618
     49 H           7.2926   -1.3390    1.8219 H       0  UNK0        0.0618
     50 H           4.8810   -1.3338    1.1783 H       0  UNK0        0.0620
     51 H          -5.0593   -3.2776    0.7801 H       1  MET1        0.2951
@<TRIPOS>BOND
     1     1     2    1
     2     2     3    1
     3     3     4    1
     4     4     5    1
     5     5     6    1
     6     6     7   am
     7     7     8    2
     8     7     9    1
     9     9    10    1
    10    10    11    1
    11    11    12    1
    12     9    13    1
    13    13    14   am
    14    14    15    2
    15    14    16    1
    16    16    17    1
    17    16    18    1
    18    18    19    1
    19    19    20   ar
    20    20    21   ar
    21    21    22   ar
    22    22    23   ar
    23    23    24   ar
    24     5    25    1
    25    25    26    1
    26    25    27    2
    27     6     1    1
    28    24    19   ar
    29    12     1    1
    30     1    28    1
    31     2    29    1
    32     2    30    1
    33     3    31    1
    34     3    32    1
    35     4    33    1
    36     4    34    1
    37     5    35    1
    38     9    36    1
    39    10    37    1
    40    10    38    1
    41    11    39    1
    42    11    40    1
    43    13    41    1
    44    16    42    1
    45    17    43    1
    46    18    44    1
    47    18    45    1
    48    20    46    1
    49    21    47    1
    50    22    48    1
    51    23    49    1
    52    24    50    1
    53    26    51    1
