
     RDKit          3D

 51 53  0  0  0  0  0  0  0  0999 V2000
   -3.8319    0.1528   -0.8029 C   0  0  1  0  0  0  0  0  0  0  0  0
   -5.2446    0.4618   -0.5226 C   0  0  0  0  0  0  0  0  0  0  0  0
   -5.5473    1.0831    0.7928 C   0  0  0  0  0  0  0  0  0  0  0  0
   -4.5199    0.8652    1.8577 C   0  0  0  0  0  0  0  0  0  0  0  0
   -3.6652   -0.3448    1.6546 C   0  0  2  0  0  0  0  0  0  0  0  0
   -3.0348   -0.1925    0.3444 N   0  0  0  0  0  0  0  0  0  0  0  0
   -1.6366   -0.4112    0.3391 C   0  0  0  0  0  0  0  0  0  0  0  0
   -1.1836   -0.9521    1.4047 O   0  0  0  0  0  0  0  0  0  0  0  0
   -0.6487   -0.0902   -0.7443 C   0  0  2  0  0  0  0  0  0  0  0  0
   -0.8803   -0.9515   -1.9384 C   0  0  0  0  0  0  0  0  0  0  0  0
   -1.9807   -1.9735   -1.7627 C   0  0  0  0  0  0  0  0  0  0  0  0
   -3.6345   -1.2506   -1.9687 S   0  0  0  0  0  0  0  0  0  0  0  0
    0.6933   -0.0428   -0.2594 N   0  0  0  0  0  0  0  0  0  0  0  0
    1.4329    1.1918   -0.2193 C   0  0  0  0  0  0  0  0  0  0  0  0
    0.8494    2.2478   -0.6325 O   0  0  0  0  0  0  0  0  0  0  0  0
    2.8157    1.2343    0.2815 C   0  0  1  0  0  0  0  0  0  0  0  0
    2.8298    0.6700    2.0053 S   0  0  0  0  0  0  0  0  0  0  0  0
    3.6544    0.3243   -0.5856 C   0  0  0  0  0  0  0  0  0  0  0  0
    5.0789    0.2848   -0.1739 C   0  0  0  0  0  0  0  0  0  0  0  0
    5.9348    1.2070   -0.7474 C   0  0  0  0  0  0  0  0  0  0  0  0
    7.2748    1.2325   -0.4143 C   0  0  0  0  0  0  0  0  0  0  0  0
    7.7399    0.3160    0.5043 C   0  0  0  0  0  0  0  0  0  0  0  0
    6.9146   -0.6143    1.0929 C   0  0  0  0  0  0  0  0  0  0  0  0
    5.5806   -0.6163    0.7410 C   0  0  0  0  0  0  0  0  0  0  0  0
   -4.4587   -1.5760    1.7662 C   0  0  0  0  0  0  0  0  0  0  0  0
   -4.5206   -2.4270    0.6583 O   0  0  0  0  0  0  0  0  0  0  0  0
   -5.0738   -1.8576    2.8477 O   0  0  0  0  0  0  0  0  0  0  0  0
   -3.2989    1.0076   -1.3114 H   0  0  0  0  0  0  0  0  0  0  0  0
   -5.8696   -0.4423   -0.6876 H   0  0  0  0  0  0  0  0  0  0  0  0
   -5.5953    1.1750   -1.3248 H   0  0  0  0  0  0  0  0  0  0  0  0
   -5.7116    2.1778    0.6912 H   0  0  0  0  0  0  0  0  0  0  0  0
   -6.5086    0.6706    1.1665 H   0  0  0  0  0  0  0  0  0  0  0  0
   -4.9555    0.8070    2.8838 H   0  0  0  0  0  0  0  0  0  0  0  0
   -3.8243    1.7544    1.9016 H   0  0  0  0  0  0  0  0  0  0  0  0
   -2.9007   -0.3349    2.4646 H   0  0  0  0  0  0  0  0  0  0  0  0
   -0.9082    0.9687   -1.0389 H   0  0  0  0  0  0  0  0  0  0  0  0
    0.0487   -1.5227   -2.1965 H   0  0  0  0  0  0  0  0  0  0  0  0
   -1.1160   -0.3706   -2.8661 H   0  0  0  0  0  0  0  0  0  0  0  0
   -1.8619   -2.4586   -0.7523 H   0  0  0  0  0  0  0  0  0  0  0  0
   -1.8662   -2.7621   -2.5309 H   0  0  0  0  0  0  0  0  0  0  0  0
    1.1424   -0.9146    0.0697 H   0  0  0  0  0  0  0  0  0  0  0  0
    3.1595    2.2785    0.2856 H   0  0  0  0  0  0  0  0  0  0  0  0
    3.0093    1.6926    2.9262 H   0  0  0  0  0  0  0  0  0  0  0  0
    3.1881   -0.6904   -0.5113 H   0  0  0  0  0  0  0  0  0  0  0  0
    3.5985    0.6706   -1.6177 H   0  0  0  0  0  0  0  0  0  0  0  0
    5.5501    1.9160   -1.4645 H   0  0  0  0  0  0  0  0  0  0  0  0
    7.8885    1.9809   -0.9011 H   0  0  0  0  0  0  0  0  0  0  0  0
    8.7794    0.3758    0.7279 H   0  0  0  0  0  0  0  0  0  0  0  0
    7.2926   -1.3390    1.8219 H   0  0  0  0  0  0  0  0  0  0  0  0
    4.8810   -1.3338    1.1783 H   0  0  0  0  0  0  0  0  0  0  0  0
   -5.0593   -3.2776    0.7801 H   0  0  0  0  0  0  0  0  0  0  0  0
  1  2  1  0
  2  3  1  0
  3  4  1  0
  4  5  1  0
  5  6  1  0
  6  7  1  0
  7  8  2  0
  7  9  1  0
  9 10  1  0
 10 11  1  0
 11 12  1  0
  9 13  1  0
 13 14  1  0
 14 15  2  0
 14 16  1  0
 16 17  1  0
 16 18  1  0
 18 19  1  0
 19 20  2  0
 20 21  1  0
 21 22  2  0
 22 23  1  0
 23 24  2  0
  5 25  1  0
 25 26  1  0
 25 27  2  0
  6  1  1  0
 24 19  1  0
 12  1  1  0
  1 28  1  6
  2 29  1  0
  2 30  1  0
  3 31  1  0
  3 32  1  0
  4 33  1  0
  4 34  1  0
  5 35  1  1
  9 36  1  6
 10 37  1  0
 10 38  1  0
 11 39  1  0
 11 40  1  0
 13 41  1  0
 16 42  1  1
 17 43  1  0
 18 44  1  0
 18 45  1  0
 20 46  1  0
 21 47  1  0
 22 48  1  0
 23 49  1  0
 24 50  1  0
 26 51  1  0
M  END
$$$$
