@<TRIPOS>MOLECULE
*****
 58 60 0 0 0
SMALL
GASTEIGER

@<TRIPOS>ATOM
      1 C          -6.5023    0.4055    0.7336 C.3     1  UNL1       -0.0621
      2 C          -5.0436    0.3455    1.0287 C.3     1  UNL1       -0.0161
      3 C          -4.2573   -0.2463   -0.1292 C.3     1  UNL1        0.1652
      4 C          -4.6544   -1.6332   -0.4617 C.3     1  UNL1       -0.0161
      5 C          -4.4437   -2.5325    0.7209 C.3     1  UNL1       -0.0621
      6 O          -2.9052   -0.0716    0.1352 O.3     1  UNL1       -0.3561
      7 C          -2.1549   -0.6371   -0.8568 C.3     1  UNL1        0.0928
      8 C          -0.6936   -0.3458   -0.7873 C.ar    1  UNL1        0.0892
      9 C           0.3137   -1.0296   -0.1873 C.ar    1  UNL1       -0.0108
     10 C           1.5444   -0.3600   -0.4283 C.ar    1  UNL1        0.0697
     11 C           2.8300   -0.8619    0.0464 C.ar    1  UNL1        0.0035
     12 C           3.7120   -0.1645    0.8235 C.ar    1  UNL1       -0.0524
     13 C           4.9107   -0.7401    1.1885 C.ar    1  UNL1       -0.0577
     14 C           5.2501   -2.0142    0.7893 C.ar    1  UNL1       -0.0199
     15 C           4.3895   -2.7463    0.0084 C.ar    1  UNL1        0.1207
     16 O           4.6110   -4.0267   -0.4540 O.3     1  UNL1       -0.4951
     17 C           5.7808   -4.7279   -0.1567 C.3     1  UNL1        0.0788
     18 C           3.2045   -2.1406   -0.3368 C.ar    1  UNL1       -0.0108
     19 N           1.2455    0.6828   -1.1512 N.ar    1  UNL1       -0.2590
     20 C           1.9966    1.7357   -1.7898 C.3     1  UNL1        0.0685
     21 C           2.1982    2.8835   -0.9132 C.ar    1  UNL1       -0.0078
     22 C           1.0527    3.6143   -0.5547 C.ar    1  UNL1       -0.0554
     23 C           1.1742    4.6217    0.3754 C.ar    1  UNL1       -0.0614
     24 C           2.3581    4.9583    0.9779 C.ar    1  UNL1       -0.0604
     25 C           3.4747    4.2501    0.6284 C.ar    1  UNL1       -0.0431
     26 C           3.3783    3.2396   -0.2999 C.ar    1  UNL1        0.0459
     27 CL          4.8691    2.4403   -0.8410 Cl      1  UNL1       -0.0832
     28 N          -0.1145    0.7017   -1.3739 N.ar    1  UNL1       -0.1730
     29 C          -4.5795    0.6861   -1.2859 C.2     1  UNL1        0.3370
     30 O          -5.7041    0.7090   -1.8358 O.2     1  UNL1       -0.2477
     31 O          -3.5794    1.5251   -1.7210 O.3     1  UNL1       -0.4786
     32 H          -6.7780    1.2966    0.1097 H       1  UNL1        0.0231
     33 H          -7.0224    0.6181    1.7136 H       1  UNL1        0.0231
     34 H          -6.8591   -0.5429    0.3267 H       1  UNL1        0.0231
     35 H          -4.6047    1.3574    1.2265 H       1  UNL1        0.0296
     36 H          -4.9016   -0.2337    1.9664 H       1  UNL1        0.0296
     37 H          -4.0758   -2.0439   -1.3150 H       1  UNL1        0.0296
     38 H          -5.7158   -1.6555   -0.8077 H       1  UNL1        0.0296
     39 H          -5.3558   -2.6148    1.3545 H       1  UNL1        0.0231
     40 H          -3.5993   -2.1117    1.2924 H       1  UNL1        0.0231
     41 H          -4.2494   -3.5761    0.3701 H       1  UNL1        0.0231
     42 H          -2.2831   -1.7724   -0.6873 H       1  UNL1        0.0626
     43 H          -2.5425   -0.5173   -1.8841 H       1  UNL1        0.0626
     44 H           0.2461   -1.9270    0.3813 H       1  UNL1        0.0658
     45 H           3.4526    0.8328    1.1655 H       1  UNL1        0.0624
     46 H           5.6235   -0.1984    1.8010 H       1  UNL1        0.0619
     47 H           6.1894   -2.4624    1.0765 H       1  UNL1        0.0654
     48 H           5.6652   -5.3224    0.7782 H       1  UNL1        0.0660
     49 H           6.0489   -5.4615   -0.9658 H       1  UNL1        0.0660
     50 H           6.6248   -4.0183   -0.1181 H       1  UNL1        0.0660
     51 H           2.4943   -2.7112   -0.9620 H       1  UNL1        0.0661
     52 H           2.9977    1.3452   -2.1587 H       1  UNL1        0.0559
     53 H           1.5192    2.1049   -2.7277 H       1  UNL1        0.0559
     54 H           0.1047    3.3682   -1.0204 H       1  UNL1        0.0621
     55 H           0.2894    5.1885    0.6589 H       1  UNL1        0.0618
     56 H           2.4163    5.7660    1.7200 H       1  UNL1        0.0618
     57 H           4.4341    4.4935    1.0942 H       1  UNL1        0.0632
     58 H          -3.7802    2.2772   -2.3759 H       1  UNL1        0.2951
@<TRIPOS>BOND
     1     1     2    1
     2     2     3    1
     3     3     4    1
     4     4     5    1
     5     3     6    1
     6     6     7    1
     7     7     8    1
     8     8     9   ar
     9     9    10   ar
    10    10    11    1
    11    11    12   ar
    12    12    13   ar
    13    13    14   ar
    14    14    15   ar
    15    15    16    1
    16    16    17    1
    17    15    18   ar
    18    10    19   ar
    19    19    20    1
    20    20    21    1
    21    21    22   ar
    22    22    23   ar
    23    23    24   ar
    24    24    25   ar
    25    25    26   ar
    26    26    27    1
    27    19    28   ar
    28     3    29    1
    29    29    30    2
    30    29    31    1
    31    28     8   ar
    32    18    11   ar
    33    26    21   ar
    34     1    32    1
    35     1    33    1
    36     1    34    1
    37     2    35    1
    38     2    36    1
    39     4    37    1
    40     4    38    1
    41     5    39    1
    42     5    40    1
    43     5    41    1
    44     7    42    1
    45     7    43    1
    46     9    44    1
    47    12    45    1
    48    13    46    1
    49    14    47    1
    50    17    48    1
    51    17    49    1
    52    17    50    1
    53    18    51    1
    54    20    52    1
    55    20    53    1
    56    22    54    1
    57    23    55    1
    58    24    56    1
    59    25    57    1
    60    31    58    1
