@<TRIPOS>MOLECULE
*****
 40 43 0 0 0
SMALL
GASTEIGER

@<TRIPOS>ATOM
      1 C          -1.6811    3.2116   -0.0204 C.3     1  UNL1        0.0119
      2 N          -1.8149    1.7693    0.0801 N.ar    1  UNL1       -0.3494
      3 C          -2.9092    1.0288    0.0730 C.ar    1  UNL1        0.0087
      4 C          -2.6375   -0.3407    0.1911 C.ar    1  UNL1       -0.0193
      5 C          -3.6140   -1.4466    0.2181 C.3     1  UNL1       -0.0024
      6 C          -5.0136   -0.8166    0.0795 C.3     1  UNL1        0.0482
      7 O          -5.1465   -0.1133   -1.1087 O.3     1  UNL1       -0.3947
      8 C          -1.2626   -0.3444    0.2701 C.ar    1  UNL1        0.0160
      9 C          -0.7534    0.9549    0.2018 C.ar    1  UNL1        0.0504
     10 C           0.6093    1.1963    0.2619 C.ar    1  UNL1       -0.0291
     11 C           1.5062    0.1802    0.3897 C.ar    1  UNL1       -0.0017
     12 C           1.0130   -1.1071    0.4581 C.ar    1  UNL1        0.0576
     13 C          -0.3447   -1.3356    0.3973 C.ar    1  UNL1        0.0592
     14 C          -0.5275   -2.7661    0.4950 C.2     1  UNL1        0.2519
     15 O          -1.5224   -3.5286    0.4956 O.2     1  UNL1       -0.2697
     16 N           0.7315   -3.4178    0.6166 N.am    1  UNL1       -0.2483
     17 C           1.7409   -2.3870    0.5966 C.2     1  UNL1        0.2518
     18 O           2.9935   -2.5136    0.6781 O.2     1  UNL1       -0.2697
     19 C           2.9421    0.4101    0.4548 C.ar    1  UNL1        0.0012
     20 C           3.6081    0.6162    1.6649 C.ar    1  UNL1       -0.0526
     21 C           4.9748    0.8331    1.7029 C.ar    1  UNL1       -0.0611
     22 C           5.7064    0.8469    0.5105 C.ar    1  UNL1       -0.0603
     23 C           4.9929    0.6376   -0.6479 C.ar    1  UNL1       -0.0428
     24 C           3.6474    0.4199   -0.7360 C.ar    1  UNL1        0.0487
     25 CL          2.8678    0.1661   -2.2996 Cl      1  UNL1       -0.0829
     26 H          -2.3057    3.5431   -0.9004 H       1  UNL1        0.0456
     27 H          -0.6635    3.5213   -0.2673 H       1  UNL1        0.0456
     28 H          -2.0969    3.7355    0.8517 H       1  UNL1        0.0456
     29 H          -3.8779    1.5036   -0.0171 H       1  UNL1        0.0812
     30 H          -3.6760   -2.0144    1.1402 H       1  UNL1        0.0336
     31 H          -3.5314   -2.1286   -0.6509 H       1  UNL1        0.0336
     32 H          -5.7241   -1.6772    0.0406 H       1  UNL1        0.0560
     33 H          -5.2778   -0.2246    0.9598 H       1  UNL1        0.0560
     34 H          -5.8774    0.5291   -1.0125 H       1  UNL1        0.2094
     35 H           0.9918    2.2081    0.2079 H       1  UNL1        0.0645
     36 H           1.0450   -4.4133    0.7099 H       1  UNL1        0.1581
     37 H           3.0511    0.6079    2.5985 H       1  UNL1        0.0624
     38 H           5.5263    0.9969    2.6224 H       1  UNL1        0.0618
     39 H           6.7678    1.0156    0.5438 H       1  UNL1        0.0618
     40 H           5.5421    0.6433   -1.5987 H       1  UNL1        0.0632
@<TRIPOS>BOND
     1     1     2    1
     2     2     3   ar
     3     3     4   ar
     4     4     5    1
     5     5     6    1
     6     6     7    1
     7     4     8   ar
     8     8     9   ar
     9     9    10   ar
    10    10    11   ar
    11    11    12   ar
    12    12    13   ar
    13    13    14    1
    14    14    15    2
    15    14    16   am
    16    16    17   am
    17    17    18    2
    18    11    19    1
    19    19    20   ar
    20    20    21   ar
    21    21    22   ar
    22    22    23   ar
    23    23    24   ar
    24    24    25    1
    25     9     2   ar
    26    17    12    1
    27    24    19   ar
    28    13     8   ar
    29     1    26    1
    30     1    27    1
    31     1    28    1
    32     3    29    1
    33     5    30    1
    34     5    31    1
    35     6    32    1
    36     6    33    1
    37     7    34    1
    38    10    35    1
    39    16    36    1
    40    20    37    1
    41    21    38    1
    42    22    39    1
    43    23    40    1
