@<TRIPOS>MOLECULE
*****
 49 51 0 0 0
SMALL
GASTEIGER

@<TRIPOS>ATOM
      1 C          -4.1081    0.6917    1.1039 C.3     1  UNL1       -0.0612
      2 C          -3.2810    0.9775   -0.1564 C.3     1  UNL1       -0.0294
      3 C          -1.9805    0.2350   -0.0813 C.2     1  UNL1       -0.0322
      4 C          -0.8787    0.9594   -0.1618 C.2     1  UNL1       -0.0070
      5 C          -0.9598    2.4008   -0.3129 C.ar    1  UNL1       -0.0170
      6 C          -1.3985    3.0011   -1.4781 C.ar    1  UNL1       -0.0540
      7 C          -1.4978    4.3503   -1.5720 C.ar    1  UNL1       -0.0612
      8 C          -1.1681    5.1622   -0.5199 C.ar    1  UNL1       -0.0617
      9 C          -0.7287    4.6045    0.6544 C.ar    1  UNL1       -0.0612
     10 C          -0.6292    3.2062    0.7434 C.ar    1  UNL1       -0.0540
     11 C           0.4265    0.2656   -0.2003 C.ar    1  UNL1       -0.0170
     12 C           1.5010    0.6636    0.5183 C.ar    1  UNL1       -0.0534
     13 C           2.6979   -0.0262    0.4035 C.ar    1  UNL1       -0.0540
     14 C           2.8867   -1.1095   -0.4017 C.ar    1  UNL1       -0.0248
     15 C           4.1456   -1.8308   -0.5223 C.2     1  UNL1       -0.0478
     16 C           5.2568   -1.5404    0.1129 C.2     1  UNL1        0.0229
     17 C           6.4893   -2.3017   -0.0489 C.2     1  UNL1        0.3296
     18 O           6.5341   -3.2874   -0.8206 O.2     1  UNL1       -0.2458
     19 O           7.6387   -1.9612    0.6396 O.3     1  UNL1       -0.4775
     20 C           1.7685   -1.5056   -1.1349 C.ar    1  UNL1       -0.0540
     21 C           0.5735   -0.8414   -1.0406 C.ar    1  UNL1       -0.0534
     22 C          -1.9804   -1.2252    0.1165 C.ar    1  UNL1       -0.0213
     23 C          -2.8604   -1.9535   -0.6178 C.ar    1  UNL1       -0.0543
     24 C          -2.9074   -3.3204   -0.4493 C.ar    1  UNL1       -0.0612
     25 C          -2.0843   -3.9748    0.4468 C.ar    1  UNL1       -0.0617
     26 C          -1.2158   -3.2051    1.1638 C.ar    1  UNL1       -0.0612
     27 C          -1.1450   -1.8405    1.0186 C.ar    1  UNL1       -0.0543
     28 H          -5.0300    0.1473    0.7724 H       1  UNL1        0.0233
     29 H          -3.5309    0.1166    1.8428 H       1  UNL1        0.0233
     30 H          -4.4629    1.6080    1.5969 H       1  UNL1        0.0233
     31 H          -3.8444    0.7445   -1.0804 H       1  UNL1        0.0311
     32 H          -3.1445    2.0763   -0.1501 H       1  UNL1        0.0311
     33 H          -1.6545    2.3579   -2.2943 H       1  UNL1        0.0624
     34 H          -1.8502    4.7723   -2.5198 H       1  UNL1        0.0618
     35 H          -1.2396    6.2385   -0.5757 H       1  UNL1        0.0618
     36 H          -0.4708    5.2502    1.4807 H       1  UNL1        0.0618
     37 H          -0.2951    2.8727    1.7137 H       1  UNL1        0.0624
     38 H           1.4510    1.5326    1.2009 H       1  UNL1        0.0624
     39 H           3.5524    0.3188    0.9979 H       1  UNL1        0.0624
     40 H           4.2213   -2.7051   -1.1937 H       1  UNL1        0.0626
     41 H           5.2613   -0.6983    0.7877 H       1  UNL1        0.0689
     42 H           8.5720   -2.2066    0.3394 H       1  UNL1        0.2954
     43 H           1.8772   -2.3606   -1.7855 H       1  UNL1        0.0624
     44 H          -0.2675   -1.1835   -1.6396 H       1  UNL1        0.0624
     45 H          -3.5535   -1.5282   -1.3523 H       1  UNL1        0.0624
     46 H          -3.5951   -3.9605   -1.0126 H       1  UNL1        0.0618
     47 H          -2.1280   -5.0596    0.5767 H       1  UNL1        0.0618
     48 H          -0.5322   -3.6724    1.8947 H       1  UNL1        0.0618
     49 H          -0.4308   -1.2548    1.6229 H       1  UNL1        0.0624
@<TRIPOS>BOND
     1     1     2    1
     2     2     3    1
     3     3     4    2
     4     4     5    1
     5     5     6   ar
     6     6     7   ar
     7     7     8   ar
     8     8     9   ar
     9     9    10   ar
    10     4    11    1
    11    11    12   ar
    12    12    13   ar
    13    13    14   ar
    14    14    15    1
    15    15    16    2
    16    16    17    1
    17    17    18    2
    18    17    19    1
    19    14    20   ar
    20    20    21   ar
    21     3    22    1
    22    22    23   ar
    23    23    24   ar
    24    24    25   ar
    25    25    26   ar
    26    26    27   ar
    27    10     5   ar
    28    21    11   ar
    29    27    22   ar
    30     1    28    1
    31     1    29    1
    32     1    30    1
    33     2    31    1
    34     2    32    1
    35     6    33    1
    36     7    34    1
    37     8    35    1
    38     9    36    1
    39    10    37    1
    40    12    38    1
    41    13    39    1
    42    15    40    1
    43    16    41    1
    44    19    42    1
    45    20    43    1
    46    21    44    1
    47    23    45    1
    48    24    46    1
    49    25    47    1
    50    26    48    1
    51    27    49    1
