
     RDKit          3D

 49 51  0  0  0  0  0  0  0  0999 V2000
   -4.1081    0.6917    1.1039 C   0  0  0  0  0  0  0  0  0  0  0  0
   -3.2810    0.9775   -0.1564 C   0  0  0  0  0  0  0  0  0  0  0  0
   -1.9805    0.2350   -0.0813 C   0  0  0  0  0  0  0  0  0  0  0  0
   -0.8787    0.9594   -0.1618 C   0  0  0  0  0  0  0  0  0  0  0  0
   -0.9598    2.4008   -0.3129 C   0  0  0  0  0  0  0  0  0  0  0  0
   -1.3985    3.0011   -1.4781 C   0  0  0  0  0  0  0  0  0  0  0  0
   -1.4978    4.3503   -1.5720 C   0  0  0  0  0  0  0  0  0  0  0  0
   -1.1681    5.1622   -0.5199 C   0  0  0  0  0  0  0  0  0  0  0  0
   -0.7287    4.6045    0.6544 C   0  0  0  0  0  0  0  0  0  0  0  0
   -0.6292    3.2062    0.7434 C   0  0  0  0  0  0  0  0  0  0  0  0
    0.4265    0.2656   -0.2003 C   0  0  0  0  0  0  0  0  0  0  0  0
    1.5010    0.6636    0.5183 C   0  0  0  0  0  0  0  0  0  0  0  0
    2.6979   -0.0262    0.4035 C   0  0  0  0  0  0  0  0  0  0  0  0
    2.8867   -1.1095   -0.4017 C   0  0  0  0  0  0  0  0  0  0  0  0
    4.1456   -1.8308   -0.5223 C   0  0  0  0  0  0  0  0  0  0  0  0
    5.2568   -1.5404    0.1129 C   0  0  0  0  0  0  0  0  0  0  0  0
    6.4893   -2.3017   -0.0489 C   0  0  0  0  0  0  0  0  0  0  0  0
    6.5341   -3.2874   -0.8206 O   0  0  0  0  0  0  0  0  0  0  0  0
    7.6387   -1.9612    0.6396 O   0  0  0  0  0  0  0  0  0  0  0  0
    1.7685   -1.5056   -1.1349 C   0  0  0  0  0  0  0  0  0  0  0  0
    0.5735   -0.8414   -1.0406 C   0  0  0  0  0  0  0  0  0  0  0  0
   -1.9804   -1.2252    0.1165 C   0  0  0  0  0  0  0  0  0  0  0  0
   -2.8604   -1.9535   -0.6178 C   0  0  0  0  0  0  0  0  0  0  0  0
   -2.9074   -3.3204   -0.4493 C   0  0  0  0  0  0  0  0  0  0  0  0
   -2.0843   -3.9748    0.4468 C   0  0  0  0  0  0  0  0  0  0  0  0
   -1.2158   -3.2051    1.1638 C   0  0  0  0  0  0  0  0  0  0  0  0
   -1.1450   -1.8405    1.0186 C   0  0  0  0  0  0  0  0  0  0  0  0
   -5.0300    0.1473    0.7724 H   0  0  0  0  0  0  0  0  0  0  0  0
   -3.5309    0.1166    1.8428 H   0  0  0  0  0  0  0  0  0  0  0  0
   -4.4629    1.6080    1.5969 H   0  0  0  0  0  0  0  0  0  0  0  0
   -3.8444    0.7445   -1.0804 H   0  0  0  0  0  0  0  0  0  0  0  0
   -3.1445    2.0763   -0.1501 H   0  0  0  0  0  0  0  0  0  0  0  0
   -1.6545    2.3579   -2.2943 H   0  0  0  0  0  0  0  0  0  0  0  0
   -1.8502    4.7723   -2.5198 H   0  0  0  0  0  0  0  0  0  0  0  0
   -1.2396    6.2385   -0.5757 H   0  0  0  0  0  0  0  0  0  0  0  0
   -0.4708    5.2502    1.4807 H   0  0  0  0  0  0  0  0  0  0  0  0
   -0.2951    2.8727    1.7137 H   0  0  0  0  0  0  0  0  0  0  0  0
    1.4510    1.5326    1.2009 H   0  0  0  0  0  0  0  0  0  0  0  0
    3.5524    0.3188    0.9979 H   0  0  0  0  0  0  0  0  0  0  0  0
    4.2213   -2.7051   -1.1937 H   0  0  0  0  0  0  0  0  0  0  0  0
    5.2613   -0.6983    0.7877 H   0  0  0  0  0  0  0  0  0  0  0  0
    8.5720   -2.2066    0.3394 H   0  0  0  0  0  0  0  0  0  0  0  0
    1.8772   -2.3606   -1.7855 H   0  0  0  0  0  0  0  0  0  0  0  0
   -0.2675   -1.1835   -1.6396 H   0  0  0  0  0  0  0  0  0  0  0  0
   -3.5535   -1.5282   -1.3523 H   0  0  0  0  0  0  0  0  0  0  0  0
   -3.5951   -3.9605   -1.0126 H   0  0  0  0  0  0  0  0  0  0  0  0
   -2.1280   -5.0596    0.5767 H   0  0  0  0  0  0  0  0  0  0  0  0
   -0.5322   -3.6724    1.8947 H   0  0  0  0  0  0  0  0  0  0  0  0
   -0.4308   -1.2548    1.6229 H   0  0  0  0  0  0  0  0  0  0  0  0
  1  2  1  0
  2  3  1  0
  3  4  2  0
  4  5  1  0
  5  6  2  0
  6  7  1  0
  7  8  2  0
  8  9  1  0
  9 10  2  0
  4 11  1  0
 11 12  2  0
 12 13  1  0
 13 14  2  0
 14 15  1  0
 15 16  2  0
 16 17  1  0
 17 18  2  0
 17 19  1  0
 14 20  1  0
 20 21  2  0
  3 22  1  0
 22 23  2  0
 23 24  1  0
 24 25  2  0
 25 26  1  0
 26 27  2  0
 10  5  1  0
 21 11  1  0
 27 22  1  0
  1 28  1  0
  1 29  1  0
  1 30  1  0
  2 31  1  0
  2 32  1  0
  6 33  1  0
  7 34  1  0
  8 35  1  0
  9 36  1  0
 10 37  1  0
 12 38  1  0
 13 39  1  0
 15 40  1  0
 16 41  1  0
 19 42  1  0
 20 43  1  0
 21 44  1  0
 23 45  1  0
 24 46  1  0
 25 47  1  0
 26 48  1  0
 27 49  1  0
M  END
$$$$
