@<TRIPOS>MOLECULE
*****
 49 52 0 0 0
SMALL
GASTEIGER

@<TRIPOS>ATOM
      1 C           3.6773   -0.8966   -0.1998 C.3     1  UNL1        0.0609
      2 O           3.3819   -2.2783   -0.2422 O.3     1  UNL1       -0.3912
      3 C           3.9544   -0.4736    1.2484 C.3     1  UNL1       -0.0261
      4 C           2.6789    0.2166    1.7307 C.3     1  UNL1       -0.0470
      5 C           1.6785   -0.2989    0.7600 C.3     1  UNL1       -0.0301
      6 C           0.3982    0.4325    0.6587 C.3     1  UNL1       -0.0337
      7 C          -0.2633    0.7022    1.9888 C.3     1  UNL1       -0.0459
      8 C          -1.4380    1.6202    1.6244 C.3     1  UNL1       -0.0305
      9 C          -2.3785    0.8704    0.7905 C.2     1  UNL1       -0.0601
     10 C          -3.6777    0.9620    1.0331 C.2     1  UNL1       -0.0194
     11 C          -4.6478    0.2310    0.2256 C.2     1  UNL1        0.1561
     12 O          -5.8210    0.6096    0.0581 O.2     1  UNL1       -0.2927
     13 C          -4.2007   -1.0275   -0.4248 C.3     1  UNL1        0.0107
     14 C          -2.7270   -1.2747   -0.2171 C.3     1  UNL1       -0.0367
     15 C          -1.9040    0.0178   -0.3114 C.3     1  UNL1       -0.0072
     16 C          -2.3780    0.6737   -1.5951 C.3     1  UNL1       -0.0556
     17 C          -0.4871   -0.3604   -0.2827 C.3     1  UNL1       -0.0288
     18 C           0.2052   -0.2761   -1.6426 C.3     1  UNL1       -0.0486
     19 C           1.5761   -0.8981   -1.5654 C.3     1  UNL1       -0.0447
     20 C           2.4281   -0.1517   -0.5512 C.3     1  UNL1       -0.0030
     21 C           2.6913    1.2591   -0.9511 C.3     1  UNL1       -0.0569
     22 H           4.5464   -0.6328   -0.8035 H       1  UNL1        0.0599
     23 H           3.7795   -2.6976   -1.0598 H       1  UNL1        0.2098
     24 H           4.8414    0.1711    1.3350 H       1  UNL1        0.0290
     25 H           4.0458   -1.4078    1.8716 H       1  UNL1        0.0290
     26 H           2.3779   -0.1436    2.7405 H       1  UNL1        0.0269
     27 H           2.7389    1.3024    1.7299 H       1  UNL1        0.0269
     28 H           1.5010   -1.3785    0.8830 H       1  UNL1        0.0310
     29 H           0.4929    1.4375    0.1719 H       1  UNL1        0.0307
     30 H           0.4574    1.2409    2.6024 H       1  UNL1        0.0271
     31 H          -0.6168   -0.1933    2.5070 H       1  UNL1        0.0271
     32 H          -0.9989    2.4299    0.9950 H       1  UNL1        0.0310
     33 H          -1.8610    2.0507    2.5286 H       1  UNL1        0.0310
     34 H          -4.0662    1.5903    1.8489 H       1  UNL1        0.0652
     35 H          -4.4272   -1.0483   -1.5107 H       1  UNL1        0.0345
     36 H          -4.7534   -1.8767    0.0320 H       1  UNL1        0.0345
     37 H          -2.6031   -1.7392    0.7831 H       1  UNL1        0.0278
     38 H          -2.3994   -2.0272   -0.9611 H       1  UNL1        0.0278
     39 H          -2.8298   -0.0633   -2.3106 H       1  UNL1        0.0238
     40 H          -1.6093    1.2017   -2.1537 H       1  UNL1        0.0238
     41 H          -3.1796    1.4466   -1.4046 H       1  UNL1        0.0238
     42 H          -0.3241   -1.4372    0.0183 H       1  UNL1        0.0312
     43 H          -0.3911   -0.8835   -2.3496 H       1  UNL1        0.0268
     44 H           0.3761    0.7710   -1.9684 H       1  UNL1        0.0268
     45 H           1.5936   -1.9677   -1.3694 H       1  UNL1        0.0271
     46 H           2.0529   -0.7175   -2.5572 H       1  UNL1        0.0271
     47 H           2.2919    1.5142   -1.9675 H       1  UNL1        0.0236
     48 H           3.8091    1.3657   -1.0575 H       1  UNL1        0.0236
     49 H           2.4079    2.0330   -0.2286 H       1  UNL1        0.0236
@<TRIPOS>BOND
     1     1     2    1
     2     1     3    1
     3     3     4    1
     4     4     5    1
     5     5     6    1
     6     6     7    1
     7     7     8    1
     8     8     9    1
     9     9    10    2
    10    10    11    1
    11    11    12    2
    12    11    13    1
    13    13    14    1
    14    14    15    1
    15    15    16    1
    16    15    17    1
    17    17    18    1
    18    18    19    1
    19    19    20    1
    20    20    21    1
    21    20     1    1
    22    20     5    1
    23    17     6    1
    24    15     9    1
    25     1    22    1
    26     2    23    1
    27     3    24    1
    28     3    25    1
    29     4    26    1
    30     4    27    1
    31     5    28    1
    32     6    29    1
    33     7    30    1
    34     7    31    1
    35     8    32    1
    36     8    33    1
    37    10    34    1
    38    13    35    1
    39    13    36    1
    40    14    37    1
    41    14    38    1
    42    16    39    1
    43    16    40    1
    44    16    41    1
    45    17    42    1
    46    18    43    1
    47    18    44    1
    48    19    45    1
    49    19    46    1
    50    21    47    1
    51    21    48    1
    52    21    49    1
