
     RDKit          3D

 49 52  0  0  0  0  0  0  0  0999 V2000
    3.6773   -0.8966   -0.1998 C   0  0  2  0  0  0  0  0  0  0  0  0
    3.3819   -2.2783   -0.2422 O   0  0  0  0  0  0  0  0  0  0  0  0
    3.9544   -0.4736    1.2484 C   0  0  0  0  0  0  0  0  0  0  0  0
    2.6789    0.2166    1.7307 C   0  0  0  0  0  0  0  0  0  0  0  0
    1.6785   -0.2989    0.7600 C   0  0  1  0  0  0  0  0  0  0  0  0
    0.3982    0.4325    0.6587 C   0  0  2  0  0  0  0  0  0  0  0  0
   -0.2633    0.7022    1.9888 C   0  0  0  0  0  0  0  0  0  0  0  0
   -1.4380    1.6202    1.6244 C   0  0  0  0  0  0  0  0  0  0  0  0
   -2.3785    0.8704    0.7905 C   0  0  0  0  0  0  0  0  0  0  0  0
   -3.6777    0.9620    1.0331 C   0  0  0  0  0  0  0  0  0  0  0  0
   -4.6478    0.2310    0.2256 C   0  0  0  0  0  0  0  0  0  0  0  0
   -5.8210    0.6096    0.0581 O   0  0  0  0  0  0  0  0  0  0  0  0
   -4.2007   -1.0275   -0.4248 C   0  0  0  0  0  0  0  0  0  0  0  0
   -2.7270   -1.2747   -0.2171 C   0  0  0  0  0  0  0  0  0  0  0  0
   -1.9040    0.0178   -0.3114 C   0  0  1  0  0  0  0  0  0  0  0  0
   -2.3780    0.6737   -1.5951 C   0  0  0  0  0  0  0  0  0  0  0  0
   -0.4871   -0.3604   -0.2827 C   0  0  1  0  0  0  0  0  0  0  0  0
    0.2052   -0.2761   -1.6426 C   0  0  0  0  0  0  0  0  0  0  0  0
    1.5761   -0.8981   -1.5654 C   0  0  0  0  0  0  0  0  0  0  0  0
    2.4281   -0.1517   -0.5512 C   0  0  2  0  0  0  0  0  0  0  0  0
    2.6913    1.2591   -0.9511 C   0  0  0  0  0  0  0  0  0  0  0  0
    4.5464   -0.6328   -0.8035 H   0  0  0  0  0  0  0  0  0  0  0  0
    3.7795   -2.6976   -1.0598 H   0  0  0  0  0  0  0  0  0  0  0  0
    4.8414    0.1711    1.3350 H   0  0  0  0  0  0  0  0  0  0  0  0
    4.0458   -1.4078    1.8716 H   0  0  0  0  0  0  0  0  0  0  0  0
    2.3779   -0.1436    2.7405 H   0  0  0  0  0  0  0  0  0  0  0  0
    2.7389    1.3024    1.7299 H   0  0  0  0  0  0  0  0  0  0  0  0
    1.5010   -1.3785    0.8830 H   0  0  0  0  0  0  0  0  0  0  0  0
    0.4929    1.4375    0.1719 H   0  0  0  0  0  0  0  0  0  0  0  0
    0.4574    1.2409    2.6024 H   0  0  0  0  0  0  0  0  0  0  0  0
   -0.6168   -0.1933    2.5070 H   0  0  0  0  0  0  0  0  0  0  0  0
   -0.9989    2.4299    0.9950 H   0  0  0  0  0  0  0  0  0  0  0  0
   -1.8610    2.0507    2.5286 H   0  0  0  0  0  0  0  0  0  0  0  0
   -4.0662    1.5903    1.8489 H   0  0  0  0  0  0  0  0  0  0  0  0
   -4.4272   -1.0483   -1.5107 H   0  0  0  0  0  0  0  0  0  0  0  0
   -4.7534   -1.8767    0.0320 H   0  0  0  0  0  0  0  0  0  0  0  0
   -2.6031   -1.7392    0.7831 H   0  0  0  0  0  0  0  0  0  0  0  0
   -2.3994   -2.0272   -0.9611 H   0  0  0  0  0  0  0  0  0  0  0  0
   -2.8298   -0.0633   -2.3106 H   0  0  0  0  0  0  0  0  0  0  0  0
   -1.6093    1.2017   -2.1537 H   0  0  0  0  0  0  0  0  0  0  0  0
   -3.1796    1.4466   -1.4046 H   0  0  0  0  0  0  0  0  0  0  0  0
   -0.3241   -1.4372    0.0183 H   0  0  0  0  0  0  0  0  0  0  0  0
   -0.3911   -0.8835   -2.3496 H   0  0  0  0  0  0  0  0  0  0  0  0
    0.3761    0.7710   -1.9684 H   0  0  0  0  0  0  0  0  0  0  0  0
    1.5936   -1.9677   -1.3694 H   0  0  0  0  0  0  0  0  0  0  0  0
    2.0529   -0.7175   -2.5572 H   0  0  0  0  0  0  0  0  0  0  0  0
    2.2919    1.5142   -1.9675 H   0  0  0  0  0  0  0  0  0  0  0  0
    3.8091    1.3657   -1.0575 H   0  0  0  0  0  0  0  0  0  0  0  0
    2.4079    2.0330   -0.2286 H   0  0  0  0  0  0  0  0  0  0  0  0
  1  2  1  0
  1  3  1  0
  3  4  1  0
  4  5  1  0
  5  6  1  0
  6  7  1  0
  7  8  1  0
  8  9  1  0
  9 10  2  0
 10 11  1  0
 11 12  2  0
 11 13  1  0
 13 14  1  0
 14 15  1  0
 15 16  1  6
 15 17  1  0
 17 18  1  0
 18 19  1  0
 19 20  1  0
 20 21  1  6
 20  1  1  0
 20  5  1  0
 17  6  1  0
 15  9  1  0
  1 22  1  6
  2 23  1  0
  3 24  1  0
  3 25  1  0
  4 26  1  0
  4 27  1  0
  5 28  1  1
  6 29  1  6
  7 30  1  0
  7 31  1  0
  8 32  1  0
  8 33  1  0
 10 34  1  0
 13 35  1  0
 13 36  1  0
 14 37  1  0
 14 38  1  0
 16 39  1  0
 16 40  1  0
 16 41  1  0
 17 42  1  1
 18 43  1  0
 18 44  1  0
 19 45  1  0
 19 46  1  0
 21 47  1  0
 21 48  1  0
 21 49  1  0
M  END
$$$$
