@<TRIPOS>MOLECULE
*****
 80 82 0 0 0
SMALL
GASTEIGER

@<TRIPOS>ATOM
      1 C          -0.5334   -6.1147    0.0378 C.3     1  UNL1       -0.0653
      2 C          -0.9776   -4.8018    0.6230 C.3     1  UNL1       -0.0558
      3 C          -0.7230   -3.6264   -0.3082 C.3     1  UNL1       -0.0512
      4 C          -1.1907   -2.3340    0.2952 C.3     1  UNL1       -0.0260
      5 C          -0.9247   -1.1767   -0.5840 C.3     1  UNL1        0.0994
      6 N           0.3731   -0.7970   -0.9236 N.am    1  UNL1       -0.3025
      7 C           1.6475   -1.1628   -0.4543 C.2     1  UNL1        0.2342
      8 O           1.6817   -1.9858    0.4851 O.2     1  UNL1       -0.2738
      9 C           2.8784   -0.5749   -1.0719 C.3     1  UNL1        0.1023
     10 C           2.9419   -1.2751   -2.4617 C.3     1  UNL1       -0.0243
     11 C           3.2986   -2.6895   -2.0136 C.3     1  UNL1       -0.0350
     12 C           4.0790   -2.4825   -0.7289 C.3     1  UNL1        0.0156
     13 N           4.1056   -1.0494   -0.5320 N.am    1  UNL1       -0.2884
     14 C           5.1366   -0.2910    0.0164 C.2     1  UNL1        0.2362
     15 O           6.1891   -0.9319    0.3787 O.2     1  UNL1       -0.2736
     16 C           5.1591    1.1818    0.2299 C.3     1  UNL1        0.0968
     17 C           4.9434    1.8455   -1.1183 C.3     1  UNL1       -0.0381
     18 N           6.4930    1.5125    0.6447 N.am    1  UNL1       -0.3026
     19 C           6.8663    2.0424    1.8921 C.2     1  UNL1        0.2420
     20 O           5.9863    2.2683    2.7476 O.2     1  UNL1       -0.2735
     21 C           8.3289    2.3268    2.1603 C.3     1  UNL1        0.1942
     22 N           9.0935    2.0009    0.9814 N.2     1  UNL1        0.0857
     23 N           9.1275    2.8414    0.0541 N.2     1  UNL1       -0.0143
     24 N           9.1576    3.0750   -1.1792 N.2     1  UNL1       -0.3282
     25 C          -1.6592   -0.0187   -0.0581 C.2     1  UNL1        0.2339
     26 O          -1.1089    1.0857    0.2449 O.2     1  UNL1       -0.2738
     27 N          -3.0901   -0.0593    0.1475 N.am    1  UNL1       -0.3037
     28 C          -3.7740    1.0838    0.6742 C.3     1  UNL1        0.0884
     29 C          -3.8332    2.0524   -0.5457 C.3     1  UNL1       -0.0022
     30 C          -4.4216    3.3318   -0.2306 C.ar    1  UNL1       -0.0452
     31 C          -5.7502    3.5985   -0.3223 C.ar    1  UNL1       -0.0585
     32 C          -6.1888    4.8819   -0.0126 C.ar    1  UNL1       -0.0615
     33 C          -5.3387    5.8967    0.3839 C.ar    1  UNL1       -0.0617
     34 C          -3.9851    5.6075    0.4720 C.ar    1  UNL1       -0.0615
     35 C          -3.5154    4.3459    0.1710 C.ar    1  UNL1       -0.0585
     36 C          -5.1344    0.7540    1.0901 C.2     1  UNL1        0.1871
     37 O          -5.7873    1.6202    1.6966 O.2     1  UNL1       -0.2923
     38 C          -5.8458   -0.5145    0.8633 C.3     1  UNL1        0.1492
     39 C          -6.2508   -1.4185    2.0256 C.3     1  UNL1       -0.0266
     40 C          -6.8310   -0.5611   -0.3084 C.3     1  UNL1        0.0847
     41 O          -5.6663   -1.2740   -0.2897 O.3     1  UNL1       -0.3605
     42 H           0.5049   -6.0926   -0.3567 H       1  UNL1        0.0230
     43 H          -0.6693   -6.9538    0.7620 H       1  UNL1        0.0230
     44 H          -1.2059   -6.3621   -0.8079 H       1  UNL1        0.0230
     45 H          -2.0001   -4.8186    1.0017 H       1  UNL1        0.0263
     46 H          -0.3089   -4.6237    1.5044 H       1  UNL1        0.0263
     47 H          -1.4780   -3.8395   -1.1611 H       1  UNL1        0.0266
     48 H           0.2182   -3.6535   -0.8093 H       1  UNL1        0.0266
     49 H          -0.8818   -2.1951    1.3509 H       1  UNL1        0.0288
     50 H          -2.3159   -2.4343    0.4001 H       1  UNL1        0.0288
     51 H          -1.4169   -1.5012   -1.5708 H       1  UNL1        0.0594
     52 H           0.4114   -0.0502   -1.7154 H       1  UNL1        0.1495
     53 H           2.7461    0.4945   -1.1524 H       1  UNL1        0.0597
     54 H           3.7647   -0.8356   -3.0436 H       1  UNL1        0.0288
     55 H           1.9402   -1.1891   -2.8690 H       1  UNL1        0.0288
     56 H           3.8839   -3.1285   -2.8301 H       1  UNL1        0.0281
     57 H           2.4038   -3.3163   -1.8648 H       1  UNL1        0.0281
     58 H           5.1159   -2.8749   -0.9516 H       1  UNL1        0.0465
     59 H           3.7236   -3.0579    0.1307 H       1  UNL1        0.0465
     60 H           4.3820    1.4844    0.9720 H       1  UNL1        0.0592
     61 H           5.8426    2.4632   -1.4235 H       1  UNL1        0.0252
     62 H           4.0332    2.4710   -1.0993 H       1  UNL1        0.0252
     63 H           4.8814    1.0905   -1.9464 H       1  UNL1        0.0252
     64 H           7.2753    1.3591   -0.0427 H       1  UNL1        0.1495
     65 H           8.6976    1.6236    2.9584 H       1  UNL1        0.0676
     66 H           8.4237    3.3541    2.5159 H       1  UNL1        0.0676
     67 H          -3.5295   -0.9478   -0.1202 H       1  UNL1        0.1495
     68 H          -3.1832    1.6539    1.3859 H       1  UNL1        0.0581
     69 H          -4.3938    1.6008   -1.3887 H       1  UNL1        0.0335
     70 H          -2.7936    2.1609   -0.8699 H       1  UNL1        0.0335
     71 H          -6.4279    2.8269   -0.6352 H       1  UNL1        0.0620
     72 H          -7.2378    5.0905   -0.0809 H       1  UNL1        0.0618
     73 H          -5.7278    6.8825    0.6128 H       1  UNL1        0.0618
     74 H          -3.3365    6.4229    0.7937 H       1  UNL1        0.0618
     75 H          -2.4597    4.1642    0.2578 H       1  UNL1        0.0620
     76 H          -5.6415   -2.3114    2.1174 H       1  UNL1        0.0262
     77 H          -7.3484   -1.6856    1.9144 H       1  UNL1        0.0262
     78 H          -6.1880   -0.8062    2.9475 H       1  UNL1        0.0262
     79 H          -7.7881   -1.0750   -0.2163 H       1  UNL1        0.0593
     80 H          -6.8730    0.3965   -0.8899 H       1  UNL1        0.0593
@<TRIPOS>UNITY_ATOM_ATTR
23 1
charge 1
24 1
charge -1
@<TRIPOS>BOND
     1     1     2    1
     2     2     3    1
     3     3     4    1
     4     4     5    1
     5     5     6    1
     6     6     7   am
     7     7     8    2
     8     7     9    1
     9     9    10    1
    10    10    11    1
    11    11    12    1
    12    12    13    1
    13    13    14   am
    14    14    15    2
    15    14    16    1
    16    16    17    1
    17    16    18    1
    18    18    19   am
    19    19    20    2
    20    19    21    1
    21    21    22    1
    22    22    23    2
    23    23    24    2
    24     5    25    1
    25    25    26    2
    26    25    27   am
    27    27    28    1
    28    28    29    1
    29    29    30    1
    30    30    31   ar
    31    31    32   ar
    32    32    33   ar
    33    33    34   ar
    34    34    35   ar
    35    28    36    1
    36    36    37    2
    37    36    38    1
    38    38    39    1
    39    38    40    1
    40    40    41    1
    41    13     9    1
    42    35    30   ar
    43    41    38    1
    44     1    42    1
    45     1    43    1
    46     1    44    1
    47     2    45    1
    48     2    46    1
    49     3    47    1
    50     3    48    1
    51     4    49    1
    52     4    50    1
    53     5    51    1
    54     6    52    1
    55     9    53    1
    56    10    54    1
    57    10    55    1
    58    11    56    1
    59    11    57    1
    60    12    58    1
    61    12    59    1
    62    16    60    1
    63    17    61    1
    64    17    62    1
    65    17    63    1
    66    18    64    1
    67    21    65    1
    68    21    66    1
    69    27    67    1
    70    28    68    1
    71    29    69    1
    72    29    70    1
    73    31    71    1
    74    32    72    1
    75    33    73    1
    76    34    74    1
    77    35    75    1
    78    39    76    1
    79    39    77    1
    80    39    78    1
    81    40    79    1
    82    40    80    1
