@<TRIPOS>MOLECULE
*****
 36 37 0 0 0
SMALL
GASTEIGER

@<TRIPOS>ATOM
      1 O           4.6260    3.0556    0.5879 O.3     1  UNL1       -0.4783
      2 C           3.9504    1.8445    0.8378 C.2     1  UNL1        0.3427
      3 O           4.6963    1.0242    1.4308 O.2     1  UNL1       -0.2472
      4 C           2.5541    1.8571    0.3413 C.3     1  UNL1        0.1857
      5 O           1.8417    0.6763    0.5599 O.3     1  UNL1       -0.4800
      6 C           2.1542   -0.5625    0.0898 C.ar    1  UNL1        0.1334
      7 C           3.2585   -0.8228   -0.6964 C.ar    1  UNL1        0.0160
      8 C           3.5338   -2.1161   -1.1534 C.ar    1  UNL1        0.1269
      9 F           4.5980   -2.4030   -1.9181 F       1  UNL1       -0.2054
     10 C           2.6364   -3.0829   -0.7649 C.ar    1  UNL1       -0.0256
     11 C           1.5020   -2.9006    0.0244 C.ar    1  UNL1       -0.0461
     12 C           1.2715   -1.5880    0.4560 C.ar    1  UNL1        0.0450
     13 C           0.0882   -1.3960    1.2826 C.2     1  UNL1        0.0832
     14 S           0.4138   -2.0688    2.7311 S.2     1  UNL1       -0.0349
     15 N          -1.1301   -0.7722    0.9814 N.am    1  UNL1       -0.3333
     16 C          -1.4634   -0.1701   -0.2684 C.3     1  UNL1        0.0376
     17 C          -2.8497    0.4119   -0.2471 C.ar    1  UNL1        0.0048
     18 C          -3.0765    1.7857   -0.1374 C.ar    1  UNL1       -0.0533
     19 C          -4.3867    2.1841   -0.1290 C.ar    1  UNL1       -0.0473
     20 C          -5.4734    1.3519   -0.2186 C.ar    1  UNL1        0.0206
     21 BR         -7.2727    1.9714   -0.2014 Br      1  UNL1       -0.0502
     22 C          -5.1610    0.0126   -0.3238 C.ar    1  UNL1       -0.0122
     23 C          -3.8872   -0.5118   -0.3433 C.ar    1  UNL1        0.1291
     24 F          -3.6628   -1.8339   -0.4492 F       1  UNL1       -0.2051
     25 H           5.6318    3.1414    0.5759 H       1  UNL1        0.2952
     26 H           2.0589    2.7536    0.7557 H       1  UNL1        0.0815
     27 H           2.6274    1.9898   -0.7691 H       1  UNL1        0.0815
     28 H           3.9293   -0.0465   -0.9765 H       1  UNL1        0.0683
     29 H           2.8620   -4.0937   -1.1289 H       1  UNL1        0.0646
     30 H           0.8979   -3.7519    0.2424 H       1  UNL1        0.0626
     31 H          -1.8395   -0.7542    1.7416 H       1  UNL1        0.1469
     32 H          -1.4028   -0.8593   -1.1240 H       1  UNL1        0.0512
     33 H          -0.7611    0.6724   -0.4947 H       1  UNL1        0.0512
     34 H          -2.2325    2.4583   -0.0651 H       1  UNL1        0.0622
     35 H          -4.5483    3.2520   -0.0435 H       1  UNL1        0.0629
     36 H          -5.9843   -0.7086   -0.3988 H       1  UNL1        0.0657
@<TRIPOS>BOND
     1     1     2    1
     2     2     3    2
     3     2     4    1
     4     4     5    1
     5     5     6    1
     6     6     7   ar
     7     7     8   ar
     8     8     9    1
     9     8    10   ar
    10    10    11   ar
    11    11    12   ar
    12    12    13    1
    13    13    14    2
    14    13    15    1
    15    15    16    1
    16    16    17    1
    17    17    18   ar
    18    18    19   ar
    19    19    20   ar
    20    20    21    1
    21    20    22   ar
    22    22    23   ar
    23    23    24    1
    24    12     6   ar
    25    23    17   ar
    26     1    25    1
    27     4    26    1
    28     4    27    1
    29     7    28    1
    30    10    29    1
    31    11    30    1
    32    15    31    1
    33    16    32    1
    34    16    33    1
    35    18    34    1
    36    19    35    1
    37    22    36    1
