
     RDKit          3D

 36 37  0  0  0  0  0  0  0  0999 V2000
    4.6260    3.0556    0.5879 O   0  0  0  0  0  0  0  0  0  0  0  0
    3.9504    1.8445    0.8378 C   0  0  0  0  0  0  0  0  0  0  0  0
    4.6963    1.0242    1.4308 O   0  0  0  0  0  0  0  0  0  0  0  0
    2.5541    1.8571    0.3413 C   0  0  0  0  0  0  0  0  0  0  0  0
    1.8417    0.6763    0.5599 O   0  0  0  0  0  0  0  0  0  0  0  0
    2.1542   -0.5625    0.0898 C   0  0  0  0  0  0  0  0  0  0  0  0
    3.2585   -0.8228   -0.6964 C   0  0  0  0  0  0  0  0  0  0  0  0
    3.5338   -2.1161   -1.1534 C   0  0  0  0  0  0  0  0  0  0  0  0
    4.5980   -2.4030   -1.9181 F   0  0  0  0  0  0  0  0  0  0  0  0
    2.6364   -3.0829   -0.7649 C   0  0  0  0  0  0  0  0  0  0  0  0
    1.5020   -2.9006    0.0244 C   0  0  0  0  0  0  0  0  0  0  0  0
    1.2715   -1.5880    0.4560 C   0  0  0  0  0  0  0  0  0  0  0  0
    0.0882   -1.3960    1.2826 C   0  0  0  0  0  0  0  0  0  0  0  0
    0.4138   -2.0688    2.7311 S   0  0  0  0  0  0  0  0  0  0  0  0
   -1.1301   -0.7722    0.9814 N   0  0  0  0  0  0  0  0  0  0  0  0
   -1.4634   -0.1701   -0.2684 C   0  0  0  0  0  0  0  0  0  0  0  0
   -2.8497    0.4119   -0.2471 C   0  0  0  0  0  0  0  0  0  0  0  0
   -3.0765    1.7857   -0.1374 C   0  0  0  0  0  0  0  0  0  0  0  0
   -4.3867    2.1841   -0.1290 C   0  0  0  0  0  0  0  0  0  0  0  0
   -5.4734    1.3519   -0.2186 C   0  0  0  0  0  0  0  0  0  0  0  0
   -7.2727    1.9714   -0.2014 Br  0  0  0  0  0  0  0  0  0  0  0  0
   -5.1610    0.0126   -0.3238 C   0  0  0  0  0  0  0  0  0  0  0  0
   -3.8872   -0.5118   -0.3433 C   0  0  0  0  0  0  0  0  0  0  0  0
   -3.6628   -1.8339   -0.4492 F   0  0  0  0  0  0  0  0  0  0  0  0
    5.6318    3.1414    0.5759 H   0  0  0  0  0  0  0  0  0  0  0  0
    2.0589    2.7536    0.7557 H   0  0  0  0  0  0  0  0  0  0  0  0
    2.6274    1.9898   -0.7691 H   0  0  0  0  0  0  0  0  0  0  0  0
    3.9293   -0.0465   -0.9765 H   0  0  0  0  0  0  0  0  0  0  0  0
    2.8620   -4.0937   -1.1289 H   0  0  0  0  0  0  0  0  0  0  0  0
    0.8979   -3.7519    0.2424 H   0  0  0  0  0  0  0  0  0  0  0  0
   -1.8395   -0.7542    1.7416 H   0  0  0  0  0  0  0  0  0  0  0  0
   -1.4028   -0.8593   -1.1240 H   0  0  0  0  0  0  0  0  0  0  0  0
   -0.7611    0.6724   -0.4947 H   0  0  0  0  0  0  0  0  0  0  0  0
   -2.2325    2.4583   -0.0651 H   0  0  0  0  0  0  0  0  0  0  0  0
   -4.5483    3.2520   -0.0435 H   0  0  0  0  0  0  0  0  0  0  0  0
   -5.9843   -0.7086   -0.3988 H   0  0  0  0  0  0  0  0  0  0  0  0
  1  2  1  0
  2  3  2  0
  2  4  1  0
  4  5  1  0
  5  6  1  0
  6  7  2  0
  7  8  1  0
  8  9  1  0
  8 10  2  0
 10 11  1  0
 11 12  2  0
 12 13  1  0
 13 14  2  0
 13 15  1  0
 15 16  1  0
 16 17  1  0
 17 18  2  0
 18 19  1  0
 19 20  2  0
 20 21  1  0
 20 22  1  0
 22 23  2  0
 23 24  1  0
 12  6  1  0
 23 17  1  0
  1 25  1  0
  4 26  1  0
  4 27  1  0
  7 28  1  0
 10 29  1  0
 11 30  1  0
 15 31  1  0
 16 32  1  0
 16 33  1  0
 18 34  1  0
 19 35  1  0
 22 36  1  0
M  END
$$$$
