
     RDKit          3D

 76 79  0  0  0  0  0  0  0  0999 V2000
    8.8200    1.0443    0.2244 C   0  0  0  0  0  0  0  0  0  0  0  0
    8.0670    0.2322   -0.8274 C   0  0  0  0  0  0  0  0  0  0  0  0
    8.6374   -1.1757   -0.7384 C   0  0  0  0  0  0  0  0  0  0  0  0
    8.3222    0.7601   -2.2022 C   0  0  0  0  0  0  0  0  0  0  0  0
    6.6174    0.2462   -0.5366 C   0  0  0  0  0  0  0  0  0  0  0  0
    6.1085    0.9178    0.5507 C   0  0  0  0  0  0  0  0  0  0  0  0
    4.7265    0.8862    0.7650 C   0  0  0  0  0  0  0  0  0  0  0  0
    3.8791    0.1928   -0.0980 C   0  0  0  0  0  0  0  0  0  0  0  0
    4.3919   -0.4833   -1.1930 C   0  0  0  0  0  0  0  0  0  0  0  0
    5.7557   -0.4304   -1.3725 C   0  0  0  0  0  0  0  0  0  0  0  0
    2.4261    0.3010    0.3473 C   0  0  0  0  0  0  0  0  0  0  0  0
    2.2391    1.6610    0.6830 O   0  0  0  0  0  0  0  0  0  0  0  0
    2.2155   -0.4818    1.6005 C   0  0  0  0  0  0  0  0  0  0  0  0
    0.8404   -0.5033    2.1569 C   0  0  0  0  0  0  0  0  0  0  0  0
   -0.2242   -1.0983    1.2844 C   0  0  0  0  0  0  0  0  0  0  0  0
   -0.5063   -0.4419    0.0603 N   0  0  0  0  0  0  0  0  0  0  0  0
   -1.3689   -1.1836   -0.8210 C   0  0  0  0  0  0  0  0  0  0  0  0
   -2.8086   -0.8657   -0.8160 C   0  0  0  0  0  0  0  0  0  0  0  0
   -3.3287   -0.2658    0.4554 C   0  0  0  0  0  0  0  0  0  0  0  0
   -2.3678    0.7433    1.0566 C   0  0  0  0  0  0  0  0  0  0  0  0
   -1.1101    0.8626    0.2191 C   0  0  0  0  0  0  0  0  0  0  0  0
   -4.7119    0.1981    0.4305 C   0  0  0  0  0  0  0  0  0  0  0  0
   -4.9829    0.7066    1.7400 O   0  0  0  0  0  0  0  0  0  0  0  0
   -5.1668    1.2278   -0.4790 C   0  0  0  0  0  0  0  0  0  0  0  0
   -4.5252    2.0666   -1.3296 C   0  0  0  0  0  0  0  0  0  0  0  0
   -5.1266    2.9974   -2.1323 C   0  0  0  0  0  0  0  0  0  0  0  0
   -6.5024    3.1172   -2.0961 C   0  0  0  0  0  0  0  0  0  0  0  0
   -7.2041    2.2987   -1.2574 C   0  0  0  0  0  0  0  0  0  0  0  0
   -6.5669    1.3758   -0.4662 C   0  0  0  0  0  0  0  0  0  0  0  0
   -5.6073   -0.9872    0.2880 C   0  0  0  0  0  0  0  0  0  0  0  0
   -5.7806   -1.4609   -1.0125 C   0  0  0  0  0  0  0  0  0  0  0  0
   -6.5864   -2.5536   -1.2421 C   0  0  0  0  0  0  0  0  0  0  0  0
   -7.2299   -3.1893   -0.1861 C   0  0  0  0  0  0  0  0  0  0  0  0
   -7.0682   -2.7285    1.1222 C   0  0  0  0  0  0  0  0  0  0  0  0
   -6.2474   -1.6262    1.2976 C   0  0  0  0  0  0  0  0  0  0  0  0
    8.4409    2.0686    0.2660 H   0  0  0  0  0  0  0  0  0  0  0  0
    9.8917    0.9471   -0.0458 H   0  0  0  0  0  0  0  0  0  0  0  0
    8.6743    0.5787    1.2200 H   0  0  0  0  0  0  0  0  0  0  0  0
    9.6301   -1.2201   -1.1925 H   0  0  0  0  0  0  0  0  0  0  0  0
    7.9547   -1.8866   -1.2536 H   0  0  0  0  0  0  0  0  0  0  0  0
    8.7385   -1.4874    0.3349 H   0  0  0  0  0  0  0  0  0  0  0  0
    7.3989    0.6347   -2.8013 H   0  0  0  0  0  0  0  0  0  0  0  0
    9.1112    0.1953   -2.7375 H   0  0  0  0  0  0  0  0  0  0  0  0
    8.5135    1.8516   -2.1527 H   0  0  0  0  0  0  0  0  0  0  0  0
    6.7520    1.4571    1.2248 H   0  0  0  0  0  0  0  0  0  0  0  0
    4.3944    1.4428    1.6466 H   0  0  0  0  0  0  0  0  0  0  0  0
    3.6408   -0.9697   -1.7656 H   0  0  0  0  0  0  0  0  0  0  0  0
    6.1140   -0.9761   -2.2459 H   0  0  0  0  0  0  0  0  0  0  0  0
    1.7370    0.0502   -0.4531 H   0  0  0  0  0  0  0  0  0  0  0  0
    2.0693    1.7951    1.6333 H   0  0  0  0  0  0  0  0  0  0  0  0
    2.8526    0.0376    2.3871 H   0  0  0  0  0  0  0  0  0  0  0  0
    2.6757   -1.4999    1.5444 H   0  0  0  0  0  0  0  0  0  0  0  0
    0.8155   -1.0998    3.1158 H   0  0  0  0  0  0  0  0  0  0  0  0
    0.4959    0.5159    2.4375 H   0  0  0  0  0  0  0  0  0  0  0  0
    0.1553   -2.1415    1.0304 H   0  0  0  0  0  0  0  0  0  0  0  0
   -1.0865   -1.3007    1.9497 H   0  0  0  0  0  0  0  0  0  0  0  0
   -0.9216   -1.0893   -1.8508 H   0  0  0  0  0  0  0  0  0  0  0  0
   -1.1598   -2.2686   -0.5724 H   0  0  0  0  0  0  0  0  0  0  0  0
   -3.1001   -0.3436   -1.7464 H   0  0  0  0  0  0  0  0  0  0  0  0
   -3.3401   -1.8620   -0.9423 H   0  0  0  0  0  0  0  0  0  0  0  0
   -3.3288   -1.1165    1.1946 H   0  0  0  0  0  0  0  0  0  0  0  0
   -2.8156    1.7537    1.1831 H   0  0  0  0  0  0  0  0  0  0  0  0
   -2.0268    0.4811    2.0783 H   0  0  0  0  0  0  0  0  0  0  0  0
   -1.2518    1.2842   -0.7726 H   0  0  0  0  0  0  0  0  0  0  0  0
   -0.3950    1.5068    0.7558 H   0  0  0  0  0  0  0  0  0  0  0  0
   -4.4489    0.2029    2.4141 H   0  0  0  0  0  0  0  0  0  0  0  0
   -3.4678    1.9611   -1.3389 H   0  0  0  0  0  0  0  0  0  0  0  0
   -4.5478    3.6145   -2.7711 H   0  0  0  0  0  0  0  0  0  0  0  0
   -7.0057    3.8491   -2.7207 H   0  0  0  0  0  0  0  0  0  0  0  0
   -8.2806    2.4333   -1.2643 H   0  0  0  0  0  0  0  0  0  0  0  0
   -7.2554    0.7914    0.1539 H   0  0  0  0  0  0  0  0  0  0  0  0
   -5.3630   -1.0827   -1.9231 H   0  0  0  0  0  0  0  0  0  0  0  0
   -6.7825   -2.9974   -2.2210 H   0  0  0  0  0  0  0  0  0  0  0  0
   -7.8666   -4.0463   -0.3193 H   0  0  0  0  0  0  0  0  0  0  0  0
   -7.5575   -3.2028    1.9769 H   0  0  0  0  0  0  0  0  0  0  0  0
   -6.0804   -1.2221    2.2731 H   0  0  0  0  0  0  0  0  0  0  0  0
  1  2  1  0
  2  3  1  0
  2  4  1  0
  2  5  1  0
  5  6  2  0
  6  7  1  0
  7  8  2  0
  8  9  1  0
  9 10  2  0
  8 11  1  0
 11 12  1  0
 11 13  1  0
 13 14  1  0
 14 15  1  0
 15 16  1  0
 16 17  1  0
 17 18  1  0
 18 19  1  0
 19 20  1  0
 20 21  1  0
 19 22  1  0
 22 23  1  0
 22 24  1  0
 24 25  2  0
 25 26  1  0
 26 27  2  0
 27 28  1  0
 28 29  2  0
 22 30  1  0
 30 31  2  0
 31 32  1  0
 32 33  2  0
 33 34  1  0
 34 35  2  0
 10  5  1  0
 21 16  1  0
 29 24  1  0
 35 30  1  0
  1 36  1  0
  1 37  1  0
  1 38  1  0
  3 39  1  0
  3 40  1  0
  3 41  1  0
  4 42  1  0
  4 43  1  0
  4 44  1  0
  6 45  1  0
  7 46  1  0
  9 47  1  0
 10 48  1  0
 11 49  1  0
 12 50  1  0
 13 51  1  0
 13 52  1  0
 14 53  1  0
 14 54  1  0
 15 55  1  0
 15 56  1  0
 17 57  1  0
 17 58  1  0
 18 59  1  0
 18 60  1  0
 19 61  1  0
 20 62  1  0
 20 63  1  0
 21 64  1  0
 21 65  1  0
 23 66  1  0
 25 67  1  0
 26 68  1  0
 27 69  1  0
 28 70  1  0
 29 71  1  0
 31 72  1  0
 32 73  1  0
 33 74  1  0
 34 75  1  0
 35 76  1  0
M  END
$$$$
