
     RDKit          3D

 41 43  0  0  0  0  0  0  0  0999 V2000
   -0.9293    1.8653    1.7104 C   0  0  0  0  0  0  0  0  0  0  0  0
   -0.1062    0.9056    0.9308 C   0  0  0  0  0  0  0  0  0  0  0  0
    1.2695    0.9767    0.8956 C   0  0  0  0  0  0  0  0  0  0  0  0
    2.0497    0.0880    0.1725 C   0  0  0  0  0  0  0  0  0  0  0  0
    3.5036    0.2021    0.1649 C   0  0  0  0  0  0  0  0  0  0  0  0
    4.0625    1.1135    0.8184 O   0  0  0  0  0  0  0  0  0  0  0  0
    4.3007   -0.7011   -0.5702 N   0  0  0  0  0  0  0  0  0  0  0  0
    5.7417   -0.6375   -0.6173 C   0  0  0  0  0  0  0  0  0  0  0  0
    6.1800    0.6848   -1.1955 C   0  0  0  0  0  0  0  0  0  0  0  0
    7.5868    0.7372   -1.2387 O   0  0  0  0  0  0  0  0  0  0  0  0
    1.3931   -0.8641   -0.5055 N   0  0  0  0  0  0  0  0  0  0  0  0
    0.0556   -0.9622   -0.4933 C   0  0  0  0  0  0  0  0  0  0  0  0
   -0.7477   -0.0877    0.2206 C   0  0  0  0  0  0  0  0  0  0  0  0
   -2.1811   -0.2639    0.1800 C   0  0  0  0  0  0  0  0  0  0  0  0
   -2.9959    0.3366   -0.7576 C   0  0  0  0  0  0  0  0  0  0  0  0
   -4.3643    0.1635   -0.7901 C   0  0  0  0  0  0  0  0  0  0  0  0
   -5.2078    0.8382   -1.8299 C   0  0  0  0  0  0  0  0  0  0  0  0
   -5.8162    1.9673   -1.3137 F   0  0  0  0  0  0  0  0  0  0  0  0
   -4.5026    1.0895   -2.9728 F   0  0  0  0  0  0  0  0  0  0  0  0
   -6.2411   -0.0640   -2.1058 F   0  0  0  0  0  0  0  0  0  0  0  0
   -4.9273   -0.6531    0.1695 C   0  0  0  0  0  0  0  0  0  0  0  0
   -4.1200   -1.2665    1.1225 C   0  0  0  0  0  0  0  0  0  0  0  0
   -4.3858   -2.0927    2.1507 N   0  0  0  0  0  0  0  0  0  0  0  0
   -3.2654   -2.4173    2.7859 N   0  0  0  0  0  0  0  0  0  0  0  0
   -2.2153   -1.8040    2.1837 C   0  0  0  0  0  0  0  0  0  0  0  0
   -2.7522   -1.0801    1.1376 C   0  0  0  0  0  0  0  0  0  0  0  0
   -1.0802    2.8202    1.1821 H   0  0  0  0  0  0  0  0  0  0  0  0
   -0.4185    2.1324    2.6761 H   0  0  0  0  0  0  0  0  0  0  0  0
   -1.8982    1.4036    2.0276 H   0  0  0  0  0  0  0  0  0  0  0  0
    1.7581    1.7553    1.4532 H   0  0  0  0  0  0  0  0  0  0  0  0
    3.8147   -1.4486   -1.1028 H   0  0  0  0  0  0  0  0  0  0  0  0
    6.1872   -1.4850   -1.1567 H   0  0  0  0  0  0  0  0  0  0  0  0
    6.1236   -0.6469    0.4457 H   0  0  0  0  0  0  0  0  0  0  0  0
    5.8737    1.5166   -0.5646 H   0  0  0  0  0  0  0  0  0  0  0  0
    5.8025    0.7878   -2.2462 H   0  0  0  0  0  0  0  0  0  0  0  0
    7.9586    0.9337   -0.3424 H   0  0  0  0  0  0  0  0  0  0  0  0
   -0.4244   -1.7605   -1.0664 H   0  0  0  0  0  0  0  0  0  0  0  0
   -2.5472    0.9746   -1.5056 H   0  0  0  0  0  0  0  0  0  0  0  0
   -6.0007   -0.7960    0.1534 H   0  0  0  0  0  0  0  0  0  0  0  0
   -5.3684   -2.4089    2.3780 H   0  0  0  0  0  0  0  0  0  0  0  0
   -1.1658   -1.8525    2.4453 H   0  0  0  0  0  0  0  0  0  0  0  0
  1  2  1  0
  2  3  2  0
  3  4  1  0
  4  5  1  0
  5  6  2  0
  5  7  1  0
  7  8  1  0
  8  9  1  0
  9 10  1  0
  4 11  2  0
 11 12  1  0
 12 13  2  0
 13 14  1  0
 14 15  2  0
 15 16  1  0
 16 17  1  0
 17 18  1  0
 17 19  1  0
 17 20  1  0
 16 21  2  0
 21 22  1  0
 22 23  1  0
 23 24  1  0
 24 25  2  0
 25 26  1  0
 13  2  1  0
 26 14  1  0
 26 22  2  0
  1 27  1  0
  1 28  1  0
  1 29  1  0
  3 30  1  0
  7 31  1  0
  8 32  1  0
  8 33  1  0
  9 34  1  0
  9 35  1  0
 10 36  1  0
 12 37  1  0
 15 38  1  0
 21 39  1  0
 23 40  1  0
 25 41  1  0
M  END
$$$$
