@<TRIPOS>MOLECULE
*****
 41 43 0 0 0
SMALL
GASTEIGER

@<TRIPOS>ATOM
      1 C1         -0.9293    1.8653    1.7104 C.3     1  <1>        -0.0390
      2 C2         -0.1062    0.9056    0.9308 C.ar    1  <1>        -0.0391
      3 C3          1.2695    0.9767    0.8956 C.ar    1  <1>        -0.0277
      4 C4          2.0497    0.0880    0.1725 C.ar    1  <1>         0.1256
      5 C5          3.5036    0.2021    0.1649 C.2     1  <1>         0.2625
      6 O1          4.0625    1.1135    0.8184 O.2     1  <1>        -0.2685
      7 N1          4.3007   -0.7011   -0.5702 N.am    1  <1>        -0.3079
      8 C6          5.7417   -0.6375   -0.6173 C.3     1  <1>         0.0351
      9 C7          6.1800    0.6848   -1.1955 C.3     1  <1>         0.0597
     10 O2          7.5868    0.7372   -1.2387 O.3     1  <1>        -0.3935
     11 N2          1.3931   -0.8641   -0.5055 N.ar    1  <1>        -0.2497
     12 C8          0.0556   -0.9622   -0.4933 C.ar    1  <1>         0.0364
     13 C9         -0.7477   -0.0877    0.2206 C.ar    1  <1>         0.0039
     14 C10        -2.1811   -0.2639    0.1800 C.ar    1  <1>        -0.0050
     15 C11        -2.9959    0.3366   -0.7576 C.ar    1  <1>        -0.0416
     16 C12        -4.3643    0.1635   -0.7901 C.ar    1  <1>         0.0574
     17 C13        -5.2078    0.8382   -1.8299 C.3     1  <1>         0.4175
     18 F1         -5.8162    1.9673   -1.3137 F       1  <1>        -0.1659
     19 F2         -4.5026    1.0895   -2.9728 F       1  <1>        -0.1659
     20 F3         -6.2411   -0.0640   -2.1058 F       1  <1>        -0.1659
     21 C14        -4.9273   -0.6531    0.1695 C.ar    1  <1>        -0.0246
     22 C15        -4.1200   -1.2665    1.1225 C.ar    1  <1>         0.0668
     23 N3         -4.3858   -2.0927    2.1507 N.ar    1  <1>        -0.2769
     24 N4         -3.2654   -2.4173    2.7859 N.ar    1  <1>        -0.1812
     25 C16        -2.2153   -1.8040    2.1837 C.ar    1  <1>         0.0575
     26 C17        -2.7522   -1.0801    1.1376 C.ar    1  <1>         0.0272
     27 H1         -1.0802    2.8202    1.1821 H       1  <1>         0.0278
     28 H2         -0.4185    2.1324    2.6761 H       1  <1>         0.0278
     29 H3         -1.8982    1.4036    2.0276 H       1  <1>         0.0278
     30 H4          1.7581    1.7553    1.4532 H       1  <1>         0.0643
     31 H5          3.8147   -1.4486   -1.1028 H       1  <1>         0.1491
     32 H6          6.1872   -1.4850   -1.1567 H       1  <1>         0.0485
     33 H7          6.1236   -0.6469    0.4457 H       1  <1>         0.0485
     34 H8          5.8737    1.5166   -0.5646 H       1  <1>         0.0573
     35 H9          5.8025    0.7878   -2.2462 H       1  <1>         0.0573
     36 H10         7.9586    0.9337   -0.3424 H       1  <1>         0.2095
     37 H11        -0.4244   -1.7605   -1.0664 H       1  <1>         0.0836
     38 H12        -2.5472    0.9746   -1.5056 H       1  <1>         0.0629
     39 H13        -6.0007   -0.7960    0.1534 H       1  <1>         0.0644
     40 H14        -5.3684   -2.4089    2.3780 H       1  <1>         0.1889
     41 H15        -1.1658   -1.8525    2.4453 H       1  <1>         0.0854
@<TRIPOS>BOND
     1     1     2    1
     2     2     3   ar
     3     3     4   ar
     4     4     5    1
     5     5     6    2
     6     5     7   am
     7     7     8    1
     8     8     9    1
     9     9    10    1
    10     4    11   ar
    11    11    12   ar
    12    12    13   ar
    13    13    14    1
    14    14    15   ar
    15    15    16   ar
    16    16    17    1
    17    17    18    1
    18    17    19    1
    19    17    20    1
    20    16    21   ar
    21    21    22   ar
    22    22    23   ar
    23    23    24   ar
    24    24    25   ar
    25    25    26   ar
    26    13     2   ar
    27    26    14   ar
    28    26    22   ar
    29     1    27    1
    30     1    28    1
    31     1    29    1
    32     3    30    1
    33     7    31    1
    34     8    32    1
    35     8    33    1
    36     9    34    1
    37     9    35    1
    38    10    36    1
    39    12    37    1
    40    15    38    1
    41    21    39    1
    42    23    40    1
    43    25    41    1
