@<TRIPOS>MOLECULE
*****
 55 59 0 0 0
SMALL
GASTEIGER

@<TRIPOS>ATOM
      1 C           7.7866   -0.9689    1.4689 C.3     1  UNL1       -0.0377
      2 C           6.5111   -0.2478    1.2197 C.ar    1  UNL1       -0.0254
      3 C           6.2091    1.0623    1.5198 C.ar    1  UNL1        0.0057
      4 N           4.9438    1.3138    1.1302 N.ar    1  UNL1       -0.3589
      5 C           4.3925    0.2203    0.5823 C.ar    1  UNL1        0.0682
      6 C           3.1373    0.0087    0.0525 C.ar    1  UNL1        0.0566
      7 N           2.2019    1.0616    0.0479 N.pl3   1  UNL1       -0.2971
      8 C           0.8717    0.9277   -0.4760 C.ar    1  UNL1        0.1395
      9 N          -0.1066    0.4079    0.2803 N.ar    1  UNL1       -0.2165
     10 C          -1.3914    0.2621   -0.1466 C.ar    1  UNL1        0.1231
     11 N          -2.3657   -0.3119    0.6817 N.pl3   1  UNL1       -0.3246
     12 C          -3.7545   -0.4829    0.4288 C.3     1  UNL1        0.0371
     13 C          -4.4929    0.8405    0.4607 C.3     1  UNL1       -0.0331
     14 C          -5.8990    0.6162   -0.0607 C.3     1  UNL1       -0.0513
     15 C          -6.5588   -0.5928    0.5344 C.3     1  UNL1       -0.0515
     16 C          -5.8082   -1.0306    1.7719 C.3     1  UNL1       -0.0360
     17 C          -4.4057   -1.4306    1.4151 C.3     1  UNL1        0.0234
     18 N          -3.5996   -1.6224    2.6090 N.3     1  UNL1       -0.3257
     19 C          -1.7314    0.6607   -1.4169 C.ar    1  UNL1        0.0044
     20 C          -0.7503    1.2099   -2.2484 C.ar    1  UNL1        0.0844
     21 N          -1.0766    1.6064   -3.4969 N.ar    1  UNL1       -0.2369
     22 C          -0.1360    2.1358   -4.2972 C.ar    1  UNL1        0.0966
     23 N           1.1139    2.2536   -3.8189 N.ar    1  UNL1       -0.3128
     24 C           1.4775    1.8698   -2.5798 C.ar    1  UNL1        0.2624
     25 O           2.6465    2.0057   -2.1994 O.2     1  UNL1       -0.2670
     26 C           0.5365    1.3288   -1.7499 C.ar    1  UNL1        0.1047
     27 C           2.8717   -1.2495   -0.4402 C.ar    1  UNL1       -0.0385
     28 C           3.8336   -2.2356   -0.3944 C.ar    1  UNL1       -0.0593
     29 C           5.0986   -2.0270    0.1382 C.ar    1  UNL1       -0.0522
     30 C           5.3547   -0.7643    0.6289 C.ar    1  UNL1        0.0044
     31 H           7.5238   -1.9984    1.8172 H       1  UNL1        0.0278
     32 H           8.4717   -0.9658    0.6240 H       1  UNL1        0.0278
     33 H           8.3150   -0.4901    2.3283 H       1  UNL1        0.0278
     34 H           6.9014    1.7631    1.9972 H       1  UNL1        0.0810
     35 H           4.5123    2.2666    1.2693 H       1  UNL1        0.1654
     36 H           2.4762    1.9836    0.4387 H       1  UNL1        0.1536
     37 H          -2.0277   -0.6686    1.6287 H       1  UNL1        0.1478
     38 H          -3.9724   -0.9156   -0.5739 H       1  UNL1        0.0513
     39 H          -4.6149    1.1776    1.5235 H       1  UNL1        0.0284
     40 H          -4.0106    1.5832   -0.1579 H       1  UNL1        0.0284
     41 H          -5.9294    0.5574   -1.1691 H       1  UNL1        0.0266
     42 H          -6.4874    1.5231    0.2739 H       1  UNL1        0.0266
     43 H          -7.6049   -0.3306    0.8579 H       1  UNL1        0.0266
     44 H          -6.6637   -1.4330   -0.1695 H       1  UNL1        0.0266
     45 H          -5.8696   -0.2626    2.5654 H       1  UNL1        0.0281
     46 H          -6.3552   -1.9224    2.1582 H       1  UNL1        0.0281
     47 H          -4.4930   -2.4651    0.9681 H       1  UNL1        0.0476
     48 H          -4.2063   -1.9861    3.3840 H       1  UNL1        0.1185
     49 H          -2.8938   -2.4060    2.4630 H       1  UNL1        0.1185
     50 H          -2.7250    0.5625   -1.8159 H       1  UNL1        0.0673
     51 H          -0.3860    2.4643   -5.3202 H       1  UNL1        0.1028
     52 H           1.8317    2.6741   -4.4715 H       1  UNL1        0.1698
     53 H           1.8996   -1.4565   -0.8621 H       1  UNL1        0.0637
     54 H           3.6018   -3.2377   -0.7926 H       1  UNL1        0.0618
     55 H           5.7960   -2.8445    0.1398 H       1  UNL1        0.0624
@<TRIPOS>BOND
     1     1     2    1
     2     2     3   ar
     3     3     4   ar
     4     4     5   ar
     5     5     6   ar
     6     6     7    1
     7     7     8    1
     8     8     9   ar
     9     9    10   ar
    10    10    11    1
    11    11    12    1
    12    12    13    1
    13    13    14    1
    14    14    15    1
    15    15    16    1
    16    16    17    1
    17    17    18    1
    18    10    19   ar
    19    19    20   ar
    20    20    21   ar
    21    21    22   ar
    22    22    23   ar
    23    23    24   ar
    24    24    25    2
    25    24    26   ar
    26     6    27   ar
    27    27    28   ar
    28    28    29   ar
    29    29    30   ar
    30    30     2   ar
    31    30     5   ar
    32    26     8   ar
    33    17    12    1
    34    26    20   ar
    35     1    31    1
    36     1    32    1
    37     1    33    1
    38     3    34    1
    39     4    35    1
    40     7    36    1
    41    11    37    1
    42    12    38    1
    43    13    39    1
    44    13    40    1
    45    14    41    1
    46    14    42    1
    47    15    43    1
    48    15    44    1
    49    16    45    1
    50    16    46    1
    51    17    47    1
    52    18    48    1
    53    18    49    1
    54    19    50    1
    55    22    51    1
    56    23    52    1
    57    27    53    1
    58    28    54    1
    59    29    55    1
