
     RDKit          3D

 55 59  0  0  0  0  0  0  0  0999 V2000
    7.7866   -0.9689    1.4689 C   0  0  0  0  0  0  0  0  0  0  0  0
    6.5111   -0.2478    1.2197 C   0  0  0  0  0  0  0  0  0  0  0  0
    6.2091    1.0623    1.5198 C   0  0  0  0  0  0  0  0  0  0  0  0
    4.9438    1.3138    1.1302 N   0  0  0  0  0  0  0  0  0  0  0  0
    4.3925    0.2203    0.5823 C   0  0  0  0  0  0  0  0  0  0  0  0
    3.1373    0.0087    0.0525 C   0  0  0  0  0  0  0  0  0  0  0  0
    2.2019    1.0616    0.0479 N   0  0  0  0  0  0  0  0  0  0  0  0
    0.8717    0.9277   -0.4760 C   0  0  0  0  0  0  0  0  0  0  0  0
   -0.1066    0.4079    0.2803 N   0  0  0  0  0  0  0  0  0  0  0  0
   -1.3914    0.2621   -0.1466 C   0  0  0  0  0  0  0  0  0  0  0  0
   -2.3657   -0.3119    0.6817 N   0  0  0  0  0  0  0  0  0  0  0  0
   -3.7545   -0.4829    0.4288 C   0  0  2  0  0  0  0  0  0  0  0  0
   -4.4929    0.8405    0.4607 C   0  0  0  0  0  0  0  0  0  0  0  0
   -5.8990    0.6162   -0.0607 C   0  0  0  0  0  0  0  0  0  0  0  0
   -6.5588   -0.5928    0.5344 C   0  0  0  0  0  0  0  0  0  0  0  0
   -5.8082   -1.0306    1.7719 C   0  0  0  0  0  0  0  0  0  0  0  0
   -4.4057   -1.4306    1.4151 C   0  0  2  0  0  0  0  0  0  0  0  0
   -3.5996   -1.6224    2.6090 N   0  0  0  0  0  0  0  0  0  0  0  0
   -1.7314    0.6607   -1.4169 C   0  0  0  0  0  0  0  0  0  0  0  0
   -0.7503    1.2099   -2.2484 C   0  0  0  0  0  0  0  0  0  0  0  0
   -1.0766    1.6064   -3.4969 N   0  0  0  0  0  0  0  0  0  0  0  0
   -0.1360    2.1358   -4.2972 C   0  0  0  0  0  0  0  0  0  0  0  0
    1.1139    2.2536   -3.8189 N   0  0  0  0  0  0  0  0  0  0  0  0
    1.4775    1.8698   -2.5798 C   0  0  0  0  0  0  0  0  0  0  0  0
    2.6465    2.0057   -2.1994 O   0  0  0  0  0  0  0  0  0  0  0  0
    0.5365    1.3288   -1.7499 C   0  0  0  0  0  0  0  0  0  0  0  0
    2.8717   -1.2495   -0.4402 C   0  0  0  0  0  0  0  0  0  0  0  0
    3.8336   -2.2356   -0.3944 C   0  0  0  0  0  0  0  0  0  0  0  0
    5.0986   -2.0270    0.1382 C   0  0  0  0  0  0  0  0  0  0  0  0
    5.3547   -0.7643    0.6289 C   0  0  0  0  0  0  0  0  0  0  0  0
    7.5238   -1.9984    1.8172 H   0  0  0  0  0  0  0  0  0  0  0  0
    8.4717   -0.9658    0.6240 H   0  0  0  0  0  0  0  0  0  0  0  0
    8.3150   -0.4901    2.3283 H   0  0  0  0  0  0  0  0  0  0  0  0
    6.9014    1.7631    1.9972 H   0  0  0  0  0  0  0  0  0  0  0  0
    4.5123    2.2666    1.2693 H   0  0  0  0  0  0  0  0  0  0  0  0
    2.4762    1.9836    0.4387 H   0  0  0  0  0  0  0  0  0  0  0  0
   -2.0277   -0.6686    1.6287 H   0  0  0  0  0  0  0  0  0  0  0  0
   -3.9724   -0.9156   -0.5739 H   0  0  0  0  0  0  0  0  0  0  0  0
   -4.6149    1.1776    1.5235 H   0  0  0  0  0  0  0  0  0  0  0  0
   -4.0106    1.5832   -0.1579 H   0  0  0  0  0  0  0  0  0  0  0  0
   -5.9294    0.5574   -1.1691 H   0  0  0  0  0  0  0  0  0  0  0  0
   -6.4874    1.5231    0.2739 H   0  0  0  0  0  0  0  0  0  0  0  0
   -7.6049   -0.3306    0.8579 H   0  0  0  0  0  0  0  0  0  0  0  0
   -6.6637   -1.4330   -0.1695 H   0  0  0  0  0  0  0  0  0  0  0  0
   -5.8696   -0.2626    2.5654 H   0  0  0  0  0  0  0  0  0  0  0  0
   -6.3552   -1.9224    2.1582 H   0  0  0  0  0  0  0  0  0  0  0  0
   -4.4930   -2.4651    0.9681 H   0  0  0  0  0  0  0  0  0  0  0  0
   -4.2063   -1.9861    3.3840 H   0  0  0  0  0  0  0  0  0  0  0  0
   -2.8938   -2.4060    2.4630 H   0  0  0  0  0  0  0  0  0  0  0  0
   -2.7250    0.5625   -1.8159 H   0  0  0  0  0  0  0  0  0  0  0  0
   -0.3860    2.4643   -5.3202 H   0  0  0  0  0  0  0  0  0  0  0  0
    1.8317    2.6741   -4.4715 H   0  0  0  0  0  0  0  0  0  0  0  0
    1.8996   -1.4565   -0.8621 H   0  0  0  0  0  0  0  0  0  0  0  0
    3.6018   -3.2377   -0.7926 H   0  0  0  0  0  0  0  0  0  0  0  0
    5.7960   -2.8445    0.1398 H   0  0  0  0  0  0  0  0  0  0  0  0
  1  2  1  0
  2  3  2  0
  3  4  1  0
  4  5  1  0
  5  6  2  0
  6  7  1  0
  7  8  1  0
  8  9  2  0
  9 10  1  0
 10 11  1  0
 11 12  1  0
 12 13  1  0
 13 14  1  0
 14 15  1  0
 15 16  1  0
 16 17  1  0
 17 18  1  0
 10 19  2  0
 19 20  1  0
 20 21  1  0
 21 22  2  0
 22 23  1  0
 23 24  1  0
 24 25  2  0
 24 26  1  0
  6 27  1  0
 27 28  2  0
 28 29  1  0
 29 30  2  0
 30  2  1  0
 30  5  1  0
 26  8  1  0
 17 12  1  0
 26 20  2  0
  1 31  1  0
  1 32  1  0
  1 33  1  0
  3 34  1  0
  4 35  1  0
  7 36  1  0
 11 37  1  0
 12 38  1  6
 13 39  1  0
 13 40  1  0
 14 41  1  0
 14 42  1  0
 15 43  1  0
 15 44  1  0
 16 45  1  0
 16 46  1  0
 17 47  1  6
 18 48  1  0
 18 49  1  0
 19 50  1  0
 22 51  1  0
 23 52  1  0
 27 53  1  0
 28 54  1  0
 29 55  1  0
M  END
$$$$
