@<TRIPOS>MOLECULE
*****
 44 43 0 0 0
SMALL
GASTEIGER

@<TRIPOS>ATOM
      1 C          -6.4996   -1.2146   -0.3986 C.3     1  UNL1       -0.0653
      2 C          -5.2654   -0.3079   -0.3453 C.3     1  UNL1       -0.0559
      3 C          -4.2860   -0.7686    0.6763 C.3     1  UNL1       -0.0533
      4 C          -3.0416    0.1126    0.7754 C.3     1  UNL1       -0.0531
      5 C          -2.3492    0.1075   -0.5501 C.3     1  UNL1       -0.0531
      6 C          -1.1170    0.9736   -0.5339 C.3     1  UNL1       -0.0531
      7 C          -0.1483    0.4701    0.4875 C.3     1  UNL1       -0.0531
      8 C           1.0933    1.3371    0.5037 C.3     1  UNL1       -0.0529
      9 C           1.7535    1.3218   -0.8379 C.3     1  UNL1       -0.0483
     10 C           2.1418   -0.0765   -1.2213 C.3     1  UNL1       -0.0126
     11 C           3.1223   -0.6564   -0.2673 C.3     1  UNL1       -0.0332
     12 N           4.3827   -0.0084   -0.1571 N.3     1  UNL1        0.2128
     13 C           5.3000   -0.9207    0.5286 C.3     1  UNL1       -0.0441
     14 C           4.9984    0.2913   -1.4327 C.3     1  UNL1       -0.0441
     15 O           4.3731    1.1312    0.5506 O.co2   1  UNL1       -0.7759
     16 H          -6.1871   -2.2672   -0.3823 H       1  UNL1        0.0230
     17 H          -6.9953   -1.0234   -1.3657 H       1  UNL1        0.0230
     18 H          -7.1892   -0.9299    0.4240 H       1  UNL1        0.0230
     19 H          -4.8391   -0.3462   -1.3884 H       1  UNL1        0.0263
     20 H          -5.5814    0.7278   -0.1066 H       1  UNL1        0.0263
     21 H          -4.0044   -1.8261    0.5092 H       1  UNL1        0.0265
     22 H          -4.7938   -0.7443    1.6641 H       1  UNL1        0.0265
     23 H          -2.3607   -0.4027    1.5143 H       1  UNL1        0.0265
     24 H          -3.2794    1.1144    1.1351 H       1  UNL1        0.0265
     25 H          -3.0116    0.4564   -1.3803 H       1  UNL1        0.0265
     26 H          -2.0927   -0.9585   -0.7722 H       1  UNL1        0.0265
     27 H          -0.6205    0.9448   -1.5403 H       1  UNL1        0.0265
     28 H          -1.3861    2.0377   -0.2940 H       1  UNL1        0.0265
     29 H          -0.6176    0.4697    1.5094 H       1  UNL1        0.0265
     30 H           0.0695   -0.5923    0.2889 H       1  UNL1        0.0265
     31 H           0.8191    2.4020    0.7248 H       1  UNL1        0.0265
     32 H           1.8029    0.9657    1.2635 H       1  UNL1        0.0265
     33 H           2.6920    1.9569   -0.8133 H       1  UNL1        0.0267
     34 H           1.1443    1.7924   -1.6418 H       1  UNL1        0.0267
     35 H           1.2380   -0.7253   -1.3043 H       1  UNL1        0.0317
     36 H           2.5439   -0.0789   -2.2804 H       1  UNL1        0.0317
     37 H           3.2886   -1.7379   -0.5829 H       1  UNL1        0.0813
     38 H           2.6829   -0.7625    0.7469 H       1  UNL1        0.0813
     39 H           4.9236   -0.9500    1.5883 H       1  UNL1        0.0776
     40 H           5.2321   -1.9317    0.1164 H       1  UNL1        0.0776
     41 H           6.3066   -0.4982    0.4365 H       1  UNL1        0.0776
     42 H           4.8921   -0.5230   -2.1799 H       1  UNL1        0.0776
     43 H           6.1104    0.3429   -1.2371 H       1  UNL1        0.0776
     44 H           4.7547    1.2955   -1.8215 H       1  UNL1        0.0776
@<TRIPOS>UNITY_ATOM_ATTR
12 1
charge 1
15 1
charge -1
@<TRIPOS>BOND
     1     1     2    1
     2     2     3    1
     3     3     4    1
     4     4     5    1
     5     5     6    1
     6     6     7    1
     7     7     8    1
     8     8     9    1
     9     9    10    1
    10    10    11    1
    11    11    12    1
    12    12    13    1
    13    12    14    1
    14    12    15    1
    15     1    16    1
    16     1    17    1
    17     1    18    1
    18     2    19    1
    19     2    20    1
    20     3    21    1
    21     3    22    1
    22     4    23    1
    23     4    24    1
    24     5    25    1
    25     5    26    1
    26     6    27    1
    27     6    28    1
    28     7    29    1
    29     7    30    1
    30     8    31    1
    31     8    32    1
    32     9    33    1
    33     9    34    1
    34    10    35    1
    35    10    36    1
    36    11    37    1
    37    11    38    1
    38    13    39    1
    39    13    40    1
    40    13    41    1
    41    14    42    1
    42    14    43    1
    43    14    44    1
