
     RDKit          3D

 52 55  0  0  0  0  0  0  0  0999 V2000
    4.6687   -3.5327    2.4647 N   0  0  0  0  0  0  0  0  0  0  0  0
    4.5730   -2.3092    2.8883 C   0  0  0  0  0  0  0  0  0  0  0  0
    4.5045   -1.8718    4.1866 O   0  0  0  0  0  0  0  0  0  0  0  0
    4.3506   -0.4891    4.2784 C   0  0  0  0  0  0  0  0  0  0  0  0
    4.0714   -0.0338    2.8855 C   0  0  0  0  0  0  0  0  0  0  0  0
    4.5184   -1.1473    2.0738 N   0  0  0  0  0  0  0  0  0  0  0  0
    4.8601   -1.1204    0.6698 C   0  0  0  0  0  0  0  0  0  0  0  0
    3.6443   -0.6768   -0.0655 C   0  0  0  0  0  0  0  0  0  0  0  0
    2.7021   -1.5662   -0.5351 C   0  0  0  0  0  0  0  0  0  0  0  0
    1.5747   -1.1223   -1.2193 C   0  0  0  0  0  0  0  0  0  0  0  0
    1.3468    0.2115   -1.4587 C   0  0  0  0  0  0  0  0  0  0  0  0
    0.1775    0.6982   -2.1717 C   0  0  0  0  0  0  0  0  0  0  0  0
    0.0449    1.9537   -2.3436 O   0  0  0  0  0  0  0  0  0  0  0  0
   -0.8532   -0.0990   -2.7075 N   0  0  0  0  0  0  0  0  0  0  0  0
   -1.9782    0.4175   -3.3974 C   0  0  0  0  0  0  0  0  0  0  0  0
   -2.0396    0.6363   -4.7529 C   0  0  0  0  0  0  0  0  0  0  0  0
   -3.1447    1.1364   -5.3906 C   0  0  0  0  0  0  0  0  0  0  0  0
   -4.2463    1.4355   -4.6488 C   0  0  0  0  0  0  0  0  0  0  0  0
   -5.6637    2.0747   -5.4511 Cl  0  0  0  0  0  0  0  0  0  0  0  0
   -4.2317    1.2303   -3.2671 C   0  0  0  0  0  0  0  0  0  0  0  0
   -3.1049    0.7250   -2.6481 C   0  0  0  0  0  0  0  0  0  0  0  0
   -3.0632    0.5020   -1.2097 C   0  0  0  0  0  0  0  0  0  0  0  0
   -2.0272    0.0394   -0.6458 O   0  0  0  0  0  0  0  0  0  0  0  0
   -4.1988    0.8064   -0.4240 N   0  0  0  0  0  0  0  0  0  0  0  0
   -4.1054    0.5682    0.9872 C   0  0  0  0  0  0  0  0  0  0  0  0
   -3.6493    1.5758    1.8070 C   0  0  0  0  0  0  0  0  0  0  0  0
   -3.5419    1.3949    3.1745 C   0  0  0  0  0  0  0  0  0  0  0  0
   -3.8940    0.1909    3.7367 C   0  0  0  0  0  0  0  0  0  0  0  0
   -3.7922   -0.1289    5.4466 Cl  0  0  0  0  0  0  0  0  0  0  0  0
   -4.3445   -0.7946    2.8980 C   0  0  0  0  0  0  0  0  0  0  0  0
   -4.4439   -0.5989    1.5536 N   0  0  0  0  0  0  0  0  0  0  0  0
    2.2919    1.0961   -0.9870 C   0  0  0  0  0  0  0  0  0  0  0  0
    3.4227    0.6636   -0.3017 C   0  0  0  0  0  0  0  0  0  0  0  0
    4.7164   -3.7979    1.4717 H   0  0  0  0  0  0  0  0  0  0  0  0
    3.4768   -0.1916    4.9103 H   0  0  0  0  0  0  0  0  0  0  0  0
    5.2821   -0.0011    4.6277 H   0  0  0  0  0  0  0  0  0  0  0  0
    2.9957    0.1283    2.6724 H   0  0  0  0  0  0  0  0  0  0  0  0
    4.6861    0.8413    2.5830 H   0  0  0  0  0  0  0  0  0  0  0  0
    5.7242   -0.4569    0.4694 H   0  0  0  0  0  0  0  0  0  0  0  0
    5.1370   -2.1284    0.2995 H   0  0  0  0  0  0  0  0  0  0  0  0
    2.8447   -2.6241   -0.3672 H   0  0  0  0  0  0  0  0  0  0  0  0
    0.8342   -1.8290   -1.5876 H   0  0  0  0  0  0  0  0  0  0  0  0
   -0.7771   -1.1384   -2.5849 H   0  0  0  0  0  0  0  0  0  0  0  0
   -1.1683    0.3986   -5.3319 H   0  0  0  0  0  0  0  0  0  0  0  0
   -3.0961    1.2739   -6.4661 H   0  0  0  0  0  0  0  0  0  0  0  0
   -5.1277    1.4865   -2.7533 H   0  0  0  0  0  0  0  0  0  0  0  0
   -5.0834    1.1860   -0.7981 H   0  0  0  0  0  0  0  0  0  0  0  0
   -3.3624    2.5409    1.3934 H   0  0  0  0  0  0  0  0  0  0  0  0
   -3.1835    2.1865    3.8205 H   0  0  0  0  0  0  0  0  0  0  0  0
   -4.6282   -1.7504    3.3122 H   0  0  0  0  0  0  0  0  0  0  0  0
    2.1356    2.1536   -1.1627 H   0  0  0  0  0  0  0  0  0  0  0  0
    4.1651    1.3871    0.0664 H   0  0  0  0  0  0  0  0  0  0  0  0
  1  2  2  3
  2  3  1  0
  3  4  1  0
  4  5  1  0
  5  6  1  0
  6  7  1  0
  7  8  1  0
  8  9  2  0
  9 10  1  0
 10 11  2  0
 11 12  1  0
 12 13  2  0
 12 14  1  0
 14 15  1  0
 15 16  2  0
 16 17  1  0
 17 18  2  0
 18 19  1  0
 18 20  1  0
 20 21  2  0
 21 22  1  0
 22 23  2  0
 22 24  1  0
 24 25  1  0
 25 26  2  0
 26 27  1  0
 27 28  2  0
 28 29  1  0
 28 30  1  0
 30 31  2  0
 11 32  1  0
 32 33  2  0
  6  2  1  0
 33  8  1  0
 21 15  1  0
 31 25  1  0
  1 34  1  0
  4 35  1  0
  4 36  1  0
  5 37  1  0
  5 38  1  0
  7 39  1  0
  7 40  1  0
  9 41  1  0
 10 42  1  0
 14 43  1  0
 16 44  1  0
 17 45  1  0
 20 46  1  0
 24 47  1  0
 26 48  1  0
 27 49  1  0
 30 50  1  0
 32 51  1  0
 33 52  1  0
M  END
$$$$
