@<TRIPOS>MOLECULE
*****
 52 55 0 0 0
SMALL
GASTEIGER

@<TRIPOS>ATOM
      1 N           4.6687   -3.5327    2.4647 N.2     1  UNL1       -0.2530
      2 C           4.5730   -2.3092    2.8883 C.2     1  UNL1        0.2780
      3 O           4.5045   -1.8718    4.1866 O.2     1  UNL1       -0.4642
      4 C           4.3506   -0.4891    4.2784 C.3     1  UNL1        0.1082
      5 C           4.0714   -0.0338    2.8855 C.3     1  UNL1        0.0509
      6 N           4.5184   -1.1473    2.0738 N.pl3   1  UNL1       -0.2783
      7 C           4.8601   -1.1204    0.6698 C.3     1  UNL1        0.0414
      8 C           3.6443   -0.6768   -0.0655 C.ar    1  UNL1       -0.0300
      9 C           2.7021   -1.5662   -0.5351 C.ar    1  UNL1       -0.0564
     10 C           1.5747   -1.1223   -1.2193 C.ar    1  UNL1       -0.0493
     11 C           1.3468    0.2115   -1.4587 C.ar    1  UNL1        0.0370
     12 C           0.1775    0.6982   -2.1717 C.2     1  UNL1        0.2483
     13 O           0.0449    1.9537   -2.3436 O.2     1  UNL1       -0.2699
     14 N          -0.8532   -0.0990   -2.7075 N.am    1  UNL1       -0.2808
     15 C          -1.9782    0.4175   -3.3974 C.ar    1  UNL1        0.0459
     16 C          -2.0396    0.6363   -4.7529 C.ar    1  UNL1       -0.0384
     17 C          -3.1447    1.1364   -5.3906 C.ar    1  UNL1       -0.0416
     18 C          -4.2463    1.4355   -4.6488 C.ar    1  UNL1        0.0418
     19 CL         -5.6637    2.0747   -5.4511 Cl      1  UNL1       -0.0835
     20 C          -4.2317    1.2303   -3.2671 C.ar    1  UNL1       -0.0295
     21 C          -3.1049    0.7250   -2.6481 C.ar    1  UNL1        0.0596
     22 C          -3.0632    0.5020   -1.2097 C.2     1  UNL1        0.2511
     23 O          -2.0272    0.0394   -0.6458 O.2     1  UNL1       -0.2697
     24 N          -4.1988    0.8064   -0.4240 N.am    1  UNL1       -0.2663
     25 C          -4.1054    0.5682    0.9872 C.ar    1  UNL1        0.1252
     26 C          -3.6493    1.5758    1.8070 C.ar    1  UNL1       -0.0201
     27 C          -3.5419    1.3949    3.1745 C.ar    1  UNL1       -0.0387
     28 C          -3.8940    0.1909    3.7367 C.ar    1  UNL1        0.0592
     29 CL         -3.7922   -0.1289    5.4466 Cl      1  UNL1       -0.0820
     30 C          -4.3445   -0.7946    2.8980 C.ar    1  UNL1        0.0480
     31 N          -4.4439   -0.5989    1.5536 N.ar    1  UNL1       -0.2387
     32 C           2.2919    1.0961   -0.9870 C.ar    1  UNL1       -0.0493
     33 C           3.4227    0.6636   -0.3017 C.ar    1  UNL1       -0.0564
     34 H           4.7164   -3.7979    1.4717 H       1  UNL1        0.1912
     35 H           3.4768   -0.1916    4.9103 H       1  UNL1        0.0713
     36 H           5.2821   -0.0011    4.6277 H       1  UNL1        0.0713
     37 H           2.9957    0.1283    2.6724 H       1  UNL1        0.0499
     38 H           4.6861    0.8413    2.5830 H       1  UNL1        0.0499
     39 H           5.7242   -0.4569    0.4694 H       1  UNL1        0.0514
     40 H           5.1370   -2.1284    0.2995 H       1  UNL1        0.0514
     41 H           2.8447   -2.6241   -0.3672 H       1  UNL1        0.0621
     42 H           0.8342   -1.8290   -1.5876 H       1  UNL1        0.0625
     43 H          -0.7771   -1.1384   -2.5849 H       1  UNL1        0.1552
     44 H          -1.1683    0.3986   -5.3319 H       1  UNL1        0.0637
     45 H          -3.0961    1.2739   -6.4661 H       1  UNL1        0.0633
     46 H          -5.1277    1.4865   -2.7533 H       1  UNL1        0.0640
     47 H          -5.0834    1.1860   -0.7981 H       1  UNL1        0.1566
     48 H          -3.3624    2.5409    1.3934 H       1  UNL1        0.0652
     49 H          -3.1835    2.1865    3.8205 H       1  UNL1        0.0634
     50 H          -4.6282   -1.7504    3.3122 H       1  UNL1        0.0845
     51 H           2.1356    2.1536   -1.1627 H       1  UNL1        0.0625
     52 H           4.1651    1.3871    0.0664 H       1  UNL1        0.0621
@<TRIPOS>BOND
     1     1     2    2
     2     2     3    1
     3     3     4    1
     4     4     5    1
     5     5     6    1
     6     6     7    1
     7     7     8    1
     8     8     9   ar
     9     9    10   ar
    10    10    11   ar
    11    11    12    1
    12    12    13    2
    13    12    14   am
    14    14    15    1
    15    15    16   ar
    16    16    17   ar
    17    17    18   ar
    18    18    19    1
    19    18    20   ar
    20    20    21   ar
    21    21    22    1
    22    22    23    2
    23    22    24   am
    24    24    25    1
    25    25    26   ar
    26    26    27   ar
    27    27    28   ar
    28    28    29    1
    29    28    30   ar
    30    30    31   ar
    31    11    32   ar
    32    32    33   ar
    33     6     2    1
    34    33     8   ar
    35    21    15   ar
    36    31    25   ar
    37     1    34    1
    38     4    35    1
    39     4    36    1
    40     5    37    1
    41     5    38    1
    42     7    39    1
    43     7    40    1
    44     9    41    1
    45    10    42    1
    46    14    43    1
    47    16    44    1
    48    17    45    1
    49    20    46    1
    50    24    47    1
    51    26    48    1
    52    27    49    1
    53    30    50    1
    54    32    51    1
    55    33    52    1
