
     RDKit          3D

 64 68  0  0  0  0  0  0  0  0999 V2000
    6.2324    2.1080    2.6926 C   0  0  0  0  0  0  0  0  0  0  0  0
    6.2818    1.1082    1.5912 C   0  0  0  0  0  0  0  0  0  0  0  0
    5.0903    0.7341    0.9907 C   0  0  0  0  0  0  0  0  0  0  0  0
    5.0519   -0.1776   -0.0625 C   0  0  0  0  0  0  0  0  0  0  0  0
    3.9059   -0.5927   -0.7471 N   0  0  0  0  0  0  0  0  0  0  0  0
    2.5751   -0.1815   -0.5366 C   0  0  0  0  0  0  0  0  0  0  0  0
    2.1759    0.6353    0.4443 N   0  0  0  0  0  0  0  0  0  0  0  0
    0.9217    1.0404    0.6504 C   0  0  0  0  0  0  0  0  0  0  0  0
   -0.0863    0.5859   -0.2224 C   0  0  0  0  0  0  0  0  0  0  0  0
   -1.3780    1.2763   -0.1857 C   0  0  0  0  0  0  0  0  0  0  0  0
   -2.0073    2.0526    0.5732 N   0  0  0  0  0  0  0  0  0  0  0  0
   -3.1006    2.6713    0.3194 C   0  0  0  0  0  0  0  0  0  0  0  0
   -3.8189    3.6217    1.2131 C   0  0  0  0  0  0  0  0  0  0  0  0
   -3.2449    3.8971    2.4354 C   0  0  0  0  0  0  0  0  0  0  0  0
   -3.8510    4.7555    3.3506 C   0  0  0  0  0  0  0  0  0  0  0  0
   -5.0461    5.3083    2.9686 C   0  0  0  0  0  0  0  0  0  0  0  0
   -5.6409    5.0670    1.7865 C   0  0  0  0  0  0  0  0  0  0  0  0
   -5.0153    4.1977    0.8734 C   0  0  0  0  0  0  0  0  0  0  0  0
   -3.6725    2.4589   -0.9745 C   0  0  0  0  0  0  0  0  0  0  0  0
   -2.4961    1.3456   -1.6749 S   0  0  0  0  0  0  0  0  0  0  0  0
    0.2715   -0.2464   -1.2170 C   0  0  0  0  0  0  0  0  0  0  0  0
   -0.6821   -1.0518   -1.9296 N   0  0  0  0  0  0  0  0  0  0  0  0
   -1.8467   -1.5695   -1.2324 C   0  0  2  0  0  0  0  0  0  0  0  0
   -1.4031   -3.0068   -0.7511 C   0  0  0  0  0  0  0  0  0  0  0  0
   -2.6766   -3.7611   -0.7212 C   0  0  2  0  0  0  0  0  0  0  0  0
   -2.4632   -5.2644   -0.8816 C   0  0  0  0  0  0  0  0  0  0  0  0
   -3.7296   -5.8503   -0.8301 O   0  0  0  0  0  0  0  0  0  0  0  0
   -3.3040   -3.3330   -2.0570 C   0  0  1  0  0  0  0  0  0  0  0  0
   -4.6373   -3.6585   -2.1407 O   0  0  0  0  0  0  0  0  0  0  0  0
   -3.0684   -1.8297   -2.0081 C   0  0  1  0  0  0  0  0  0  0  0  0
   -4.1796   -1.3460   -1.2448 O   0  0  0  0  0  0  0  0  0  0  0  0
    1.5863   -0.6115   -1.3632 N   0  0  0  0  0  0  0  0  0  0  0  0
    6.3123   -0.6805   -0.4547 C   0  0  0  0  0  0  0  0  0  0  0  0
    7.4738   -0.3046    0.1463 C   0  0  0  0  0  0  0  0  0  0  0  0
    8.7846   -0.8843   -0.3251 C   0  0  0  0  0  0  0  0  0  0  0  0
    7.4316    0.5678    1.1400 N   0  0  0  0  0  0  0  0  0  0  0  0
    5.2320    2.0859    3.1718 H   0  0  0  0  0  0  0  0  0  0  0  0
    6.9850    1.9247    3.4896 H   0  0  0  0  0  0  0  0  0  0  0  0
    6.3906    3.1524    2.3349 H   0  0  0  0  0  0  0  0  0  0  0  0
    4.1607    1.1419    1.3306 H   0  0  0  0  0  0  0  0  0  0  0  0
    4.0414   -1.3099   -1.5236 H   0  0  0  0  0  0  0  0  0  0  0  0
    0.6068    1.6975    1.4441 H   0  0  0  0  0  0  0  0  0  0  0  0
   -2.3084    3.4491    2.7064 H   0  0  0  0  0  0  0  0  0  0  0  0
   -3.4278    4.9958    4.3048 H   0  0  0  0  0  0  0  0  0  0  0  0
   -5.5198    5.9799    3.6779 H   0  0  0  0  0  0  0  0  0  0  0  0
   -6.5652    5.4958    1.5002 H   0  0  0  0  0  0  0  0  0  0  0  0
   -5.4615    3.9812   -0.0737 H   0  0  0  0  0  0  0  0  0  0  0  0
   -4.5358    2.8471   -1.3919 H   0  0  0  0  0  0  0  0  0  0  0  0
   -0.5555   -1.2659   -2.9326 H   0  0  0  0  0  0  0  0  0  0  0  0
   -1.9974   -1.0613   -0.2501 H   0  0  0  0  0  0  0  0  0  0  0  0
   -0.7755   -3.4155   -1.5889 H   0  0  0  0  0  0  0  0  0  0  0  0
   -0.8715   -2.9434    0.1932 H   0  0  0  0  0  0  0  0  0  0  0  0
   -3.3412   -3.6004    0.1234 H   0  0  0  0  0  0  0  0  0  0  0  0
   -1.8351   -5.6910   -0.0754 H   0  0  0  0  0  0  0  0  0  0  0  0
   -2.0739   -5.4884   -1.9050 H   0  0  0  0  0  0  0  0  0  0  0  0
   -3.7002   -6.8398   -0.7816 H   0  0  0  0  0  0  0  0  0  0  0  0
   -2.7254   -3.7766   -2.8829 H   0  0  0  0  0  0  0  0  0  0  0  0
   -5.0245   -3.0924   -2.8598 H   0  0  0  0  0  0  0  0  0  0  0  0
   -3.0855   -1.4024   -3.0060 H   0  0  0  0  0  0  0  0  0  0  0  0
   -3.9318   -1.5246   -0.3097 H   0  0  0  0  0  0  0  0  0  0  0  0
    6.3250   -1.3862   -1.2696 H   0  0  0  0  0  0  0  0  0  0  0  0
    9.4561   -0.0278   -0.4909 H   0  0  0  0  0  0  0  0  0  0  0  0
    8.5502   -1.4763   -1.2050 H   0  0  0  0  0  0  0  0  0  0  0  0
    9.2415   -1.5309    0.4329 H   0  0  0  0  0  0  0  0  0  0  0  0
  1  2  1  0
  2  3  2  0
  3  4  1  0
  4  5  1  0
  5  6  1  0
  6  7  2  0
  7  8  1  0
  8  9  2  0
  9 10  1  0
 10 11  2  0
 11 12  1  0
 12 13  1  0
 13 14  2  0
 14 15  1  0
 15 16  2  0
 16 17  1  0
 17 18  2  0
 12 19  2  0
 19 20  1  0
  9 21  1  0
 21 22  1  0
 22 23  1  0
 23 24  1  0
 24 25  1  0
 25 26  1  0
 26 27  1  0
 25 28  1  0
 28 29  1  0
 28 30  1  0
 30 31  1  0
 21 32  2  0
  4 33  2  0
 33 34  1  0
 34 35  1  0
 34 36  2  0
 36  2  1  0
 32  6  1  0
 20 10  1  0
 30 23  1  0
 18 13  1  0
  1 37  1  0
  1 38  1  0
  1 39  1  0
  3 40  1  0
  5 41  1  0
  8 42  1  0
 14 43  1  0
 15 44  1  0
 16 45  1  0
 17 46  1  0
 18 47  1  0
 19 48  1  0
 22 49  1  0
 23 50  1  1
 24 51  1  0
 24 52  1  0
 25 53  1  1
 26 54  1  0
 26 55  1  0
 27 56  1  0
 28 57  1  6
 29 58  1  0
 30 59  1  6
 31 60  1  0
 33 61  1  0
 35 62  1  0
 35 63  1  0
 35 64  1  0
M  END
$$$$
