@<TRIPOS>MOLECULE
*****
 64 68 0 0 0
SMALL
GASTEIGER

@<TRIPOS>ATOM
      1 C           6.2324    2.1080    2.6926 C.3     1  UNL1       -0.0223
      2 C           6.2818    1.1082    1.5912 C.ar    1  UNL1        0.0403
      3 C           5.0903    0.7341    0.9907 C.ar    1  UNL1       -0.0194
      4 C           5.0519   -0.1776   -0.0625 C.ar    1  UNL1        0.0370
      5 N           3.9059   -0.5927   -0.7471 N.pl3   1  UNL1       -0.2835
      6 C           2.5751   -0.1815   -0.5366 C.ar    1  UNL1        0.2212
      7 N           2.1759    0.6353    0.4443 N.ar    1  UNL1       -0.2219
      8 C           0.9217    1.0404    0.6504 C.ar    1  UNL1        0.0442
      9 C          -0.0863    0.5859   -0.2224 C.ar    1  UNL1        0.0650
     10 C          -1.3780    1.2763   -0.1857 C.ar    1  UNL1        0.1137
     11 N          -2.0073    2.0526    0.5732 N.ar    1  UNL1       -0.2389
     12 C          -3.1006    2.6713    0.3194 C.ar    1  UNL1        0.0788
     13 C          -3.8189    3.6217    1.2131 C.ar    1  UNL1        0.0009
     14 C          -3.2449    3.8971    2.4354 C.ar    1  UNL1       -0.0525
     15 C          -3.8510    4.7555    3.3506 C.ar    1  UNL1       -0.0611
     16 C          -5.0461    5.3083    2.9686 C.ar    1  UNL1       -0.0617
     17 C          -5.6409    5.0670    1.7865 C.ar    1  UNL1       -0.0611
     18 C          -5.0153    4.1977    0.8734 C.ar    1  UNL1       -0.0525
     19 C          -3.6725    2.4589   -0.9745 C.ar    1  UNL1        0.0037
     20 S          -2.4961    1.3456   -1.6749 S.2     1  UNL1       -0.0749
     21 C           0.2715   -0.2464   -1.2170 C.ar    1  UNL1        0.1339
     22 N          -0.6821   -1.0518   -1.9296 N.pl3   1  UNL1       -0.3230
     23 C          -1.8467   -1.5695   -1.2324 C.3     1  UNL1        0.0507
     24 C          -1.4031   -3.0068   -0.7511 C.3     1  UNL1       -0.0247
     25 C          -2.6766   -3.7611   -0.7212 C.3     1  UNL1        0.0124
     26 C          -2.4632   -5.2644   -0.8816 C.3     1  UNL1        0.0495
     27 O          -3.7296   -5.8503   -0.8301 O.3     1  UNL1       -0.3946
     28 C          -3.3040   -3.3330   -2.0570 C.3     1  UNL1        0.0877
     29 O          -4.6373   -3.6585   -2.1407 O.3     1  UNL1       -0.3888
     30 C          -3.0684   -1.8297   -2.0081 C.3     1  UNL1        0.0996
     31 O          -4.1796   -1.3460   -1.2448 O.3     1  UNL1       -0.3874
     32 N           1.5863   -0.6115   -1.3632 N.ar    1  UNL1       -0.1988
     33 C           6.3123   -0.6805   -0.4547 C.ar    1  UNL1       -0.0194
     34 C           7.4738   -0.3046    0.1463 C.ar    1  UNL1        0.0403
     35 C           8.7846   -0.8843   -0.3251 C.3     1  UNL1       -0.0223
     36 N           7.4316    0.5678    1.1400 N.ar    1  UNL1       -0.2569
     37 H           5.2320    2.0859    3.1718 H       1  UNL1        0.0292
     38 H           6.9850    1.9247    3.4896 H       1  UNL1        0.0292
     39 H           6.3906    3.1524    2.3349 H       1  UNL1        0.0292
     40 H           4.1607    1.1419    1.3306 H       1  UNL1        0.0654
     41 H           4.0414   -1.3099   -1.5236 H       1  UNL1        0.1550
     42 H           0.6068    1.6975    1.4441 H       1  UNL1        0.0839
     43 H          -2.3084    3.4491    2.7064 H       1  UNL1        0.0624
     44 H          -3.4278    4.9958    4.3048 H       1  UNL1        0.0618
     45 H          -5.5198    5.9799    3.6779 H       1  UNL1        0.0618
     46 H          -6.5652    5.4958    1.5002 H       1  UNL1        0.0618
     47 H          -5.4615    3.9812   -0.0737 H       1  UNL1        0.0624
     48 H          -4.5358    2.8471   -1.3919 H       1  UNL1        0.0715
     49 H          -0.5555   -1.2659   -2.9326 H       1  UNL1        0.1479
     50 H          -1.9974   -1.0613   -0.2501 H       1  UNL1        0.0524
     51 H          -0.7755   -3.4155   -1.5889 H       1  UNL1        0.0288
     52 H          -0.8715   -2.9434    0.1932 H       1  UNL1        0.0288
     53 H          -3.3412   -3.6004    0.1234 H       1  UNL1        0.0349
     54 H          -1.8351   -5.6910   -0.0754 H       1  UNL1        0.0561
     55 H          -2.0739   -5.4884   -1.9050 H       1  UNL1        0.0561
     56 H          -3.7002   -6.8398   -0.7816 H       1  UNL1        0.2094
     57 H          -2.7254   -3.7766   -2.8829 H       1  UNL1        0.0623
     58 H          -5.0245   -3.0924   -2.8598 H       1  UNL1        0.2099
     59 H          -3.0855   -1.4024   -3.0060 H       1  UNL1        0.0638
     60 H          -3.9318   -1.5246   -0.3097 H       1  UNL1        0.2100
     61 H           6.3250   -1.3862   -1.2696 H       1  UNL1        0.0654
     62 H           9.4561   -0.0278   -0.4909 H       1  UNL1        0.0292
     63 H           8.5502   -1.4763   -1.2050 H       1  UNL1        0.0292
     64 H           9.2415   -1.5309    0.4329 H       1  UNL1        0.0292
@<TRIPOS>BOND
     1     1     2    1
     2     2     3   ar
     3     3     4   ar
     4     4     5    1
     5     5     6    1
     6     6     7   ar
     7     7     8   ar
     8     8     9   ar
     9     9    10    1
    10    10    11   ar
    11    11    12   ar
    12    12    13    1
    13    13    14   ar
    14    14    15   ar
    15    15    16   ar
    16    16    17   ar
    17    17    18   ar
    18    12    19   ar
    19    19    20   ar
    20     9    21   ar
    21    21    22    1
    22    22    23    1
    23    23    24    1
    24    24    25    1
    25    25    26    1
    26    26    27    1
    27    25    28    1
    28    28    29    1
    29    28    30    1
    30    30    31    1
    31    21    32   ar
    32     4    33   ar
    33    33    34   ar
    34    34    35    1
    35    34    36   ar
    36    36     2   ar
    37    32     6   ar
    38    20    10   ar
    39    30    23    1
    40    18    13   ar
    41     1    37    1
    42     1    38    1
    43     1    39    1
    44     3    40    1
    45     5    41    1
    46     8    42    1
    47    14    43    1
    48    15    44    1
    49    16    45    1
    50    17    46    1
    51    18    47    1
    52    19    48    1
    53    22    49    1
    54    23    50    1
    55    24    51    1
    56    24    52    1
    57    25    53    1
    58    26    54    1
    59    26    55    1
    60    27    56    1
    61    28    57    1
    62    29    58    1
    63    30    59    1
    64    31    60    1
    65    33    61    1
    66    35    62    1
    67    35    63    1
    68    35    64    1
