@<TRIPOS>MOLECULE
*****
 120 127 0 0 0
SMALL
GASTEIGER

@<TRIPOS>ATOM
      1 C          10.9776   -2.0086   -1.6484 C.3     1  UNL1       -0.0437
      2 C          10.2058   -1.8155   -0.3944 C.2     1  UNL1       -0.0739
      3 C          10.6804   -2.1209    0.7891 C.2     1  UNL1       -0.0812
      4 C          10.3668   -1.2769    1.9666 C.3     1  UNL1       -0.0122
      5 C          11.3791   -0.1354    1.9255 C.3     1  UNL1       -0.0055
      6 C          11.0439    0.7957    0.8130 C.ar    1  UNL1        0.0248
      7 N          12.0413    1.6650    0.4788 N.ar    1  UNL1       -0.3259
      8 C          11.8762    2.5609   -0.4970 C.ar    1  UNL1        0.2489
      9 O          12.8269    3.3416   -0.7684 O.2     1  UNL1       -0.2679
     10 C          10.6738    2.5879   -1.1601 C.ar    1  UNL1        0.0031
     11 C           9.6597    1.7344   -0.8505 C.ar    1  UNL1       -0.0498
     12 C           9.8352    0.7959    0.1731 C.ar    1  UNL1       -0.0039
     13 C           8.7325   -0.1497    0.5202 C.3     1  UNL1        0.0710
     14 C           8.8239   -1.2613   -0.5055 C.3     1  UNL1       -0.0059
     15 C           8.9755   -0.6798    1.8992 C.3     1  UNL1       -0.0083
     16 C           8.7940    0.3646    2.9225 C.3     1  UNL1       -0.0460
     17 C           8.3306    1.7058    2.4905 C.3     1  UNL1       -0.0368
     18 C           7.4331    1.7667    1.3027 C.3     1  UNL1        0.0156
     19 N           7.4577    0.5419    0.5273 N.am    1  UNL1       -0.2910
     20 C           6.2895    0.0952   -0.1894 C.2     1  UNL1        0.2175
     21 O           6.4263   -0.9964   -0.7759 O.2     1  UNL1       -0.2755
     22 C           5.0279    0.7996   -0.2814 C.3     1  UNL1        0.0369
     23 C           3.7491    0.1235   -0.0074 C.3     1  UNL1        0.0069
     24 N           3.3527   -0.9801   -0.7227 N.3     1  UNL1       -0.3049
     25 C           3.9369   -2.2571   -0.5645 C.3     1  UNL1       -0.0127
     26 C           2.2922   -0.9153   -1.6571 C.3     1  UNL1       -0.0014
     27 C           0.9157   -0.6671   -1.0790 C.3     1  UNL1       -0.0402
     28 C           0.5163   -1.6789   -0.0719 C.3     1  UNL1       -0.0519
     29 C          -0.8671   -1.3883    0.4540 C.3     1  UNL1       -0.0519
     30 C          -1.9172   -1.4961   -0.6052 C.3     1  UNL1       -0.0402
     31 C          -3.3052   -1.2556   -0.1497 C.3     1  UNL1       -0.0014
     32 N          -3.6795   -0.0123    0.3702 N.3     1  UNL1       -0.3049
     33 C          -3.1678    0.3931    1.6257 C.3     1  UNL1       -0.0127
     34 C          -3.8858    1.0400   -0.5757 C.3     1  UNL1        0.0069
     35 C          -5.0949    0.7806   -1.4112 C.3     1  UNL1        0.0369
     36 C          -6.3051    0.7211   -0.5146 C.2     1  UNL1        0.2175
     37 O          -6.1686    1.1184    0.6634 O.2     1  UNL1       -0.2755
     38 N          -7.5314    0.2319   -1.0181 N.am    1  UNL1       -0.2910
     39 C          -7.5584   -0.2104   -2.3970 C.3     1  UNL1        0.0156
     40 C          -8.9068   -0.6537   -2.8669 C.3     1  UNL1       -0.0368
     41 C          -9.4705   -1.6092   -1.8694 C.3     1  UNL1       -0.0460
     42 C          -9.3859   -1.1619   -0.4586 C.3     1  UNL1       -0.0083
     43 C         -10.7958   -1.1346    0.1343 C.3     1  UNL1       -0.0122
     44 C         -10.7488   -0.4890    1.4715 C.2     1  UNL1       -0.0812
     45 C          -9.6381   -0.1352    2.0511 C.2     1  UNL1       -0.0739
     46 C          -9.4317   -0.1624    3.5305 C.3     1  UNL1       -0.0437
     47 C          -8.4803    0.3315    1.2296 C.3     1  UNL1       -0.0059
     48 C          -8.7243    0.1735   -0.2382 C.3     1  UNL1        0.0710
     49 C          -9.6857    1.2449   -0.6359 C.ar    1  UNL1       -0.0039
     50 C          -9.1698    2.5256   -0.7983 C.ar    1  UNL1       -0.0498
     51 C         -10.0001    3.5611   -1.1693 C.ar    1  UNL1        0.0031
     52 C         -11.3463    3.3611   -1.3866 C.ar    1  UNL1        0.2489
     53 O         -12.1440    4.2709   -1.7254 O.2     1  UNL1       -0.2679
     54 N         -11.8177    2.0994   -1.2194 N.ar    1  UNL1       -0.3259
     55 C         -11.0238    1.0712   -0.8574 C.ar    1  UNL1        0.0248
     56 C         -11.6921   -0.2578   -0.7201 C.3     1  UNL1       -0.0055
     57 H          11.6356   -1.1209   -1.7594 H       1  UNL1        0.0274
     58 H          10.3220   -2.0491   -2.5375 H       1  UNL1        0.0274
     59 H          11.6164   -2.9116   -1.5514 H       1  UNL1        0.0274
     60 H          11.3222   -3.0069    0.8992 H       1  UNL1        0.0575
     61 H          10.4732   -1.8005    2.9226 H       1  UNL1        0.0350
     62 H          11.5624    0.3405    2.8848 H       1  UNL1        0.0333
     63 H          12.3567   -0.6434    1.6614 H       1  UNL1        0.0333
     64 H          12.9605    1.6450    0.9857 H       1  UNL1        0.1686
     65 H          10.5603    3.3236   -1.9498 H       1  UNL1        0.0672
     66 H           8.7251    1.7687   -1.3811 H       1  UNL1        0.0623
     67 H           8.6057   -0.8599   -1.4840 H       1  UNL1        0.0334
     68 H           8.1639   -2.1253   -0.2943 H       1  UNL1        0.0334
     69 H           8.2120   -1.4933    2.0762 H       1  UNL1        0.0331
     70 H           9.6968    0.5305    3.5656 H       1  UNL1        0.0269
     71 H           8.0147   -0.0052    3.6707 H       1  UNL1        0.0269
     72 H           7.8478    2.2481    3.3759 H       1  UNL1        0.0280
     73 H           9.2218    2.3509    2.2917 H       1  UNL1        0.0280
     74 H           6.4190    2.0399    1.6673 H       1  UNL1        0.0465
     75 H           7.7302    2.6058    0.6321 H       1  UNL1        0.0465
     76 H           4.9005    1.2807   -1.3129 H       1  UNL1        0.0371
     77 H           5.0718    1.7314    0.3686 H       1  UNL1        0.0371
     78 H           3.7068   -0.0311    1.1282 H       1  UNL1        0.0431
     79 H           2.9178    0.9151   -0.1141 H       1  UNL1        0.0431
     80 H           4.5439   -2.4405    0.3175 H       1  UNL1        0.0391
     81 H           3.0627   -3.0244   -0.5314 H       1  UNL1        0.0391
     82 H           4.4522   -2.5650   -1.4940 H       1  UNL1        0.0391
     83 H           2.2314   -1.8992   -2.1923 H       1  UNL1        0.0426
     84 H           2.4626   -0.1628   -2.4432 H       1  UNL1        0.0426
     85 H           0.8126    0.3724   -0.6844 H       1  UNL1        0.0278
     86 H           0.2272   -0.7245   -1.9468 H       1  UNL1        0.0278
     87 H           0.5597   -2.6916   -0.5381 H       1  UNL1        0.0266
     88 H           1.2003   -1.6640    0.8241 H       1  UNL1        0.0266
     89 H          -1.1426   -2.1064    1.2760 H       1  UNL1        0.0266
     90 H          -0.8805   -0.3861    0.9476 H       1  UNL1        0.0266
     91 H          -1.8901   -2.5763   -0.9533 H       1  UNL1        0.0278
     92 H          -1.6620   -0.9389   -1.5380 H       1  UNL1        0.0278
     93 H          -3.4818   -2.0184    0.6869 H       1  UNL1        0.0426
     94 H          -4.0086   -1.5983   -0.9420 H       1  UNL1        0.0426
     95 H          -2.4450    1.2257    1.6253 H       1  UNL1        0.0391
     96 H          -2.8468   -0.5036    2.2036 H       1  UNL1        0.0391
     97 H          -4.0290    0.7927    2.2474 H       1  UNL1        0.0391
     98 H          -3.0136    1.2291   -1.2304 H       1  UNL1        0.0431
     99 H          -4.0285    1.9933   -0.0009 H       1  UNL1        0.0431
    100 H          -5.2566    1.5931   -2.1757 H       1  UNL1        0.0371
    101 H          -5.0135   -0.2019   -1.8967 H       1  UNL1        0.0371
    102 H          -7.1124    0.5797   -3.0417 H       1  UNL1        0.0465
    103 H          -6.8839   -1.1097   -2.5075 H       1  UNL1        0.0465
    104 H          -8.7242   -1.2487   -3.8077 H       1  UNL1        0.0280
    105 H          -9.5797    0.1557   -3.1757 H       1  UNL1        0.0280
    106 H          -8.8412   -2.5484   -1.9506 H       1  UNL1        0.0269
    107 H         -10.4812   -1.9405   -2.1902 H       1  UNL1        0.0269
    108 H          -8.8268   -1.8853    0.1983 H       1  UNL1        0.0331
    109 H         -11.1889   -2.1516    0.2187 H       1  UNL1        0.0350
    110 H         -11.6821   -0.3054    1.9847 H       1  UNL1        0.0575
    111 H         -10.0324   -0.9601    4.0026 H       1  UNL1        0.0274
    112 H          -8.3588   -0.2348    3.7745 H       1  UNL1        0.0274
    113 H          -9.8004    0.8043    3.9251 H       1  UNL1        0.0274
    114 H          -8.2465    1.3886    1.4554 H       1  UNL1        0.0334
    115 H          -7.6240   -0.3293    1.5541 H       1  UNL1        0.0334
    116 H          -8.1093    2.6986   -0.6318 H       1  UNL1        0.0623
    117 H          -9.6247    4.5696   -1.3025 H       1  UNL1        0.0672
    118 H         -12.8450    1.9564   -1.3873 H       1  UNL1        0.1686
    119 H         -11.9988   -0.7059   -1.6626 H       1  UNL1        0.0333
    120 H         -12.6143   -0.0640   -0.1227 H       1  UNL1        0.0333
@<TRIPOS>BOND
     1     1     2    1
     2     2     3    2
     3     3     4    1
     4     4     5    1
     5     5     6    1
     6     6     7   ar
     7     7     8   ar
     8     8     9    2
     9     8    10   ar
    10    10    11   ar
    11    11    12   ar
    12    12    13    1
    13    13    14    1
    14    13    15    1
    15    15    16    1
    16    16    17    1
    17    17    18    1
    18    18    19    1
    19    19    20   am
    20    20    21    2
    21    20    22    1
    22    22    23    1
    23    23    24    1
    24    24    25    1
    25    24    26    1
    26    26    27    1
    27    27    28    1
    28    28    29    1
    29    29    30    1
    30    30    31    1
    31    31    32    1
    32    32    33    1
    33    32    34    1
    34    34    35    1
    35    35    36    1
    36    36    37    2
    37    36    38   am
    38    38    39    1
    39    39    40    1
    40    40    41    1
    41    41    42    1
    42    42    43    1
    43    43    44    1
    44    44    45    2
    45    45    46    1
    46    45    47    1
    47    47    48    1
    48    48    49    1
    49    49    50   ar
    50    50    51   ar
    51    51    52   ar
    52    52    53    2
    53    52    54   ar
    54    54    55   ar
    55    55    56    1
    56    14     2    1
    57    48    38    1
    58    55    49   ar
    59    15     4    1
    60    48    42    1
    61    12     6   ar
    62    13    19    1
    63    56    43    1
    64     1    57    1
    65     1    58    1
    66     1    59    1
    67     3    60    1
    68     4    61    1
    69     5    62    1
    70     5    63    1
    71     7    64    1
    72    10    65    1
    73    11    66    1
    74    14    67    1
    75    14    68    1
    76    15    69    1
    77    16    70    1
    78    16    71    1
    79    17    72    1
    80    17    73    1
    81    18    74    1
    82    18    75    1
    83    22    76    1
    84    22    77    1
    85    23    78    1
    86    23    79    1
    87    25    80    1
    88    25    81    1
    89    25    82    1
    90    26    83    1
    91    26    84    1
    92    27    85    1
    93    27    86    1
    94    28    87    1
    95    28    88    1
    96    29    89    1
    97    29    90    1
    98    30    91    1
    99    30    92    1
   100    31    93    1
   101    31    94    1
   102    33    95    1
   103    33    96    1
   104    33    97    1
   105    34    98    1
   106    34    99    1
   107    35   100    1
   108    35   101    1
   109    39   102    1
   110    39   103    1
   111    40   104    1
   112    40   105    1
   113    41   106    1
   114    41   107    1
   115    42   108    1
   116    43   109    1
   117    44   110    1
   118    46   111    1
   119    46   112    1
   120    46   113    1
   121    47   114    1
   122    47   115    1
   123    50   116    1
   124    51   117    1
   125    54   118    1
   126    56   119    1
   127    56   120    1
