
     RDKit          3D

120127  0  0  0  0  0  0  0  0999 V2000
   10.9776   -2.0086   -1.6484 C   0  0  0  0  0  0  0  0  0  0  0  0
   10.2058   -1.8155   -0.3944 C   0  0  0  0  0  0  0  0  0  0  0  0
   10.6804   -2.1209    0.7891 C   0  0  0  0  0  0  0  0  0  0  0  0
   10.3668   -1.2769    1.9666 C   0  0  0  0  0  0  0  0  0  0  0  0
   11.3791   -0.1354    1.9255 C   0  0  0  0  0  0  0  0  0  0  0  0
   11.0439    0.7957    0.8130 C   0  0  0  0  0  0  0  0  0  0  0  0
   12.0413    1.6650    0.4788 N   0  0  0  0  0  0  0  0  0  0  0  0
   11.8762    2.5609   -0.4970 C   0  0  0  0  0  0  0  0  0  0  0  0
   12.8269    3.3416   -0.7684 O   0  0  0  0  0  0  0  0  0  0  0  0
   10.6738    2.5879   -1.1601 C   0  0  0  0  0  0  0  0  0  0  0  0
    9.6597    1.7344   -0.8505 C   0  0  0  0  0  0  0  0  0  0  0  0
    9.8352    0.7959    0.1731 C   0  0  0  0  0  0  0  0  0  0  0  0
    8.7325   -0.1497    0.5202 C   0  0  1  0  0  0  0  0  0  0  0  0
    8.8239   -1.2613   -0.5055 C   0  0  0  0  0  0  0  0  0  0  0  0
    8.9755   -0.6798    1.8992 C   0  0  2  0  0  0  0  0  0  0  0  0
    8.7940    0.3646    2.9225 C   0  0  0  0  0  0  0  0  0  0  0  0
    8.3306    1.7058    2.4905 C   0  0  0  0  0  0  0  0  0  0  0  0
    7.4331    1.7667    1.3027 C   0  0  0  0  0  0  0  0  0  0  0  0
    7.4577    0.5419    0.5273 N   0  0  0  0  0  0  0  0  0  0  0  0
    6.2895    0.0952   -0.1894 C   0  0  0  0  0  0  0  0  0  0  0  0
    6.4263   -0.9964   -0.7759 O   0  0  0  0  0  0  0  0  0  0  0  0
    5.0279    0.7996   -0.2814 C   0  0  0  0  0  0  0  0  0  0  0  0
    3.7491    0.1235   -0.0074 C   0  0  0  0  0  0  0  0  0  0  0  0
    3.3527   -0.9801   -0.7227 N   0  0  0  0  0  0  0  0  0  0  0  0
    3.9369   -2.2571   -0.5645 C   0  0  0  0  0  0  0  0  0  0  0  0
    2.2922   -0.9153   -1.6571 C   0  0  0  0  0  0  0  0  0  0  0  0
    0.9157   -0.6671   -1.0790 C   0  0  0  0  0  0  0  0  0  0  0  0
    0.5163   -1.6789   -0.0719 C   0  0  0  0  0  0  0  0  0  0  0  0
   -0.8671   -1.3883    0.4540 C   0  0  0  0  0  0  0  0  0  0  0  0
   -1.9172   -1.4961   -0.6052 C   0  0  0  0  0  0  0  0  0  0  0  0
   -3.3052   -1.2556   -0.1497 C   0  0  0  0  0  0  0  0  0  0  0  0
   -3.6795   -0.0123    0.3702 N   0  0  0  0  0  0  0  0  0  0  0  0
   -3.1678    0.3931    1.6257 C   0  0  0  0  0  0  0  0  0  0  0  0
   -3.8858    1.0400   -0.5757 C   0  0  0  0  0  0  0  0  0  0  0  0
   -5.0949    0.7806   -1.4112 C   0  0  0  0  0  0  0  0  0  0  0  0
   -6.3051    0.7211   -0.5146 C   0  0  0  0  0  0  0  0  0  0  0  0
   -6.1686    1.1184    0.6634 O   0  0  0  0  0  0  0  0  0  0  0  0
   -7.5314    0.2319   -1.0181 N   0  0  0  0  0  0  0  0  0  0  0  0
   -7.5584   -0.2104   -2.3970 C   0  0  0  0  0  0  0  0  0  0  0  0
   -8.9068   -0.6537   -2.8669 C   0  0  0  0  0  0  0  0  0  0  0  0
   -9.4705   -1.6092   -1.8694 C   0  0  0  0  0  0  0  0  0  0  0  0
   -9.3859   -1.1619   -0.4586 C   0  0  2  0  0  0  0  0  0  0  0  0
  -10.7958   -1.1346    0.1343 C   0  0  0  0  0  0  0  0  0  0  0  0
  -10.7488   -0.4890    1.4715 C   0  0  0  0  0  0  0  0  0  0  0  0
   -9.6381   -0.1352    2.0511 C   0  0  0  0  0  0  0  0  0  0  0  0
   -9.4317   -0.1624    3.5305 C   0  0  0  0  0  0  0  0  0  0  0  0
   -8.4803    0.3315    1.2296 C   0  0  0  0  0  0  0  0  0  0  0  0
   -8.7243    0.1735   -0.2382 C   0  0  1  0  0  0  0  0  0  0  0  0
   -9.6857    1.2449   -0.6359 C   0  0  0  0  0  0  0  0  0  0  0  0
   -9.1698    2.5256   -0.7983 C   0  0  0  0  0  0  0  0  0  0  0  0
  -10.0001    3.5611   -1.1693 C   0  0  0  0  0  0  0  0  0  0  0  0
  -11.3463    3.3611   -1.3866 C   0  0  0  0  0  0  0  0  0  0  0  0
  -12.1440    4.2709   -1.7254 O   0  0  0  0  0  0  0  0  0  0  0  0
  -11.8177    2.0994   -1.2194 N   0  0  0  0  0  0  0  0  0  0  0  0
  -11.0238    1.0712   -0.8574 C   0  0  0  0  0  0  0  0  0  0  0  0
  -11.6921   -0.2578   -0.7201 C   0  0  0  0  0  0  0  0  0  0  0  0
   11.6356   -1.1209   -1.7594 H   0  0  0  0  0  0  0  0  0  0  0  0
   10.3220   -2.0491   -2.5375 H   0  0  0  0  0  0  0  0  0  0  0  0
   11.6164   -2.9116   -1.5514 H   0  0  0  0  0  0  0  0  0  0  0  0
   11.3222   -3.0069    0.8992 H   0  0  0  0  0  0  0  0  0  0  0  0
   10.4732   -1.8005    2.9226 H   0  0  0  0  0  0  0  0  0  0  0  0
   11.5624    0.3405    2.8848 H   0  0  0  0  0  0  0  0  0  0  0  0
   12.3567   -0.6434    1.6614 H   0  0  0  0  0  0  0  0  0  0  0  0
   12.9605    1.6450    0.9857 H   0  0  0  0  0  0  0  0  0  0  0  0
   10.5603    3.3236   -1.9498 H   0  0  0  0  0  0  0  0  0  0  0  0
    8.7251    1.7687   -1.3811 H   0  0  0  0  0  0  0  0  0  0  0  0
    8.6057   -0.8599   -1.4840 H   0  0  0  0  0  0  0  0  0  0  0  0
    8.1639   -2.1253   -0.2943 H   0  0  0  0  0  0  0  0  0  0  0  0
    8.2120   -1.4933    2.0762 H   0  0  0  0  0  0  0  0  0  0  0  0
    9.6968    0.5305    3.5656 H   0  0  0  0  0  0  0  0  0  0  0  0
    8.0147   -0.0052    3.6707 H   0  0  0  0  0  0  0  0  0  0  0  0
    7.8478    2.2481    3.3759 H   0  0  0  0  0  0  0  0  0  0  0  0
    9.2218    2.3509    2.2917 H   0  0  0  0  0  0  0  0  0  0  0  0
    6.4190    2.0399    1.6673 H   0  0  0  0  0  0  0  0  0  0  0  0
    7.7302    2.6058    0.6321 H   0  0  0  0  0  0  0  0  0  0  0  0
    4.9005    1.2807   -1.3129 H   0  0  0  0  0  0  0  0  0  0  0  0
    5.0718    1.7314    0.3686 H   0  0  0  0  0  0  0  0  0  0  0  0
    3.7068   -0.0311    1.1282 H   0  0  0  0  0  0  0  0  0  0  0  0
    2.9178    0.9151   -0.1141 H   0  0  0  0  0  0  0  0  0  0  0  0
    4.5439   -2.4405    0.3175 H   0  0  0  0  0  0  0  0  0  0  0  0
    3.0627   -3.0244   -0.5314 H   0  0  0  0  0  0  0  0  0  0  0  0
    4.4522   -2.5650   -1.4940 H   0  0  0  0  0  0  0  0  0  0  0  0
    2.2314   -1.8992   -2.1923 H   0  0  0  0  0  0  0  0  0  0  0  0
    2.4626   -0.1628   -2.4432 H   0  0  0  0  0  0  0  0  0  0  0  0
    0.8126    0.3724   -0.6844 H   0  0  0  0  0  0  0  0  0  0  0  0
    0.2272   -0.7245   -1.9468 H   0  0  0  0  0  0  0  0  0  0  0  0
    0.5597   -2.6916   -0.5381 H   0  0  0  0  0  0  0  0  0  0  0  0
    1.2003   -1.6640    0.8241 H   0  0  0  0  0  0  0  0  0  0  0  0
   -1.1426   -2.1064    1.2760 H   0  0  0  0  0  0  0  0  0  0  0  0
   -0.8805   -0.3861    0.9476 H   0  0  0  0  0  0  0  0  0  0  0  0
   -1.8901   -2.5763   -0.9533 H   0  0  0  0  0  0  0  0  0  0  0  0
   -1.6620   -0.9389   -1.5380 H   0  0  0  0  0  0  0  0  0  0  0  0
   -3.4818   -2.0184    0.6869 H   0  0  0  0  0  0  0  0  0  0  0  0
   -4.0086   -1.5983   -0.9420 H   0  0  0  0  0  0  0  0  0  0  0  0
   -2.4450    1.2257    1.6253 H   0  0  0  0  0  0  0  0  0  0  0  0
   -2.8468   -0.5036    2.2036 H   0  0  0  0  0  0  0  0  0  0  0  0
   -4.0290    0.7927    2.2474 H   0  0  0  0  0  0  0  0  0  0  0  0
   -3.0136    1.2291   -1.2304 H   0  0  0  0  0  0  0  0  0  0  0  0
   -4.0285    1.9933   -0.0009 H   0  0  0  0  0  0  0  0  0  0  0  0
   -5.2566    1.5931   -2.1757 H   0  0  0  0  0  0  0  0  0  0  0  0
   -5.0135   -0.2019   -1.8967 H   0  0  0  0  0  0  0  0  0  0  0  0
   -7.1124    0.5797   -3.0417 H   0  0  0  0  0  0  0  0  0  0  0  0
   -6.8839   -1.1097   -2.5075 H   0  0  0  0  0  0  0  0  0  0  0  0
   -8.7242   -1.2487   -3.8077 H   0  0  0  0  0  0  0  0  0  0  0  0
   -9.5797    0.1557   -3.1757 H   0  0  0  0  0  0  0  0  0  0  0  0
   -8.8412   -2.5484   -1.9506 H   0  0  0  0  0  0  0  0  0  0  0  0
  -10.4812   -1.9405   -2.1902 H   0  0  0  0  0  0  0  0  0  0  0  0
   -8.8268   -1.8853    0.1983 H   0  0  0  0  0  0  0  0  0  0  0  0
  -11.1889   -2.1516    0.2187 H   0  0  0  0  0  0  0  0  0  0  0  0
  -11.6821   -0.3054    1.9847 H   0  0  0  0  0  0  0  0  0  0  0  0
  -10.0324   -0.9601    4.0026 H   0  0  0  0  0  0  0  0  0  0  0  0
   -8.3588   -0.2348    3.7745 H   0  0  0  0  0  0  0  0  0  0  0  0
   -9.8004    0.8043    3.9251 H   0  0  0  0  0  0  0  0  0  0  0  0
   -8.2465    1.3886    1.4554 H   0  0  0  0  0  0  0  0  0  0  0  0
   -7.6240   -0.3293    1.5541 H   0  0  0  0  0  0  0  0  0  0  0  0
   -8.1093    2.6986   -0.6318 H   0  0  0  0  0  0  0  0  0  0  0  0
   -9.6247    4.5696   -1.3025 H   0  0  0  0  0  0  0  0  0  0  0  0
  -12.8450    1.9564   -1.3873 H   0  0  0  0  0  0  0  0  0  0  0  0
  -11.9988   -0.7059   -1.6626 H   0  0  0  0  0  0  0  0  0  0  0  0
  -12.6143   -0.0640   -0.1227 H   0  0  0  0  0  0  0  0  0  0  0  0
  1  2  1  0
  2  3  2  0
  3  4  1  0
  4  5  1  0
  5  6  1  0
  6  7  1  0
  7  8  1  0
  8  9  2  0
  8 10  1  0
 10 11  2  0
 11 12  1  0
 12 13  1  0
 13 14  1  0
 13 15  1  0
 15 16  1  0
 16 17  1  0
 17 18  1  0
 18 19  1  0
 19 20  1  0
 20 21  2  0
 20 22  1  0
 22 23  1  0
 23 24  1  0
 24 25  1  0
 24 26  1  0
 26 27  1  0
 27 28  1  0
 28 29  1  0
 29 30  1  0
 30 31  1  0
 31 32  1  0
 32 33  1  0
 32 34  1  0
 34 35  1  0
 35 36  1  0
 36 37  2  0
 36 38  1  0
 38 39  1  0
 39 40  1  0
 40 41  1  0
 41 42  1  0
 42 43  1  0
 43 44  1  0
 44 45  2  0
 45 46  1  0
 45 47  1  0
 47 48  1  0
 48 49  1  0
 49 50  1  0
 50 51  2  0
 51 52  1  0
 52 53  2  0
 52 54  1  0
 54 55  1  0
 55 56  1  0
 14  2  1  0
 48 38  1  6
 55 49  2  0
 15  4  1  0
 48 42  1  0
 12  6  2  0
 13 19  1  1
 56 43  1  0
  1 57  1  0
  1 58  1  0
  1 59  1  0
  3 60  1  0
  4 61  1  0
  5 62  1  0
  5 63  1  0
  7 64  1  0
 10 65  1  0
 11 66  1  0
 14 67  1  0
 14 68  1  0
 15 69  1  1
 16 70  1  0
 16 71  1  0
 17 72  1  0
 17 73  1  0
 18 74  1  0
 18 75  1  0
 22 76  1  0
 22 77  1  0
 23 78  1  0
 23 79  1  0
 25 80  1  0
 25 81  1  0
 25 82  1  0
 26 83  1  0
 26 84  1  0
 27 85  1  0
 27 86  1  0
 28 87  1  0
 28 88  1  0
 29 89  1  0
 29 90  1  0
 30 91  1  0
 30 92  1  0
 31 93  1  0
 31 94  1  0
 33 95  1  0
 33 96  1  0
 33 97  1  0
 34 98  1  0
 34 99  1  0
 35100  1  0
 35101  1  0
 39102  1  0
 39103  1  0
 40104  1  0
 40105  1  0
 41106  1  0
 41107  1  0
 42108  1  1
 43109  1  0
 44110  1  0
 46111  1  0
 46112  1  0
 46113  1  0
 47114  1  0
 47115  1  0
 50116  1  0
 51117  1  0
 54118  1  0
 56119  1  0
 56120  1  0
M  END
$$$$
