@<TRIPOS>MOLECULE
*****
 46 49 0 0 0
SMALL
GASTEIGER

@<TRIPOS>ATOM
      1 C           0.5178    3.2844   -0.7513 C.3     1  UNL1       -0.0382
      2 C          -0.1626    2.0333   -0.3265 C.ar    1  UNL1       -0.0305
      3 C          -1.4592    2.0921    0.0880 C.ar    1  UNL1        0.0314
      4 N          -2.0620    0.9784    0.4656 N.ar    1  UNL1       -0.2495
      5 C          -1.4638   -0.2245    0.4651 C.ar    1  UNL1        0.1348
      6 C          -2.2098   -1.3327    0.9873 C.2     1  UNL1        0.2318
      7 O          -1.6109   -2.3864    1.3012 O.2     1  UNL1       -0.2833
      8 C          -3.6397   -1.2884    1.1782 C.ar    1  UNL1        0.1249
      9 N          -4.1849   -1.8560    2.3011 N.ar    1  UNL1       -0.2314
     10 C          -5.4710   -1.9023    2.5587 C.ar    1  UNL1        0.1191
     11 N          -6.3369   -1.3755    1.6987 N.ar    1  UNL1       -0.2179
     12 C          -5.8953   -0.7989    0.5681 C.ar    1  UNL1        0.1420
     13 N          -6.5287   -0.2238   -0.4786 N.ar    1  UNL1       -0.3457
     14 C          -5.6463    0.1801   -1.3942 C.ar    1  UNL1        0.0042
     15 C          -4.3587   -0.1388   -0.9400 C.ar    1  UNL1       -0.0329
     16 C          -4.5442   -0.7433    0.2831 C.ar    1  UNL1        0.0479
     17 C          -0.1448   -0.3187    0.0486 C.ar    1  UNL1        0.0775
     18 N           0.4566   -1.5961    0.0285 N.pl3   1  UNL1       -0.2141
     19 S           1.9773   -2.0225    0.6418 S.O2    1  UNL1        0.0724
     20 O           2.2427   -3.5134    0.5142 O.2     1  UNL1       -0.1500
     21 O           2.0035   -1.6335    2.1170 O.2     1  UNL1       -0.1500
     22 C           3.3334   -1.2188   -0.0844 C.ar    1  UNL1        0.1091
     23 C           3.8826   -1.6827   -1.2827 C.ar    1  UNL1       -0.0337
     24 C           4.9688   -1.0773   -1.8709 C.ar    1  UNL1       -0.0410
     25 C           5.5430    0.0229   -1.2689 C.ar    1  UNL1        0.0527
     26 CL          6.9326    0.8123   -2.0040 Cl      1  UNL1       -0.0830
     27 C           5.0317    0.5171   -0.0805 C.ar    1  UNL1        0.0749
     28 C           5.6795    1.7088    0.5406 C.3     1  UNL1        0.4188
     29 F           6.9997    1.4064    0.8176 F       1  UNL1       -0.1658
     30 F           5.6444    2.8023   -0.3020 F       1  UNL1       -0.1658
     31 F           5.0383    1.9434    1.7274 F       1  UNL1       -0.1658
     32 C           3.9523   -0.1170    0.4660 C.ar    1  UNL1       -0.0220
     33 C           0.4963    0.8321   -0.3476 C.ar    1  UNL1       -0.0328
     34 H           0.7246    3.9158    0.1371 H       1  UNL1        0.0278
     35 H          -0.2131    3.8433   -1.3871 H       1  UNL1        0.0278
     36 H           1.4252    3.0960   -1.3450 H       1  UNL1        0.0278
     37 H          -1.9603    3.0653    0.0942 H       1  UNL1        0.0832
     38 H          -5.8987   -2.3540    3.4526 H       1  UNL1        0.1048
     39 H          -7.5674   -0.1303   -0.5214 H       1  UNL1        0.1668
     40 H          -5.8074    0.6725   -2.3430 H       1  UNL1        0.0807
     41 H          -3.4454    0.0335   -1.4629 H       1  UNL1        0.0640
     42 H          -0.1369   -2.3562   -0.4431 H       1  UNL1        0.1738
     43 H           3.4167   -2.5555   -1.7479 H       1  UNL1        0.0638
     44 H           5.3975   -1.4417   -2.8088 H       1  UNL1        0.0633
     45 H           3.5602    0.2755    1.3931 H       1  UNL1        0.0643
     46 H           1.5232    0.7728   -0.6828 H       1  UNL1        0.0640
@<TRIPOS>BOND
     1     1     2    1
     2     2     3   ar
     3     3     4   ar
     4     4     5   ar
     5     5     6    1
     6     6     7    2
     7     6     8    1
     8     8     9   ar
     9     9    10   ar
    10    10    11   ar
    11    11    12   ar
    12    12    13   ar
    13    13    14   ar
    14    14    15   ar
    15    15    16   ar
    16     5    17   ar
    17    17    18    1
    18    18    19    1
    19    19    20    2
    20    19    21    2
    21    19    22    1
    22    22    23   ar
    23    23    24   ar
    24    24    25   ar
    25    25    26    1
    26    25    27   ar
    27    27    28    1
    28    28    29    1
    29    28    30    1
    30    28    31    1
    31    27    32   ar
    32    17    33   ar
    33    33     2   ar
    34    16     8   ar
    35    32    22   ar
    36    16    12   ar
    37     1    34    1
    38     1    35    1
    39     1    36    1
    40     3    37    1
    41    10    38    1
    42    13    39    1
    43    14    40    1
    44    15    41    1
    45    18    42    1
    46    23    43    1
    47    24    44    1
    48    32    45    1
    49    33    46    1
