
     RDKit          3D

 62 66  0  0  0  0  0  0  0  0999 V2000
   -1.7370    0.8656    1.8660 C   0  0  0  0  0  0  0  0  0  0  0  0
   -1.1201    0.4553    0.6576 N   0  0  0  0  0  0  0  0  0  0  0  0
   -1.8104   -0.2440   -0.3436 C   0  0  0  0  0  0  0  0  0  0  0  0
   -1.1928   -0.5449   -1.4492 O   0  0  0  0  0  0  0  0  0  0  0  0
   -3.2119   -0.7264   -0.3315 C   0  0  0  0  0  0  0  0  0  0  0  0
   -4.1929    0.3506   -0.5732 C   0  0  0  0  0  0  0  0  0  0  0  0
   -5.3905    0.4515    0.0785 C   0  0  0  0  0  0  0  0  0  0  0  0
   -6.2927    1.4995   -0.1915 C   0  0  0  0  0  0  0  0  0  0  0  0
   -6.0143    2.4728   -1.1242 C   0  0  0  0  0  0  0  0  0  0  0  0
   -6.8969    3.4744   -1.3737 F   0  0  0  0  0  0  0  0  0  0  0  0
   -4.8004    2.3665   -1.7825 C   0  0  0  0  0  0  0  0  0  0  0  0
   -3.9209    1.3530   -1.5247 C   0  0  0  0  0  0  0  0  0  0  0  0
   -3.4054   -1.8045   -1.4102 C   0  0  0  0  0  0  0  0  0  0  0  0
   -3.1344   -3.1136   -0.6956 C   0  0  0  0  0  0  0  0  0  0  0  0
   -3.8826   -2.8917    0.5913 C   0  0  0  0  0  0  0  0  0  0  0  0
   -3.4131   -1.4795    0.9546 C   0  0  0  0  0  0  0  0  0  0  0  0
    0.3092    0.7586    0.4881 C   0  0  2  0  0  0  0  0  0  0  0  0
    0.5958    1.6219   -0.6669 C   0  0  0  0  0  0  0  0  0  0  0  0
    1.9320    1.5432   -1.2756 C   0  0  0  0  0  0  0  0  0  0  0  0
    2.8807    0.7216   -0.5312 C   0  0  0  0  0  0  0  0  0  0  0  0
    4.2822    0.7908   -0.5109 C   0  0  0  0  0  0  0  0  0  0  0  0
    5.0468    1.7754   -1.2402 C   0  0  0  0  0  0  0  0  0  0  0  0
    6.4552    1.5396   -1.4641 C   0  0  0  0  0  0  0  0  0  0  0  0
    6.8349    0.5951   -2.2157 O   0  0  0  0  0  0  0  0  0  0  0  0
    7.4411    2.3340   -0.8661 O   0  0  0  0  0  0  0  0  0  0  0  0
    4.7154   -0.2155    0.3061 C   0  0  0  0  0  0  0  0  0  0  0  0
    5.9571   -0.6492    0.7132 C   0  0  0  0  0  0  0  0  0  0  0  0
    6.0342   -1.7285    1.5654 C   0  0  0  0  0  0  0  0  0  0  0  0
    4.9251   -2.3927    2.0264 C   0  0  0  0  0  0  0  0  0  0  0  0
    3.6795   -1.9430    1.6077 C   0  0  0  0  0  0  0  0  0  0  0  0
    3.5960   -0.8730    0.7630 C   0  0  0  0  0  0  0  0  0  0  0  0
    2.5007   -0.2741    0.2339 N   0  0  0  0  0  0  0  0  0  0  0  0
    1.0833   -0.5340    0.3692 C   0  0  0  0  0  0  0  0  0  0  0  0
   -1.4806    1.9690    1.9787 H   0  0  0  0  0  0  0  0  0  0  0  0
   -1.3209    0.3339    2.7757 H   0  0  0  0  0  0  0  0  0  0  0  0
   -2.8310    0.7269    1.9368 H   0  0  0  0  0  0  0  0  0  0  0  0
   -5.6830   -0.2939    0.8265 H   0  0  0  0  0  0  0  0  0  0  0  0
   -7.2250    1.5398    0.3418 H   0  0  0  0  0  0  0  0  0  0  0  0
   -4.5949    3.1597   -2.5231 H   0  0  0  0  0  0  0  0  0  0  0  0
   -2.9771    1.2807   -2.0368 H   0  0  0  0  0  0  0  0  0  0  0  0
   -2.6183   -1.6793   -2.1630 H   0  0  0  0  0  0  0  0  0  0  0  0
   -4.3937   -1.7784   -1.8548 H   0  0  0  0  0  0  0  0  0  0  0  0
   -2.0583   -3.2216   -0.4344 H   0  0  0  0  0  0  0  0  0  0  0  0
   -3.5020   -3.9795   -1.2451 H   0  0  0  0  0  0  0  0  0  0  0  0
   -4.9934   -2.9237    0.4500 H   0  0  0  0  0  0  0  0  0  0  0  0
   -3.6297   -3.5975    1.3931 H   0  0  0  0  0  0  0  0  0  0  0  0
   -4.1867   -1.0941    1.6314 H   0  0  0  0  0  0  0  0  0  0  0  0
   -2.4361   -1.6270    1.4833 H   0  0  0  0  0  0  0  0  0  0  0  0
    0.6448    1.2757    1.4116 H   0  0  0  0  0  0  0  0  0  0  0  0
    0.4267    2.7016   -0.2812 H   0  0  0  0  0  0  0  0  0  0  0  0
   -0.1683    1.5433   -1.4889 H   0  0  0  0  0  0  0  0  0  0  0  0
    1.7883    1.1145   -2.3388 H   0  0  0  0  0  0  0  0  0  0  0  0
    2.3418    2.5982   -1.4268 H   0  0  0  0  0  0  0  0  0  0  0  0
    4.9132    2.7756   -0.7266 H   0  0  0  0  0  0  0  0  0  0  0  0
    4.5116    1.9405   -2.2296 H   0  0  0  0  0  0  0  0  0  0  0  0
    8.2779    1.8756   -0.4990 H   0  0  0  0  0  0  0  0  0  0  0  0
    6.8418   -0.1276    0.3552 H   0  0  0  0  0  0  0  0  0  0  0  0
    7.0187   -2.0571    1.8742 H   0  0  0  0  0  0  0  0  0  0  0  0
    4.9819   -3.2466    2.6932 H   0  0  0  0  0  0  0  0  0  0  0  0
    2.7818   -2.4282    1.9343 H   0  0  0  0  0  0  0  0  0  0  0  0
    0.9028   -1.1935    1.2596 H   0  0  0  0  0  0  0  0  0  0  0  0
    0.8147   -1.1421   -0.5102 H   0  0  0  0  0  0  0  0  0  0  0  0
  1  2  1  0
  2  3  1  0
  3  4  2  0
  3  5  1  0
  5  6  1  0
  6  7  2  0
  7  8  1  0
  8  9  2  0
  9 10  1  0
  9 11  1  0
 11 12  2  0
  5 13  1  0
 13 14  1  0
 14 15  1  0
 15 16  1  0
  2 17  1  0
 17 18  1  0
 18 19  1  0
 19 20  1  0
 20 21  2  0
 21 22  1  0
 22 23  1  0
 23 24  2  0
 23 25  1  0
 21 26  1  0
 26 27  2  0
 27 28  1  0
 28 29  2  0
 29 30  1  0
 30 31  2  0
 31 32  1  0
 32 33  1  0
 16  5  1  0
 33 17  1  0
 12  6  1  0
 32 20  1  0
 31 26  1  0
  1 34  1  0
  1 35  1  0
  1 36  1  0
  7 37  1  0
  8 38  1  0
 11 39  1  0
 12 40  1  0
 13 41  1  0
 13 42  1  0
 14 43  1  0
 14 44  1  0
 15 45  1  0
 15 46  1  0
 16 47  1  0
 16 48  1  0
 17 49  1  1
 18 50  1  0
 18 51  1  0
 19 52  1  0
 19 53  1  0
 22 54  1  0
 22 55  1  0
 25 56  1  0
 27 57  1  0
 28 58  1  0
 29 59  1  0
 30 60  1  0
 33 61  1  0
 33 62  1  0
M  END
$$$$
