@<TRIPOS>MOLECULE
*****
 62 66 0 0 0
SMALL
GASTEIGER

@<TRIPOS>ATOM
      1 C          -1.7370    0.8656    1.8660 C.3     1  UNL1        0.0035
      2 N          -1.1201    0.4553    0.6576 N.am    1  UNL1       -0.2990
      3 C          -1.8104   -0.2440   -0.3436 C.2     1  UNL1        0.2261
      4 O          -1.1928   -0.5449   -1.4492 O.2     1  UNL1       -0.2746
      5 C          -3.2119   -0.7264   -0.3315 C.3     1  UNL1        0.0720
      6 C          -4.1929    0.3506   -0.5732 C.ar    1  UNL1       -0.0323
      7 C          -5.3905    0.4515    0.0785 C.ar    1  UNL1       -0.0549
      8 C          -6.2927    1.4995   -0.1915 C.ar    1  UNL1       -0.0262
      9 C          -6.0143    2.4728   -1.1242 C.ar    1  UNL1        0.1234
     10 F          -6.8969    3.4744   -1.3737 F       1  UNL1       -0.2055
     11 C          -4.8004    2.3665   -1.7825 C.ar    1  UNL1       -0.0262
     12 C          -3.9209    1.3530   -1.5247 C.ar    1  UNL1       -0.0549
     13 C          -3.4054   -1.8045   -1.4102 C.3     1  UNL1       -0.0350
     14 C          -3.1344   -3.1136   -0.6956 C.3     1  UNL1       -0.0518
     15 C          -3.8826   -2.8917    0.5913 C.3     1  UNL1       -0.0518
     16 C          -3.4131   -1.4795    0.9546 C.3     1  UNL1       -0.0350
     17 C           0.3092    0.7586    0.4881 C.3     1  UNL1        0.0439
     18 C           0.5958    1.6219   -0.6669 C.3     1  UNL1       -0.0273
     19 C           1.9320    1.5432   -1.2756 C.3     1  UNL1       -0.0103
     20 C           2.8807    0.7216   -0.5312 C.ar    1  UNL1        0.0236
     21 C           4.2822    0.7908   -0.5109 C.ar    1  UNL1       -0.0083
     22 C           5.0468    1.7754   -1.2402 C.3     1  UNL1        0.0721
     23 C           6.4552    1.5396   -1.4641 C.2     1  UNL1        0.3091
     24 O           6.8349    0.5951   -2.2157 O.2     1  UNL1       -0.2507
     25 O           7.4411    2.3340   -0.8661 O.3     1  UNL1       -0.4804
     26 C           4.7154   -0.2155    0.3061 C.ar    1  UNL1        0.0038
     27 C           5.9571   -0.6492    0.7132 C.ar    1  UNL1       -0.0523
     28 C           6.0342   -1.7285    1.5654 C.ar    1  UNL1       -0.0611
     29 C           4.9251   -2.3927    2.0264 C.ar    1  UNL1       -0.0598
     30 C           3.6795   -1.9430    1.6077 C.ar    1  UNL1       -0.0376
     31 C           3.5960   -0.8730    0.7630 C.ar    1  UNL1        0.0496
     32 N           2.5007   -0.2741    0.2339 N.ar    1  UNL1       -0.3417
     33 C           1.0833   -0.5340    0.3692 C.3     1  UNL1        0.0422
     34 H          -1.4806    1.9690    1.9787 H       1  UNL1        0.0429
     35 H          -1.3209    0.3339    2.7757 H       1  UNL1        0.0429
     36 H          -2.8310    0.7269    1.9368 H       1  UNL1        0.0429
     37 H          -5.6830   -0.2939    0.8265 H       1  UNL1        0.0621
     38 H          -7.2250    1.5398    0.3418 H       1  UNL1        0.0646
     39 H          -4.5949    3.1597   -2.5231 H       1  UNL1        0.0646
     40 H          -2.9771    1.2807   -2.0368 H       1  UNL1        0.0621
     41 H          -2.6183   -1.6793   -2.1630 H       1  UNL1        0.0278
     42 H          -4.3937   -1.7784   -1.8548 H       1  UNL1        0.0278
     43 H          -2.0583   -3.2216   -0.4344 H       1  UNL1        0.0266
     44 H          -3.5020   -3.9795   -1.2451 H       1  UNL1        0.0266
     45 H          -4.9934   -2.9237    0.4500 H       1  UNL1        0.0266
     46 H          -3.6297   -3.5975    1.3931 H       1  UNL1        0.0266
     47 H          -4.1867   -1.0941    1.6314 H       1  UNL1        0.0278
     48 H          -2.4361   -1.6270    1.4833 H       1  UNL1        0.0278
     49 H           0.6448    1.2757    1.4116 H       1  UNL1        0.0518
     50 H           0.4267    2.7016   -0.2812 H       1  UNL1        0.0287
     51 H          -0.1683    1.5433   -1.4889 H       1  UNL1        0.0287
     52 H           1.7883    1.1145   -2.3388 H       1  UNL1        0.0328
     53 H           2.3418    2.5982   -1.4268 H       1  UNL1        0.0328
     54 H           4.9132    2.7756   -0.7266 H       1  UNL1        0.0427
     55 H           4.5116    1.9405   -2.2296 H       1  UNL1        0.0427
     56 H           8.2779    1.8756   -0.4990 H       1  UNL1        0.2951
     57 H           6.8418   -0.1276    0.3552 H       1  UNL1        0.0624
     58 H           7.0187   -2.0571    1.8742 H       1  UNL1        0.0618
     59 H           4.9819   -3.2466    2.6932 H       1  UNL1        0.0618
     60 H           2.7818   -2.4282    1.9343 H       1  UNL1        0.0638
     61 H           0.9028   -1.1935    1.2596 H       1  UNL1        0.0510
     62 H           0.8147   -1.1421   -0.5102 H       1  UNL1        0.0510
@<TRIPOS>BOND
     1     1     2    1
     2     2     3   am
     3     3     4    2
     4     3     5    1
     5     5     6    1
     6     6     7   ar
     7     7     8   ar
     8     8     9   ar
     9     9    10    1
    10     9    11   ar
    11    11    12   ar
    12     5    13    1
    13    13    14    1
    14    14    15    1
    15    15    16    1
    16     2    17    1
    17    17    18    1
    18    18    19    1
    19    19    20    1
    20    20    21   ar
    21    21    22    1
    22    22    23    1
    23    23    24    2
    24    23    25    1
    25    21    26   ar
    26    26    27   ar
    27    27    28   ar
    28    28    29   ar
    29    29    30   ar
    30    30    31   ar
    31    31    32   ar
    32    32    33    1
    33    16     5    1
    34    33    17    1
    35    12     6   ar
    36    32    20   ar
    37    31    26   ar
    38     1    34    1
    39     1    35    1
    40     1    36    1
    41     7    37    1
    42     8    38    1
    43    11    39    1
    44    12    40    1
    45    13    41    1
    46    13    42    1
    47    14    43    1
    48    14    44    1
    49    15    45    1
    50    15    46    1
    51    16    47    1
    52    16    48    1
    53    17    49    1
    54    18    50    1
    55    18    51    1
    56    19    52    1
    57    19    53    1
    58    22    54    1
    59    22    55    1
    60    25    56    1
    61    27    57    1
    62    28    58    1
    63    29    59    1
    64    30    60    1
    65    33    61    1
    66    33    62    1
