@<TRIPOS>MOLECULE
*****
 37 39 0 0 0
SMALL
GASTEIGER

@<TRIPOS>ATOM
      1 N          -0.9071   -3.3132   -0.1755 N.3     1  UNL1       -0.3291
      2 C          -1.8195   -2.2502   -0.5363 C.3     1  UNL1        0.0039
      3 C          -1.6396   -1.0077    0.3024 C.3     1  UNL1        0.0215
      4 C          -2.5830    0.0751   -0.0806 C.ar    1  UNL1       -0.0387
      5 C          -3.2199    0.8485    0.8981 C.ar    1  UNL1       -0.0566
      6 C          -4.0999    1.8605    0.6052 C.ar    1  UNL1       -0.0431
      7 C          -4.3692    2.1281   -0.7140 C.ar    1  UNL1        0.0410
      8 CL         -5.4975    3.4275   -1.0441 Cl      1  UNL1       -0.0835
      9 C          -3.7739    1.4019   -1.7299 C.ar    1  UNL1       -0.0431
     10 C          -2.8980    0.3965   -1.3816 C.ar    1  UNL1       -0.0566
     11 C          -0.2443   -0.5870    0.4263 C.ar    1  UNL1       -0.0387
     12 C           0.4406   -0.1046    1.5283 C.ar    1  UNL1       -0.0574
     13 C           1.7668    0.2468    1.4623 C.ar    1  UNL1       -0.0537
     14 C           2.4839    0.1361    0.2915 C.ar    1  UNL1       -0.0149
     15 C           1.8252   -0.3405   -0.8163 C.ar    1  UNL1       -0.0537
     16 C           0.4791   -0.7016   -0.7659 C.ar    1  UNL1       -0.0574
     17 C           3.8928    0.5073    0.2134 C.ar    1  UNL1        0.0193
     18 C           4.5461    1.0121   -0.8960 C.ar    1  UNL1        0.0300
     19 N           5.8454    1.2418   -0.6036 N.ar    1  UNL1       -0.2841
     20 N           6.0407    0.8985    0.6596 N.ar    1  UNL1       -0.1817
     21 C           4.8776    0.4455    1.1963 C.ar    1  UNL1        0.0568
     22 H          -0.0040   -2.9413    0.1899 H       1  UNL1        0.1182
     23 H          -0.7376   -3.8754   -1.0435 H       1  UNL1        0.1182
     24 H          -2.8365   -2.6784   -0.4237 H       1  UNL1        0.0431
     25 H          -1.6952   -2.0107   -1.6061 H       1  UNL1        0.0431
     26 H          -1.9584   -1.3233    1.3404 H       1  UNL1        0.0410
     27 H          -3.0011    0.6304    1.9510 H       1  UNL1        0.0621
     28 H          -4.5453    2.4061    1.4374 H       1  UNL1        0.0632
     29 H          -4.0010    1.6305   -2.7631 H       1  UNL1        0.0632
     30 H          -2.4325   -0.1718   -2.1826 H       1  UNL1        0.0621
     31 H          -0.1810   -0.0435    2.4119 H       1  UNL1        0.0621
     32 H           2.2487    0.6135    2.3408 H       1  UNL1        0.0624
     33 H           2.4172   -0.4173   -1.7292 H       1  UNL1        0.0624
     34 H           0.1034   -1.0559   -1.7103 H       1  UNL1        0.0621
     35 H           4.1405    1.2167   -1.8777 H       1  UNL1        0.0830
     36 H           6.6517    1.6120   -1.1580 H       1  UNL1        0.1882
     37 H           4.6845    0.0874    2.1986 H       1  UNL1        0.0854
@<TRIPOS>BOND
     1     1     2    1
     2     2     3    1
     3     3     4    1
     4     4     5   ar
     5     5     6   ar
     6     6     7   ar
     7     7     8    1
     8     7     9   ar
     9     9    10   ar
    10     3    11    1
    11    11    12   ar
    12    12    13   ar
    13    13    14   ar
    14    14    15   ar
    15    15    16   ar
    16    14    17    1
    17    17    18   ar
    18    18    19   ar
    19    19    20   ar
    20    20    21   ar
    21    10     4   ar
    22    16    11   ar
    23    21    17   ar
    24     1    22    1
    25     1    23    1
    26     2    24    1
    27     2    25    1
    28     3    26    1
    29     5    27    1
    30     6    28    1
    31     9    29    1
    32    10    30    1
    33    12    31    1
    34    13    32    1
    35    15    33    1
    36    16    34    1
    37    18    35    1
    38    19    36    1
    39    21    37    1
