@<TRIPOS>MOLECULE
*****
 57 62 0 0 0
SMALL
GASTEIGER

@<TRIPOS>ATOM
      1 C           5.0378   -0.5610    3.3689 C.3     1  UNL1        0.0805
      2 O           4.3707   -0.4569    2.1228 O.3     1  UNL1       -0.4782
      3 C           4.3945   -1.5864    1.2872 C.ar    1  UNL1        0.2408
      4 N           5.0066   -2.7148    1.6235 N.ar    1  UNL1       -0.2195
      5 C           5.0471   -3.8109    0.8474 C.ar    1  UNL1        0.0315
      6 C           4.4205   -3.8023   -0.3928 C.ar    1  UNL1       -0.0413
      7 C           3.7774   -2.6367   -0.7616 C.ar    1  UNL1       -0.0296
      8 C           3.7595   -1.5333    0.0651 C.ar    1  UNL1        0.1275
      9 N           3.0933   -0.3372   -0.3257 N.ar    1  UNL1       -0.2219
     10 N           3.6082    0.8516   -0.5811 N.ar    1  UNL1       -0.1704
     11 C           2.6408    1.7203   -0.9196 C.ar    1  UNL1        0.0664
     12 C           2.7644    3.1578   -1.2849 C.3     1  UNL1       -0.0202
     13 C           1.4419    0.9765   -0.8589 C.ar    1  UNL1        0.0309
     14 C           1.7455   -0.2973   -0.4886 C.ar    1  UNL1        0.1353
     15 C           0.5117   -1.0582   -0.4276 C.2     1  UNL1        0.2715
     16 O           0.4379   -2.2953   -0.1096 O.2     1  UNL1       -0.2679
     17 N          -0.5576   -0.1921   -0.7771 N.am    1  UNL1       -0.2376
     18 C          -1.8974   -0.6750   -0.8030 C.ar    1  UNL1        0.1499
     19 C          -2.4008   -1.2032   -1.9566 C.ar    1  UNL1       -0.0131
     20 C          -3.7104   -1.6758   -1.9836 C.ar    1  UNL1       -0.0012
     21 C          -4.3618   -2.2642   -3.1626 C.3     1  UNL1       -0.0360
     22 C          -4.4318   -1.5768   -0.8134 C.ar    1  UNL1        0.1809
     23 N          -5.6926   -1.9334   -0.5150 N.ar    1  UNL1       -0.1277
     24 N          -5.9330   -1.6374    0.7425 N.ar    1  UNL1       -0.1325
     25 C          -4.8351   -1.0831    1.2870 C.ar    1  UNL1        0.1521
     26 C          -4.7349   -0.6245    2.6822 C.3     1  UNL1       -0.0027
     27 N          -3.9216   -1.0585    0.2997 N.ar    1  UNL1       -0.1953
     28 N          -2.6728   -0.6234    0.2743 N.ar    1  UNL1       -0.1478
     29 C          -0.0123    1.0709   -1.0466 C.3     1  UNL1        0.0868
     30 C          -0.6193    2.2197   -0.3746 C.ar    1  UNL1       -0.0220
     31 C          -0.8530    3.3535   -1.1239 C.ar    1  UNL1       -0.0551
     32 C          -1.4241    4.5024   -0.5912 C.ar    1  UNL1       -0.0431
     33 C          -1.7807    4.5365    0.7381 C.ar    1  UNL1        0.0410
     34 CL         -2.5023    5.9803    1.4230 Cl      1  UNL1       -0.0835
     35 C          -1.5451    3.4011    1.4824 C.ar    1  UNL1       -0.0431
     36 C          -0.9781    2.2658    0.9455 C.ar    1  UNL1       -0.0551
     37 H           4.8578   -1.5715    3.8001 H       1  UNL1        0.0660
     38 H           6.1195   -0.3450    3.2834 H       1  UNL1        0.0660
     39 H           4.6291    0.2164    4.0705 H       1  UNL1        0.0660
     40 H           5.5735   -4.7147    1.1886 H       1  UNL1        0.0831
     41 H           4.4676   -4.6909   -0.9936 H       1  UNL1        0.0633
     42 H           3.2903   -2.6305   -1.7261 H       1  UNL1        0.0641
     43 H           3.7501    3.5057   -0.8592 H       1  UNL1        0.0293
     44 H           2.8192    3.3141   -2.3770 H       1  UNL1        0.0293
     45 H           1.9999    3.7880   -0.7860 H       1  UNL1        0.0293
     46 H          -1.8446   -1.2873   -2.8843 H       1  UNL1        0.0656
     47 H          -3.9287   -1.9307   -4.1216 H       1  UNL1        0.0279
     48 H          -5.4396   -1.9388   -3.1309 H       1  UNL1        0.0279
     49 H          -4.3819   -3.3609   -3.0480 H       1  UNL1        0.0279
     50 H          -3.9911    0.2004    2.7864 H       1  UNL1        0.0309
     51 H          -4.3877   -1.4801    3.3020 H       1  UNL1        0.0309
     52 H          -5.7379   -0.3296    3.0366 H       1  UNL1        0.0309
     53 H          -0.1450    1.2349   -2.1672 H       1  UNL1        0.0606
     54 H          -0.5912    3.3924   -2.1930 H       1  UNL1        0.0621
     55 H          -1.6092    5.3909   -1.1707 H       1  UNL1        0.0632
     56 H          -1.8274    3.4215    2.5443 H       1  UNL1        0.0632
     57 H          -0.8154    1.4170    1.5541 H       1  UNL1        0.0621
@<TRIPOS>BOND
     1     1     2    1
     2     2     3    1
     3     3     4   ar
     4     4     5   ar
     5     5     6   ar
     6     6     7   ar
     7     7     8   ar
     8     8     9    1
     9     9    10   ar
    10    10    11   ar
    11    11    12    1
    12    11    13   ar
    13    13    14   ar
    14    14    15    1
    15    15    16    2
    16    15    17   am
    17    17    18    1
    18    18    19   ar
    19    19    20   ar
    20    20    21    1
    21    20    22   ar
    22    22    23   ar
    23    23    24   ar
    24    24    25   ar
    25    25    26    1
    26    25    27   ar
    27    27    28   ar
    28    17    29    1
    29    29    30    1
    30    30    31   ar
    31    31    32   ar
    32    32    33   ar
    33    33    34    1
    34    33    35   ar
    35    35    36   ar
    36     8     3   ar
    37    14     9   ar
    38    28    18   ar
    39    36    30   ar
    40    29    13    1
    41    27    22   ar
    42     1    37    1
    43     1    38    1
    44     1    39    1
    45     5    40    1
    46     6    41    1
    47     7    42    1
    48    12    43    1
    49    12    44    1
    50    12    45    1
    51    19    46    1
    52    21    47    1
    53    21    48    1
    54    21    49    1
    55    26    50    1
    56    26    51    1
    57    26    52    1
    58    29    53    1
    59    31    54    1
    60    32    55    1
    61    35    56    1
    62    36    57    1
