@<TRIPOS>MOLECULE
*****
 53 56 0 0 0
SMALL
GASTEIGER

@<TRIPOS>ATOM
      1 C          -3.3609    5.2636    1.3654 C.3     1  UNL1       -0.0454
      2 C          -2.8055    4.8722    0.0222 C.3     1  UNL1        0.0409
      3 N          -2.7229    3.4264   -0.1436 N.ar    1  UNL1       -0.2467
      4 N          -3.6051    2.5725   -0.6223 N.ar    1  UNL1       -0.1771
      5 C          -3.0629    1.3435   -0.5703 C.ar    1  UNL1        0.0605
      6 C          -1.7873    1.3611   -0.0459 C.ar    1  UNL1        0.0601
      7 C          -1.6159    2.7058    0.2096 C.ar    1  UNL1        0.1600
      8 N          -0.4209    3.0431    0.7389 N.ar    1  UNL1       -0.2350
      9 C           0.5201    2.1439    0.9943 C.ar    1  UNL1        0.0439
     10 C           0.3500    0.8084    0.7408 C.ar    1  UNL1        0.0763
     11 C           1.4720   -0.0519    1.0751 C.2     1  UNL1        0.2476
     12 O           1.7072   -1.2823    0.9997 O.2     1  UNL1       -0.2701
     13 N           2.6820    0.4207    1.6296 N.am    1  UNL1       -0.3071
     14 C           3.8169   -0.3936    1.9713 C.3     1  UNL1        0.0371
     15 C           4.6601   -0.8075    0.8474 C.ar    1  UNL1       -0.0303
     16 C           4.6764   -1.9266    0.0454 C.ar    1  UNL1       -0.0571
     17 C           5.5683   -2.0936   -0.9698 C.ar    1  UNL1       -0.0615
     18 C           6.5252   -1.1480   -1.2689 C.ar    1  UNL1       -0.0617
     19 C           6.5399   -0.0122   -0.4859 C.ar    1  UNL1       -0.0615
     20 C           5.6299    0.1631    0.5531 C.ar    1  UNL1       -0.0571
     21 C          -0.8416    0.3875    0.2017 C.ar    1  UNL1        0.0534
     22 N          -1.0702   -0.9633   -0.0609 N.pl3   1  UNL1       -0.3396
     23 C          -2.0647   -1.8427   -0.5327 C.3     1  UNL1        0.0248
     24 C          -3.2795   -2.0048    0.3554 C.3     1  UNL1       -0.0110
     25 C          -4.3804   -2.5303   -0.5419 C.3     1  UNL1        0.0493
     26 O          -3.8641   -3.0666   -1.7187 O.3     1  UNL1       -0.3796
     27 C          -2.8020   -3.9414   -1.5077 C.3     1  UNL1        0.0493
     28 C          -1.6173   -3.2488   -0.8686 C.3     1  UNL1       -0.0110
     29 H          -3.1855    4.5289    2.1519 H       1  UNL1        0.0247
     30 H          -2.8648    6.2222    1.6863 H       1  UNL1        0.0247
     31 H          -4.4589    5.4037    1.2852 H       1  UNL1        0.0247
     32 H          -1.8357    5.3803   -0.1641 H       1  UNL1        0.0507
     33 H          -3.5115    5.2190   -0.7805 H       1  UNL1        0.0507
     34 H          -3.6107    0.4914   -0.9163 H       1  UNL1        0.0855
     35 H           1.3629    2.6723    1.4077 H       1  UNL1        0.0838
     36 H           2.8298    1.4500    1.8314 H       1  UNL1        0.1493
     37 H           4.3952    0.1088    2.7674 H       1  UNL1        0.0512
     38 H           3.3731   -1.2952    2.5008 H       1  UNL1        0.0512
     39 H           3.9316   -2.6393    0.3046 H       1  UNL1        0.0621
     40 H           5.4696   -3.0344   -1.5314 H       1  UNL1        0.0618
     41 H           7.2150   -1.3027   -2.0721 H       1  UNL1        0.0618
     42 H           7.2973    0.7165   -0.7364 H       1  UNL1        0.0618
     43 H           5.7725    1.1084    1.0737 H       1  UNL1        0.0621
     44 H          -0.2850   -1.6094    0.1365 H       1  UNL1        0.1464
     45 H          -2.4121   -1.4308   -1.5345 H       1  UNL1        0.0499
     46 H          -3.0254   -2.8440    1.0575 H       1  UNL1        0.0305
     47 H          -3.5989   -1.1038    0.8732 H       1  UNL1        0.0305
     48 H          -4.9620   -3.3446   -0.0453 H       1  UNL1        0.0560
     49 H          -5.0548   -1.6962   -0.8701 H       1  UNL1        0.0560
     50 H          -2.4521   -4.2510   -2.5279 H       1  UNL1        0.0560
     51 H          -3.1041   -4.8680   -0.9779 H       1  UNL1        0.0560
     52 H          -0.7029   -3.2784   -1.4946 H       1  UNL1        0.0305
     53 H          -1.4295   -3.8023    0.0924 H       1  UNL1        0.0305
@<TRIPOS>BOND
     1     1     2    1
     2     2     3    1
     3     3     4   ar
     4     4     5   ar
     5     5     6   ar
     6     6     7   ar
     7     7     8   ar
     8     8     9   ar
     9     9    10   ar
    10    10    11    1
    11    11    12    2
    12    11    13   am
    13    13    14    1
    14    14    15    1
    15    15    16   ar
    16    16    17   ar
    17    17    18   ar
    18    18    19   ar
    19    19    20   ar
    20    10    21   ar
    21    21    22    1
    22    22    23    1
    23    23    24    1
    24    24    25    1
    25    25    26    1
    26    26    27    1
    27    27    28    1
    28     7     3   ar
    29    20    15   ar
    30    28    23    1
    31    21     6   ar
    32     1    29    1
    33     1    30    1
    34     1    31    1
    35     2    32    1
    36     2    33    1
    37     5    34    1
    38     9    35    1
    39    13    36    1
    40    14    37    1
    41    14    38    1
    42    16    39    1
    43    17    40    1
    44    18    41    1
    45    19    42    1
    46    20    43    1
    47    22    44    1
    48    23    45    1
    49    24    46    1
    50    24    47    1
    51    25    48    1
    52    25    49    1
    53    27    50    1
    54    27    51    1
    55    28    52    1
    56    28    53    1
