
     RDKit          3D

 53 56  0  0  0  0  0  0  0  0999 V2000
   -3.3609    5.2636    1.3654 C   0  0  0  0  0  0  0  0  0  0  0  0
   -2.8055    4.8722    0.0222 C   0  0  0  0  0  0  0  0  0  0  0  0
   -2.7229    3.4264   -0.1436 N   0  0  0  0  0  0  0  0  0  0  0  0
   -3.6051    2.5725   -0.6223 N   0  0  0  0  0  0  0  0  0  0  0  0
   -3.0629    1.3435   -0.5703 C   0  0  0  0  0  0  0  0  0  0  0  0
   -1.7873    1.3611   -0.0459 C   0  0  0  0  0  0  0  0  0  0  0  0
   -1.6159    2.7058    0.2096 C   0  0  0  0  0  0  0  0  0  0  0  0
   -0.4209    3.0431    0.7389 N   0  0  0  0  0  0  0  0  0  0  0  0
    0.5201    2.1439    0.9943 C   0  0  0  0  0  0  0  0  0  0  0  0
    0.3500    0.8084    0.7408 C   0  0  0  0  0  0  0  0  0  0  0  0
    1.4720   -0.0519    1.0751 C   0  0  0  0  0  0  0  0  0  0  0  0
    1.7072   -1.2823    0.9997 O   0  0  0  0  0  0  0  0  0  0  0  0
    2.6820    0.4207    1.6296 N   0  0  0  0  0  0  0  0  0  0  0  0
    3.8169   -0.3936    1.9713 C   0  0  0  0  0  0  0  0  0  0  0  0
    4.6601   -0.8075    0.8474 C   0  0  0  0  0  0  0  0  0  0  0  0
    4.6764   -1.9266    0.0454 C   0  0  0  0  0  0  0  0  0  0  0  0
    5.5683   -2.0936   -0.9698 C   0  0  0  0  0  0  0  0  0  0  0  0
    6.5252   -1.1480   -1.2689 C   0  0  0  0  0  0  0  0  0  0  0  0
    6.5399   -0.0122   -0.4859 C   0  0  0  0  0  0  0  0  0  0  0  0
    5.6299    0.1631    0.5531 C   0  0  0  0  0  0  0  0  0  0  0  0
   -0.8416    0.3875    0.2017 C   0  0  0  0  0  0  0  0  0  0  0  0
   -1.0702   -0.9633   -0.0609 N   0  0  0  0  0  0  0  0  0  0  0  0
   -2.0647   -1.8427   -0.5327 C   0  0  0  0  0  0  0  0  0  0  0  0
   -3.2795   -2.0048    0.3554 C   0  0  0  0  0  0  0  0  0  0  0  0
   -4.3804   -2.5303   -0.5419 C   0  0  0  0  0  0  0  0  0  0  0  0
   -3.8641   -3.0666   -1.7187 O   0  0  0  0  0  0  0  0  0  0  0  0
   -2.8020   -3.9414   -1.5077 C   0  0  0  0  0  0  0  0  0  0  0  0
   -1.6173   -3.2488   -0.8686 C   0  0  0  0  0  0  0  0  0  0  0  0
   -3.1855    4.5289    2.1519 H   0  0  0  0  0  0  0  0  0  0  0  0
   -2.8648    6.2222    1.6863 H   0  0  0  0  0  0  0  0  0  0  0  0
   -4.4589    5.4037    1.2852 H   0  0  0  0  0  0  0  0  0  0  0  0
   -1.8357    5.3803   -0.1641 H   0  0  0  0  0  0  0  0  0  0  0  0
   -3.5115    5.2190   -0.7805 H   0  0  0  0  0  0  0  0  0  0  0  0
   -3.6107    0.4914   -0.9163 H   0  0  0  0  0  0  0  0  0  0  0  0
    1.3629    2.6723    1.4077 H   0  0  0  0  0  0  0  0  0  0  0  0
    2.8298    1.4500    1.8314 H   0  0  0  0  0  0  0  0  0  0  0  0
    4.3952    0.1088    2.7674 H   0  0  0  0  0  0  0  0  0  0  0  0
    3.3731   -1.2952    2.5008 H   0  0  0  0  0  0  0  0  0  0  0  0
    3.9316   -2.6393    0.3046 H   0  0  0  0  0  0  0  0  0  0  0  0
    5.4696   -3.0344   -1.5314 H   0  0  0  0  0  0  0  0  0  0  0  0
    7.2150   -1.3027   -2.0721 H   0  0  0  0  0  0  0  0  0  0  0  0
    7.2973    0.7165   -0.7364 H   0  0  0  0  0  0  0  0  0  0  0  0
    5.7725    1.1084    1.0737 H   0  0  0  0  0  0  0  0  0  0  0  0
   -0.2850   -1.6094    0.1365 H   0  0  0  0  0  0  0  0  0  0  0  0
   -2.4121   -1.4308   -1.5345 H   0  0  0  0  0  0  0  0  0  0  0  0
   -3.0254   -2.8440    1.0575 H   0  0  0  0  0  0  0  0  0  0  0  0
   -3.5989   -1.1038    0.8732 H   0  0  0  0  0  0  0  0  0  0  0  0
   -4.9620   -3.3446   -0.0453 H   0  0  0  0  0  0  0  0  0  0  0  0
   -5.0548   -1.6962   -0.8701 H   0  0  0  0  0  0  0  0  0  0  0  0
   -2.4521   -4.2510   -2.5279 H   0  0  0  0  0  0  0  0  0  0  0  0
   -3.1041   -4.8680   -0.9779 H   0  0  0  0  0  0  0  0  0  0  0  0
   -0.7029   -3.2784   -1.4946 H   0  0  0  0  0  0  0  0  0  0  0  0
   -1.4295   -3.8023    0.0924 H   0  0  0  0  0  0  0  0  0  0  0  0
  1  2  1  0
  2  3  1  0
  3  4  1  0
  4  5  2  0
  5  6  1  0
  6  7  2  0
  7  8  1  0
  8  9  2  0
  9 10  1  0
 10 11  1  0
 11 12  2  0
 11 13  1  0
 13 14  1  0
 14 15  1  0
 15 16  2  0
 16 17  1  0
 17 18  2  0
 18 19  1  0
 19 20  2  0
 10 21  2  0
 21 22  1  0
 22 23  1  0
 23 24  1  0
 24 25  1  0
 25 26  1  0
 26 27  1  0
 27 28  1  0
  7  3  1  0
 20 15  1  0
 28 23  1  0
 21  6  1  0
  1 29  1  0
  1 30  1  0
  1 31  1  0
  2 32  1  0
  2 33  1  0
  5 34  1  0
  9 35  1  0
 13 36  1  0
 14 37  1  0
 14 38  1  0
 16 39  1  0
 17 40  1  0
 18 41  1  0
 19 42  1  0
 20 43  1  0
 22 44  1  0
 23 45  1  0
 24 46  1  0
 24 47  1  0
 25 48  1  0
 25 49  1  0
 27 50  1  0
 27 51  1  0
 28 52  1  0
 28 53  1  0
M  END
$$$$
