@<TRIPOS>MOLECULE
*****
 68 72 0 0 0
SMALL
GASTEIGER

@<TRIPOS>ATOM
      1 C           7.9646   -0.5412    0.8264 C.3     1  UNL1       -0.0253
      2 C           7.1635    0.3212   -0.1505 C.3     1  UNL1        0.1068
      3 C           7.2566   -0.3439   -1.4950 C.3     1  UNL1       -0.0253
      4 C           7.8065    1.6775   -0.2276 C.3     1  UNL1       -0.0253
      5 O           5.8405    0.3424    0.2929 O.3     1  UNL1       -0.4445
      6 C           4.8014    1.0163   -0.3225 C.2     1  UNL1        0.4034
      7 O           5.0880    1.6591   -1.3674 O.2     1  UNL1       -0.2262
      8 N           3.4721    0.9985    0.1802 N.am    1  UNL1       -0.2673
      9 C           3.1224    0.2681    1.3765 C.3     1  UNL1        0.0197
     10 C           2.1261   -0.8315    1.0318 C.3     1  UNL1       -0.0144
     11 C           1.3730   -0.5000   -0.2274 C.3     1  UNL1        0.0578
     12 N           0.1197   -1.2294   -0.1897 N.ar    1  UNL1       -0.2431
     13 N           0.0669   -2.5505   -0.2060 N.ar    1  UNL1       -0.1768
     14 C          -1.2150   -2.9565   -0.1627 C.ar    1  UNL1        0.0620
     15 C          -2.0017   -1.8477   -0.1176 C.ar    1  UNL1        0.0785
     16 C          -3.3761   -1.6485   -0.0582 C.ar    1  UNL1        0.1361
     17 N          -4.2929   -2.7280   -0.0545 N.pl3   1  UNL1       -0.3101
     18 C          -4.4162   -3.5530   -1.2245 C.3     1  UNL1        0.0370
     19 C          -5.5660   -4.5196   -0.9623 C.3     1  UNL1        0.0634
     20 O          -6.6956   -3.8301   -0.5446 O.3     1  UNL1       -0.3767
     21 C          -6.5558   -3.2791    0.7171 C.3     1  UNL1        0.0634
     22 C          -5.1184   -3.0338    1.0950 C.3     1  UNL1        0.0370
     23 N          -3.8050   -0.3618   -0.0187 N.ar    1  UNL1       -0.2118
     24 C          -2.9780    0.6932   -0.0350 C.ar    1  UNL1        0.1641
     25 C          -3.4674    2.0654    0.0083 C.ar    1  UNL1        0.0194
     26 C          -2.6087    3.1243   -0.0092 C.ar    1  UNL1       -0.0493
     27 C          -3.1361    4.4031    0.0341 C.ar    1  UNL1       -0.0404
     28 C          -4.5044    4.5847    0.0935 C.ar    1  UNL1        0.0246
     29 N          -5.0216    5.8880    0.1368 N.pl3   1  UNL1       -0.3580
     30 C          -5.3654    3.5173    0.1110 C.ar    1  UNL1       -0.0404
     31 C          -4.8308    2.2572    0.0677 C.ar    1  UNL1       -0.0493
     32 N          -1.6384    0.4622   -0.0941 N.ar    1  UNL1       -0.2080
     33 C          -1.1320   -0.7687   -0.1355 C.ar    1  UNL1        0.1642
     34 C           1.1077    0.9856   -0.3460 C.3     1  UNL1       -0.0144
     35 C           2.4205    1.7215   -0.5030 C.3     1  UNL1        0.0197
     36 H           7.2755   -1.2854    1.2561 H       1  UNL1        0.0268
     37 H           8.3960    0.0725    1.6383 H       1  UNL1        0.0268
     38 H           8.7791   -1.0806    0.2951 H       1  UNL1        0.0268
     39 H           8.3259   -0.5164   -1.7498 H       1  UNL1        0.0268
     40 H           6.7528    0.2080   -2.3007 H       1  UNL1        0.0268
     41 H           6.7953   -1.3576   -1.4167 H       1  UNL1        0.0268
     42 H           8.9026    1.5361    0.0037 H       1  UNL1        0.0268
     43 H           7.7738    2.0885   -1.2536 H       1  UNL1        0.0268
     44 H           7.4252    2.3837    0.5167 H       1  UNL1        0.0268
     45 H           2.6629    0.9307    2.1333 H       1  UNL1        0.0466
     46 H           4.0389   -0.2326    1.7568 H       1  UNL1        0.0466
     47 H           2.6613   -1.8093    0.9202 H       1  UNL1        0.0301
     48 H           1.4546   -0.9589    1.9056 H       1  UNL1        0.0301
     49 H           1.9478   -0.8169   -1.1250 H       1  UNL1        0.0546
     50 H          -1.5860   -3.9773   -0.1579 H       1  UNL1        0.0856
     51 H          -4.7115   -2.9042   -2.0779 H       1  UNL1        0.0487
     52 H          -3.5299   -4.1318   -1.4716 H       1  UNL1        0.0487
     53 H          -5.8050   -4.9845   -1.9407 H       1  UNL1        0.0575
     54 H          -5.2637   -5.3270   -0.2874 H       1  UNL1        0.0575
     55 H          -6.9609   -4.0178    1.4398 H       1  UNL1        0.0575
     56 H          -7.1729   -2.3761    0.7788 H       1  UNL1        0.0575
     57 H          -5.0961   -2.1418    1.7557 H       1  UNL1        0.0487
     58 H          -4.6908   -3.8670    1.6759 H       1  UNL1        0.0487
     59 H          -1.5230    2.9694   -0.0565 H       1  UNL1        0.0625
     60 H          -2.4396    5.2332    0.0194 H       1  UNL1        0.0636
     61 H          -4.5604    6.6812   -0.3529 H       1  UNL1        0.1423
     62 H          -5.8979    6.0597    0.6799 H       1  UNL1        0.1423
     63 H          -6.4526    3.6439    0.1579 H       1  UNL1        0.0636
     64 H          -5.5320    1.4232    0.0825 H       1  UNL1        0.0625
     65 H           0.6203    1.3179    0.5789 H       1  UNL1        0.0301
     66 H           0.4854    1.1856   -1.2185 H       1  UNL1        0.0301
     67 H           2.6454    1.8465   -1.5939 H       1  UNL1        0.0466
     68 H           2.2754    2.7426   -0.0892 H       1  UNL1        0.0466
@<TRIPOS>BOND
     1     1     2    1
     2     2     3    1
     3     2     4    1
     4     2     5    1
     5     5     6    1
     6     6     7    2
     7     6     8   am
     8     8     9    1
     9     9    10    1
    10    10    11    1
    11    11    12    1
    12    12    13   ar
    13    13    14   ar
    14    14    15   ar
    15    15    16   ar
    16    16    17    1
    17    17    18    1
    18    18    19    1
    19    19    20    1
    20    20    21    1
    21    21    22    1
    22    16    23   ar
    23    23    24   ar
    24    24    25    1
    25    25    26   ar
    26    26    27   ar
    27    27    28   ar
    28    28    29    1
    29    28    30   ar
    30    30    31   ar
    31    24    32   ar
    32    32    33   ar
    33    11    34    1
    34    34    35    1
    35    35     8    1
    36    33    12   ar
    37    33    15   ar
    38    22    17    1
    39    31    25   ar
    40     1    36    1
    41     1    37    1
    42     1    38    1
    43     3    39    1
    44     3    40    1
    45     3    41    1
    46     4    42    1
    47     4    43    1
    48     4    44    1
    49     9    45    1
    50     9    46    1
    51    10    47    1
    52    10    48    1
    53    11    49    1
    54    14    50    1
    55    18    51    1
    56    18    52    1
    57    19    53    1
    58    19    54    1
    59    21    55    1
    60    21    56    1
    61    22    57    1
    62    22    58    1
    63    26    59    1
    64    27    60    1
    65    29    61    1
    66    29    62    1
    67    30    63    1
    68    31    64    1
    69    34    65    1
    70    34    66    1
    71    35    67    1
    72    35    68    1
