@<TRIPOS>MOLECULE
*****
 65 69 0 0 0
SMALL
GASTEIGER

@<TRIPOS>ATOM
      1 C           3.5234   -0.6217   -1.1367 C.3     1  UNL1        0.1293
      2 C           4.8875   -0.6995   -1.8002 C.3     1  UNL1        0.0017
      3 C           6.0111   -0.5334   -0.8739 C.ar    1  UNL1       -0.0203
      4 C           6.7342   -1.6168   -0.3584 C.ar    1  UNL1        0.0060
      5 N           7.6938   -1.1713    0.4832 N.ar    1  UNL1       -0.3604
      6 C           7.6584    0.1576    0.5642 C.ar    1  UNL1        0.0467
      7 C           8.3536    1.1595    1.2247 C.ar    1  UNL1       -0.0378
      8 C           8.0634    2.5111    1.0871 C.ar    1  UNL1       -0.0598
      9 C           7.0156    2.8658    0.2370 C.ar    1  UNL1       -0.0611
     10 C           6.3308    1.8764   -0.4135 C.ar    1  UNL1       -0.0523
     11 C           6.6207    0.5446   -0.2736 C.ar    1  UNL1        0.0029
     12 N           3.3757    0.6471   -0.5159 N.3     1  UNL1       -0.1758
     13 S           2.0244    1.5619   -1.0298 S.O2    1  UNL1        0.0591
     14 O           1.9821    2.8711   -0.3082 O.2     1  UNL1       -0.1530
     15 O           2.0798    1.8500   -2.5081 O.2     1  UNL1       -0.1530
     16 C           0.5742    0.6938   -0.6533 C.ar    1  UNL1        0.1054
     17 C          -0.0025    0.8675    0.5876 C.ar    1  UNL1       -0.0336
     18 C          -1.1742    0.2263    0.9990 C.ar    1  UNL1       -0.0388
     19 C          -1.8144   -0.6351    0.1392 C.ar    1  UNL1        0.0298
     20 C          -1.2585   -0.8256   -1.1052 C.ar    1  UNL1       -0.0388
     21 C          -0.0999   -0.1781   -1.4829 C.ar    1  UNL1       -0.0336
     22 N          -3.0076   -1.2994    0.5259 N.pl3   1  UNL1       -0.3298
     23 C          -3.6360   -1.2556    1.8049 C.3     1  UNL1        0.0127
     24 C          -5.0374   -0.6939    1.7598 C.3     1  UNL1       -0.0303
     25 C          -5.8322   -1.0999    0.5655 C.3     1  UNL1       -0.0130
     26 C          -5.0469   -1.3163   -0.6854 C.3     1  UNL1       -0.0303
     27 C          -3.8147   -2.1429   -0.3292 C.3     1  UNL1        0.0127
     28 C          -6.7988    0.0025    0.2865 C.ar    1  UNL1       -0.0442
     29 C          -6.1313    1.1831   -0.0332 C.ar    1  UNL1       -0.0583
     30 C          -6.8522    2.3301   -0.3265 C.ar    1  UNL1       -0.0615
     31 C          -8.2381    2.2984   -0.3006 C.ar    1  UNL1       -0.0617
     32 C          -8.8957    1.1119    0.0207 C.ar    1  UNL1       -0.0615
     33 C          -8.1572   -0.0129    0.3078 C.ar    1  UNL1       -0.0583
     34 C           3.4389   -1.6602   -0.0517 C.2     1  UNL1        0.3239
     35 O           3.3518   -2.5527    0.9922 O.3     1  UNL1       -0.4795
     36 O           3.5728   -2.7907   -0.6155 O.2     1  UNL1       -0.2492
     37 H           2.7179   -0.8306   -1.8803 H       1  UNL1        0.0596
     38 H           4.9684   -1.6807   -2.3378 H       1  UNL1        0.0335
     39 H           4.9740    0.0786   -2.5934 H       1  UNL1        0.0335
     40 H           6.5808   -2.6768   -0.5759 H       1  UNL1        0.0810
     41 H           8.3794   -1.7531    1.0092 H       1  UNL1        0.1653
     42 H           9.1736    0.8632    1.8886 H       1  UNL1        0.0638
     43 H           8.6320    3.2725    1.6236 H       1  UNL1        0.0618
     44 H           6.7794    3.9210    0.1218 H       1  UNL1        0.0618
     45 H           5.5545    2.2188   -1.0490 H       1  UNL1        0.0624
     46 H           3.5696    0.7119    0.4881 H       1  UNL1        0.1489
     47 H           0.4894    1.5506    1.2940 H       1  UNL1        0.0638
     48 H          -1.5137    0.4522    1.9889 H       1  UNL1        0.0637
     49 H          -1.6662   -1.4709   -1.8576 H       1  UNL1        0.0637
     50 H           0.3478   -0.3272   -2.4749 H       1  UNL1        0.0638
     51 H          -3.0830   -0.6579    2.5522 H       1  UNL1        0.0464
     52 H          -3.7415   -2.3075    2.1938 H       1  UNL1        0.0464
     53 H          -4.9537    0.4062    1.8050 H       1  UNL1        0.0286
     54 H          -5.5637   -1.0467    2.6716 H       1  UNL1        0.0286
     55 H          -6.4133   -2.0437    0.7782 H       1  UNL1        0.0350
     56 H          -5.6597   -1.9200   -1.3887 H       1  UNL1        0.0286
     57 H          -4.6697   -0.3830   -1.1372 H       1  UNL1        0.0286
     58 H          -3.3483   -2.4014   -1.2883 H       1  UNL1        0.0464
     59 H          -4.0755   -3.1066    0.1593 H       1  UNL1        0.0464
     60 H          -5.0675    1.3860   -0.1004 H       1  UNL1        0.0620
     61 H          -6.4510    3.2966   -0.5867 H       1  UNL1        0.0618
     62 H          -8.8731    3.1666   -0.5214 H       1  UNL1        0.0618
     63 H          -9.9650    1.0464    0.0521 H       1  UNL1        0.0618
     64 H          -8.5650   -0.9835    0.5694 H       1  UNL1        0.0620
     65 H           3.9488   -2.4338    1.8121 H       1  UNL1        0.2951
@<TRIPOS>BOND
     1     1     2    1
     2     2     3    1
     3     3     4   ar
     4     4     5   ar
     5     5     6   ar
     6     6     7   ar
     7     7     8   ar
     8     8     9   ar
     9     9    10   ar
    10    10    11   ar
    11     1    12    1
    12    12    13    1
    13    13    14    2
    14    13    15    2
    15    13    16    1
    16    16    17   ar
    17    17    18   ar
    18    18    19   ar
    19    19    20   ar
    20    20    21   ar
    21    19    22    1
    22    22    23    1
    23    23    24    1
    24    24    25    1
    25    25    26    1
    26    26    27    1
    27    25    28    1
    28    28    29   ar
    29    29    30   ar
    30    30    31   ar
    31    31    32   ar
    32    32    33   ar
    33     1    34    1
    34    34    35    1
    35    34    36    2
    36    11     3   ar
    37    21    16   ar
    38    27    22    1
    39    33    28   ar
    40    11     6   ar
    41     1    37    1
    42     2    38    1
    43     2    39    1
    44     4    40    1
    45     5    41    1
    46     7    42    1
    47     8    43    1
    48     9    44    1
    49    10    45    1
    50    12    46    1
    51    17    47    1
    52    18    48    1
    53    20    49    1
    54    21    50    1
    55    23    51    1
    56    23    52    1
    57    24    53    1
    58    24    54    1
    59    25    55    1
    60    26    56    1
    61    26    57    1
    62    27    58    1
    63    27    59    1
    64    29    60    1
    65    30    61    1
    66    31    62    1
    67    32    63    1
    68    33    64    1
    69    35    65    1
