@<TRIPOS>MOLECULE
*****
 58 60 0 0 0
SMALL
GASTEIGER

@<TRIPOS>ATOM
      1 C           9.2593    0.1240   -2.7335 C.3     1  UNL1        0.0789
      2 O           7.9933   -0.3169   -3.1917 O.3     1  UNL1       -0.4937
      3 C           6.9911   -0.5107   -2.2355 C.ar    1  UNL1        0.1384
      4 C           7.2017   -0.2890   -0.9024 C.ar    1  UNL1       -0.0178
      5 C           6.1996   -0.4881    0.0095 C.ar    1  UNL1       -0.0461
      6 C           4.9420   -0.9169   -0.3633 C.ar    1  UNL1        0.0383
      7 C           3.8888   -1.1223    0.6303 C.2     1  UNL1        0.2444
      8 O           2.7768   -1.5205    0.2049 O.2     1  UNL1       -0.2702
      9 N           4.0540   -0.9009    2.0144 N.am    1  UNL1       -0.3072
     10 C           3.0377   -1.0912    3.0246 C.3     1  UNL1        0.0372
     11 C           2.0554    0.0108    3.0602 C.ar    1  UNL1       -0.0296
     12 C           2.3066    1.1562    3.8092 C.ar    1  UNL1       -0.0570
     13 C           1.3739    2.1414    3.8278 C.ar    1  UNL1       -0.0607
     14 C           0.1856    2.0057    3.1081 C.ar    1  UNL1       -0.0496
     15 C          -0.0714    0.8772    2.3651 C.ar    1  UNL1        0.0373
     16 C          -1.3168    0.7713    1.6308 C.2     1  UNL1        0.2483
     17 O          -2.1617    1.7312    1.6915 O.2     1  UNL1       -0.2699
     18 N          -1.7139   -0.3160    0.8258 N.am    1  UNL1       -0.2815
     19 C          -2.9656   -0.3544    0.1251 C.ar    1  UNL1        0.0337
     20 C          -3.1355    0.1178   -1.1436 C.ar    1  UNL1       -0.0402
     21 C          -4.4050    0.0166   -1.7079 C.ar    1  UNL1       -0.0556
     22 C          -5.4691   -0.5390   -1.0246 C.ar    1  UNL1       -0.0333
     23 C          -6.8221   -0.6533   -1.6130 C.3     1  UNL1        0.0235
     24 N          -7.6324    0.5059   -1.3379 N.3     1  UNL1       -0.3042
     25 C          -7.0850    1.7297   -1.8524 C.3     1  UNL1       -0.0127
     26 C          -8.9848    0.3093   -1.7777 C.3     1  UNL1       -0.0127
     27 C          -5.2832   -1.0192    0.2741 C.ar    1  UNL1       -0.0556
     28 C          -4.0251   -0.9160    0.8260 C.ar    1  UNL1       -0.0402
     29 C           0.8769   -0.1057    2.3564 C.ar    1  UNL1       -0.0449
     30 C           4.7034   -1.1488   -1.7108 C.ar    1  UNL1       -0.0277
     31 C           5.7261   -0.9408   -2.6009 C.ar    1  UNL1        0.0832
     32 CL          5.4734   -1.2199   -4.3161 Cl      1  UNL1       -0.0797
     33 H           9.9403    0.1022   -3.6061 H       1  UNL1        0.0660
     34 H           9.1561    1.1329   -2.2931 H       1  UNL1        0.0660
     35 H           9.6859   -0.5972   -1.9798 H       1  UNL1        0.0660
     36 H           8.1680    0.0451   -0.5776 H       1  UNL1        0.0655
     37 H           6.4660   -0.2830    1.0583 H       1  UNL1        0.0626
     38 H           4.9955   -0.5632    2.3689 H       1  UNL1        0.1493
     39 H           2.5189   -2.0741    2.9038 H       1  UNL1        0.0512
     40 H           3.5426   -1.1792    4.0219 H       1  UNL1        0.0512
     41 H           3.2304    1.2409    4.3577 H       1  UNL1        0.0621
     42 H           1.5889    3.0315    4.4206 H       1  UNL1        0.0618
     43 H          -0.5021    2.8387    3.1790 H       1  UNL1        0.0625
     44 H          -1.0679   -1.1276    0.7368 H       1  UNL1        0.1551
     45 H          -2.3075    0.5444   -1.6609 H       1  UNL1        0.0636
     46 H          -4.5629    0.3862   -2.7163 H       1  UNL1        0.0621
     47 H          -6.7825   -0.8358   -2.7148 H       1  UNL1        0.0475
     48 H          -7.3659   -1.5327   -1.1935 H       1  UNL1        0.0475
     49 H          -7.2203    1.8511   -2.9465 H       1  UNL1        0.0391
     50 H          -6.0469    1.8759   -1.5393 H       1  UNL1        0.0391
     51 H          -7.6840    2.5646   -1.3900 H       1  UNL1        0.0391
     52 H          -9.6553    0.4409   -0.9035 H       1  UNL1        0.0391
     53 H          -9.0930   -0.7421   -2.1452 H       1  UNL1        0.0391
     54 H          -9.3042    0.9742   -2.5858 H       1  UNL1        0.0391
     55 H          -6.1337   -1.4510    0.7900 H       1  UNL1        0.0621
     56 H          -3.9096   -1.2956    1.8324 H       1  UNL1        0.0636
     57 H           0.6519   -0.9859    1.7738 H       1  UNL1        0.0628
     58 H           3.7172   -1.4886   -2.0352 H       1  UNL1        0.0641
@<TRIPOS>BOND
     1     1     2    1
     2     2     3    1
     3     3     4   ar
     4     4     5   ar
     5     5     6   ar
     6     6     7    1
     7     7     8    2
     8     7     9   am
     9     9    10    1
    10    10    11    1
    11    11    12   ar
    12    12    13   ar
    13    13    14   ar
    14    14    15   ar
    15    15    16    1
    16    16    17    2
    17    16    18   am
    18    18    19    1
    19    19    20   ar
    20    20    21   ar
    21    21    22   ar
    22    22    23    1
    23    23    24    1
    24    24    25    1
    25    24    26    1
    26    22    27   ar
    27    27    28   ar
    28    15    29   ar
    29     6    30   ar
    30    30    31   ar
    31    31    32    1
    32    31     3   ar
    33    29    11   ar
    34    28    19   ar
    35     1    33    1
    36     1    34    1
    37     1    35    1
    38     4    36    1
    39     5    37    1
    40     9    38    1
    41    10    39    1
    42    10    40    1
    43    12    41    1
    44    13    42    1
    45    14    43    1
    46    18    44    1
    47    20    45    1
    48    21    46    1
    49    23    47    1
    50    23    48    1
    51    25    49    1
    52    25    50    1
    53    25    51    1
    54    26    52    1
    55    26    53    1
    56    26    54    1
    57    27    55    1
    58    28    56    1
    59    29    57    1
    60    30    58    1
