@<TRIPOS>MOLECULE
*****
 52 55 0 0 0
SMALL
GASTEIGER

@<TRIPOS>ATOM
      1 C          -3.8249   -3.5240    1.8700 C.3     1  UNL1        0.0029
      2 N          -3.7299   -4.1824    0.5910 N.am    1  UNL1       -0.3064
      3 C          -4.4873   -5.4129    0.4066 C.3     1  UNL1        0.0029
      4 C          -2.9247   -3.6284   -0.4171 C.2     1  UNL1        0.2319
      5 O          -2.8636   -4.2358   -1.5132 O.2     1  UNL1       -0.2741
      6 C          -2.1425   -2.3718   -0.2659 C.3     1  UNL1        0.1054
      7 C          -2.7891   -1.0853   -0.0304 C.3     1  UNL1       -0.0220
      8 C          -2.2399   -1.4234   -1.3675 C.3     1  UNL1        0.0135
      9 C          -1.0457   -0.7454   -1.9176 C.3     1  UNL1        0.0950
     10 C          -1.2273   -0.6513   -3.4638 C.3     1  UNL1       -0.0351
     11 C          -0.9769    0.6877   -1.4937 C.ar    1  UNL1        0.0349
     12 C           0.2107    1.1957   -1.0541 C.ar    1  UNL1       -0.0433
     13 C           0.3267    2.5290   -0.6564 C.ar    1  UNL1       -0.0036
     14 C           1.5508    3.1434   -0.1735 C.2     1  UNL1       -0.0157
     15 C           2.3704    2.4894    0.6582 C.2     1  UNL1        0.1492
     16 F           1.9918    1.2533    1.0065 F       1  UNL1       -0.2032
     17 C           3.5771    3.1534    1.1089 C.ar    1  UNL1        0.0990
     18 C           4.4876    2.6041    1.9815 C.ar    1  UNL1       -0.0322
     19 C           5.6363    3.2793    2.3959 C.ar    1  UNL1       -0.0408
     20 C           5.8851    4.5373    1.9269 C.ar    1  UNL1        0.0699
     21 C           7.0418    5.3079    2.3099 C.1     1  UNL1        0.1007
     22 N           7.9890    5.9198    2.6339 N.1     1  UNL1       -0.1908
     23 C           4.9576    5.0821    1.0451 C.ar    1  UNL1        0.0457
     24 N           3.8627    4.4137    0.6631 N.ar    1  UNL1       -0.2514
     25 C          -0.8141    3.3052   -0.7284 C.ar    1  UNL1        0.0379
     26 N          -1.9724    2.7642   -1.1694 N.ar    1  UNL1       -0.2267
     27 C          -2.0863    1.4803   -1.5537 C.ar    1  UNL1        0.2187
     28 F          -3.2976    1.0524   -1.9843 F       1  UNL1       -0.1835
     29 N           0.2301   -1.3455   -1.7652 N.2     1  UNL1       -0.2520
     30 C           0.6338   -2.1057   -0.8617 C.2     1  UNL1        0.1485
     31 N           1.9485   -2.6307   -0.8437 N.pl3   1  UNL1       -0.3380
     32 S          -0.4806   -2.5683    0.4508 S.3     1  UNL1       -0.0746
     33 H          -3.3587   -4.1358    2.6866 H       1  UNL1        0.0428
     34 H          -4.8970   -3.4331    2.1481 H       1  UNL1        0.0428
     35 H          -3.2786   -2.5877    1.8461 H       1  UNL1        0.0428
     36 H          -3.7977   -6.2843    0.6002 H       1  UNL1        0.0428
     37 H          -4.9048   -5.4804   -0.6176 H       1  UNL1        0.0428
     38 H          -5.2788   -5.4462    1.1754 H       1  UNL1        0.0428
     39 H          -2.2695   -0.3514    0.6302 H       1  UNL1        0.0287
     40 H          -3.8872   -1.0533    0.1094 H       1  UNL1        0.0287
     41 H          -3.0621   -1.5947   -2.1344 H       1  UNL1        0.0346
     42 H          -1.0007    0.3674   -3.7477 H       1  UNL1        0.0256
     43 H          -2.2897   -0.8495   -3.7140 H       1  UNL1        0.0256
     44 H          -0.6165   -1.4194   -3.9451 H       1  UNL1        0.0256
     45 H           1.1286    0.6228   -0.9867 H       1  UNL1        0.0629
     46 H           1.8307    4.1411   -0.4721 H       1  UNL1        0.0653
     47 H           4.2852    1.6065    2.3480 H       1  UNL1        0.0640
     48 H           6.3232    2.8107    3.0835 H       1  UNL1        0.0631
     49 H           5.1846    6.0938    0.6875 H       1  UNL1        0.0843
     50 H          -0.7631    4.3634   -0.4238 H       1  UNL1        0.0836
     51 H           2.3307   -2.8982   -1.8023 H       1  UNL1        0.1442
     52 H           2.5243   -2.7592    0.0124 H       1  UNL1        0.1442
@<TRIPOS>BOND
     1     1     2    1
     2     2     3    1
     3     2     4   am
     4     4     5    2
     5     6     4    1
     6     6     7    1
     7     7     8    1
     8     8     9    1
     9     9    10    1
    10     9    11    1
    11    11    12   ar
    12    12    13   ar
    13    13    14    1
    14    14    15    2
    15    15    16    1
    16    15    17    1
    17    17    18   ar
    18    18    19   ar
    19    19    20   ar
    20    20    21    1
    21    21    22    3
    22    20    23   ar
    23    23    24   ar
    24    13    25   ar
    25    25    26   ar
    26    26    27   ar
    27    27    28    1
    28     9    29    1
    29    29    30    2
    30    30    31    1
    31    30    32    1
    32     8     6    1
    33    27    11   ar
    34    32     6    1
    35    24    17   ar
    36     1    33    1
    37     1    34    1
    38     1    35    1
    39     3    36    1
    40     3    37    1
    41     3    38    1
    42     7    39    1
    43     7    40    1
    44     8    41    1
    45    10    42    1
    46    10    43    1
    47    10    44    1
    48    12    45    1
    49    14    46    1
    50    18    47    1
    51    19    48    1
    52    23    49    1
    53    25    50    1
    54    31    51    1
    55    31    52    1
