
     RDKit          3D

 54 57  0  0  0  0  0  0  0  0999 V2000
   -5.3810   -3.1193   -0.0483 C   0  0  0  0  0  0  0  0  0  0  0  0
   -4.7543   -1.9546    0.6862 C   0  0  0  0  0  0  0  0  0  0  0  0
   -5.8607   -1.2639    1.4486 C   0  0  0  0  0  0  0  0  0  0  0  0
   -3.8758   -2.4965    1.6262 O   0  0  0  0  0  0  0  0  0  0  0  0
   -4.0498   -1.0332   -0.2397 C   0  0  0  0  0  0  0  0  0  0  0  0
   -4.7248   -0.4758   -1.1342 O   0  0  0  0  0  0  0  0  0  0  0  0
   -2.6271   -0.8183   -0.0738 C   0  0  0  0  0  0  0  0  0  0  0  0
   -1.8259   -1.3461    0.8231 O   0  0  0  0  0  0  0  0  0  0  0  0
   -0.5845   -0.9045    0.6530 C   0  0  0  0  0  0  0  0  0  0  0  0
    0.5435   -1.1774    1.3335 N   0  0  0  0  0  0  0  0  0  0  0  0
    1.7162   -0.5756    0.9440 C   0  0  0  0  0  0  0  0  0  0  0  0
    2.9529   -0.8307    1.6401 C   0  0  0  0  0  0  0  0  0  0  0  0
    3.4523    0.1000    2.5108 C   0  0  0  0  0  0  0  0  0  0  0  0
    4.6384   -0.0951    3.1967 C   0  0  0  0  0  0  0  0  0  0  0  0
    5.3284   -1.2716    2.9854 C   0  0  0  0  0  0  0  0  0  0  0  0
    4.8606   -2.2338    2.1183 C   0  0  0  0  0  0  0  0  0  0  0  0
    3.6566   -1.9920    1.4469 C   0  0  0  0  0  0  0  0  0  0  0  0
    3.1035   -3.2435    0.3564 Cl  0  0  0  0  0  0  0  0  0  0  0  0
    1.7285    0.2902   -0.1249 C   0  0  0  0  0  0  0  0  0  0  0  0
    2.9712    0.9118   -0.5234 C   0  0  0  0  0  0  0  0  0  0  0  0
    3.4596    2.0423    0.0422 C   0  0  0  0  0  0  0  0  0  0  0  0
    4.6589    2.6109   -0.3627 C   0  0  0  0  0  0  0  0  0  0  0  0
    5.3902    2.0196   -1.3721 C   0  0  0  0  0  0  0  0  0  0  0  0
    6.9232    2.6991   -1.9281 Cl  0  0  0  0  0  0  0  0  0  0  0  0
    4.9140    0.8669   -1.9647 C   0  0  0  0  0  0  0  0  0  0  0  0
    3.7100    0.3077   -1.5488 C   0  0  0  0  0  0  0  0  0  0  0  0
    0.5854    0.5815   -0.8327 C   0  0  0  0  0  0  0  0  0  0  0  0
   -0.5802   -0.0320   -0.4264 C   0  0  0  0  0  0  0  0  0  0  0  0
   -1.8861    0.0169   -0.8835 C   0  0  0  0  0  0  0  0  0  0  0  0
   -2.3099    0.8045   -1.9883 N   0  0  0  0  0  0  0  0  0  0  0  0
   -2.7635    2.1435   -1.8731 C   0  0  0  0  0  0  0  0  0  0  0  0
   -2.7810    2.6361   -0.7137 O   0  0  0  0  0  0  0  0  0  0  0  0
   -3.2022    2.9538   -3.0334 C   0  0  0  0  0  0  0  0  0  0  0  0
   -3.5855    4.2147   -2.5979 O   0  0  0  0  0  0  0  0  0  0  0  0
   -6.1716   -2.7336   -0.7305 H   0  0  0  0  0  0  0  0  0  0  0  0
   -4.6375   -3.7091   -0.6178 H   0  0  0  0  0  0  0  0  0  0  0  0
   -5.8584   -3.7769    0.6804 H   0  0  0  0  0  0  0  0  0  0  0  0
   -5.6188   -0.2118    1.6928 H   0  0  0  0  0  0  0  0  0  0  0  0
   -6.7869   -1.3376    0.8121 H   0  0  0  0  0  0  0  0  0  0  0  0
   -6.0575   -1.8613    2.3639 H   0  0  0  0  0  0  0  0  0  0  0  0
   -3.7385   -1.8834    2.3799 H   0  0  0  0  0  0  0  0  0  0  0  0
    2.9099    1.0167    2.6809 H   0  0  0  0  0  0  0  0  0  0  0  0
    4.9615    0.6878    3.8635 H   0  0  0  0  0  0  0  0  0  0  0  0
    6.2559   -1.3938    3.5391 H   0  0  0  0  0  0  0  0  0  0  0  0
    5.4416   -3.1301    1.9947 H   0  0  0  0  0  0  0  0  0  0  0  0
    2.8979    2.5189    0.8308 H   0  0  0  0  0  0  0  0  0  0  0  0
    5.0285    3.5106    0.1017 H   0  0  0  0  0  0  0  0  0  0  0  0
    5.5029    0.4333   -2.7430 H   0  0  0  0  0  0  0  0  0  0  0  0
    3.3518   -0.5978   -2.0259 H   0  0  0  0  0  0  0  0  0  0  0  0
    0.5925    1.2493   -1.6576 H   0  0  0  0  0  0  0  0  0  0  0  0
   -2.2925    0.3829   -2.9610 H   0  0  0  0  0  0  0  0  0  0  0  0
   -2.3974    3.0819   -3.7786 H   0  0  0  0  0  0  0  0  0  0  0  0
   -4.0838    2.4913   -3.5094 H   0  0  0  0  0  0  0  0  0  0  0  0
   -3.1008    4.9273   -3.0581 H   0  0  0  0  0  0  0  0  0  0  0  0
  1  2  1  0
  2  3  1  0
  2  4  1  0
  2  5  1  0
  5  6  2  0
  5  7  1  0
  7  8  1  0
  8  9  1  0
  9 10  2  0
 10 11  1  0
 11 12  1  0
 12 13  2  0
 13 14  1  0
 14 15  2  0
 15 16  1  0
 16 17  2  0
 17 18  1  0
 11 19  2  0
 19 20  1  0
 20 21  2  0
 21 22  1  0
 22 23  2  0
 23 24  1  0
 23 25  1  0
 25 26  2  0
 19 27  1  0
 27 28  2  0
 28 29  1  0
 29 30  1  0
 30 31  1  0
 31 32  2  0
 31 33  1  0
 33 34  1  0
 29  7  2  0
 28  9  1  0
 17 12  1  0
 26 20  1  0
  1 35  1  0
  1 36  1  0
  1 37  1  0
  3 38  1  0
  3 39  1  0
  3 40  1  0
  4 41  1  0
 13 42  1  0
 14 43  1  0
 15 44  1  0
 16 45  1  0
 21 46  1  0
 22 47  1  0
 25 48  1  0
 26 49  1  0
 27 50  1  0
 30 51  1  0
 33 52  1  0
 33 53  1  0
 34 54  1  0
M  END
$$$$
