@<TRIPOS>MOLECULE
*****
 54 57 0 0 0
SMALL
GASTEIGER

@<TRIPOS>ATOM
      1 C          -5.3810   -3.1193   -0.0483 C.3     1  UNL1       -0.0289
      2 C          -4.7543   -1.9546    0.6862 C.3     1  UNL1        0.1257
      3 C          -5.8607   -1.2639    1.4486 C.3     1  UNL1       -0.0289
      4 O          -3.8758   -2.4965    1.6262 O.3     1  UNL1       -0.3811
      5 C          -4.0498   -1.0332   -0.2397 C.2     1  UNL1        0.2305
      6 O          -4.7248   -0.4758   -1.1342 O.2     1  UNL1       -0.2856
      7 C          -2.6271   -0.8183   -0.0738 C.ar    1  UNL1        0.1972
      8 O          -1.8259   -1.3461    0.8231 O.2     1  UNL1       -0.4318
      9 C          -0.5845   -0.9045    0.6530 C.ar    1  UNL1        0.2304
     10 N           0.5435   -1.1774    1.3335 N.ar    1  UNL1       -0.2114
     11 C           1.7162   -0.5756    0.9440 C.ar    1  UNL1        0.0839
     12 C           2.9529   -0.8307    1.6401 C.ar    1  UNL1        0.0194
     13 C           3.4523    0.1000    2.5108 C.ar    1  UNL1       -0.0511
     14 C           4.6384   -0.0951    3.1967 C.ar    1  UNL1       -0.0611
     15 C           5.3284   -1.2716    2.9854 C.ar    1  UNL1       -0.0603
     16 C           4.8606   -2.2338    2.1183 C.ar    1  UNL1       -0.0427
     17 C           3.6566   -1.9920    1.4469 C.ar    1  UNL1        0.0501
     18 CL          3.1035   -3.2435    0.3564 Cl      1  UNL1       -0.0829
     19 C           1.7285    0.2902   -0.1249 C.ar    1  UNL1        0.0090
     20 C           2.9712    0.9118   -0.5234 C.ar    1  UNL1       -0.0157
     21 C           3.4596    2.0423    0.0422 C.ar    1  UNL1       -0.0526
     22 C           4.6589    2.6109   -0.3627 C.ar    1  UNL1       -0.0428
     23 C           5.3902    2.0196   -1.3721 C.ar    1  UNL1        0.0410
     24 CL          6.9232    2.6991   -1.9281 Cl      1  UNL1       -0.0835
     25 C           4.9140    0.8669   -1.9647 C.ar    1  UNL1       -0.0428
     26 C           3.7100    0.3077   -1.5488 C.ar    1  UNL1       -0.0526
     27 C           0.5854    0.5815   -0.8327 C.ar    1  UNL1       -0.0378
     28 C          -0.5802   -0.0320   -0.4264 C.ar    1  UNL1        0.0624
     29 C          -1.8861    0.0169   -0.8835 C.ar    1  UNL1        0.0923
     30 N          -2.3099    0.8045   -1.9883 N.am    1  UNL1       -0.2800
     31 C          -2.7635    2.1435   -1.8731 C.2     1  UNL1        0.2428
     32 O          -2.7810    2.6361   -0.7137 O.2     1  UNL1       -0.2730
     33 C          -3.2022    2.9538   -3.0334 C.3     1  UNL1        0.1205
     34 O          -3.5855    4.2147   -2.5979 O.3     1  UNL1       -0.3858
     35 H          -6.1716   -2.7336   -0.7305 H       1  UNL1        0.0261
     36 H          -4.6375   -3.7091   -0.6178 H       1  UNL1        0.0261
     37 H          -5.8584   -3.7769    0.6804 H       1  UNL1        0.0261
     38 H          -5.6188   -0.2118    1.6928 H       1  UNL1        0.0261
     39 H          -6.7869   -1.3376    0.8121 H       1  UNL1        0.0261
     40 H          -6.0575   -1.8613    2.3639 H       1  UNL1        0.0261
     41 H          -3.7385   -1.8834    2.3799 H       1  UNL1        0.2107
     42 H           2.9099    1.0167    2.6809 H       1  UNL1        0.0625
     43 H           4.9615    0.6878    3.8635 H       1  UNL1        0.0618
     44 H           6.2559   -1.3938    3.5391 H       1  UNL1        0.0618
     45 H           5.4416   -3.1301    1.9947 H       1  UNL1        0.0632
     46 H           2.8979    2.5189    0.8308 H       1  UNL1        0.0624
     47 H           5.0285    3.5106    0.1017 H       1  UNL1        0.0632
     48 H           5.5029    0.4333   -2.7430 H       1  UNL1        0.0632
     49 H           3.3518   -0.5978   -2.0259 H       1  UNL1        0.0624
     50 H           0.5925    1.2493   -1.6576 H       1  UNL1        0.0632
     51 H          -2.2925    0.3829   -2.9610 H       1  UNL1        0.1550
     52 H          -2.3974    3.0819   -3.7786 H       1  UNL1        0.0654
     53 H          -4.0838    2.4913   -3.5094 H       1  UNL1        0.0654
     54 H          -3.1008    4.9273   -3.0581 H       1  UNL1        0.2100
@<TRIPOS>BOND
     1     1     2    1
     2     2     3    1
     3     2     4    1
     4     2     5    1
     5     5     6    2
     6     5     7    1
     7     7     8   ar
     8     8     9   ar
     9     9    10   ar
    10    10    11   ar
    11    11    12    1
    12    12    13   ar
    13    13    14   ar
    14    14    15   ar
    15    15    16   ar
    16    16    17   ar
    17    17    18    1
    18    11    19   ar
    19    19    20    1
    20    20    21   ar
    21    21    22   ar
    22    22    23   ar
    23    23    24    1
    24    23    25   ar
    25    25    26   ar
    26    19    27   ar
    27    27    28   ar
    28    28    29   ar
    29    29    30    1
    30    30    31   am
    31    31    32    2
    32    31    33    1
    33    33    34    1
    34    29     7   ar
    35    28     9   ar
    36    17    12   ar
    37    26    20   ar
    38     1    35    1
    39     1    36    1
    40     1    37    1
    41     3    38    1
    42     3    39    1
    43     3    40    1
    44     4    41    1
    45    13    42    1
    46    14    43    1
    47    15    44    1
    48    16    45    1
    49    21    46    1
    50    22    47    1
    51    25    48    1
    52    26    49    1
    53    27    50    1
    54    30    51    1
    55    33    52    1
    56    33    53    1
    57    34    54    1
