@<TRIPOS>MOLECULE
*****
 54 56 0 0 0
SMALL
GASTEIGER

@<TRIPOS>ATOM
      1 C           8.8462    0.4469    0.6254 C.3     1  UNL1       -0.0209
      2 C           7.3562    0.3254    0.5023 C.ar    1  UNL1        0.0566
      3 C           6.8589   -0.3297   -0.5978 C.ar    1  UNL1        0.0495
      4 N           5.5245   -0.4422   -0.7142 N.ar    1  UNL1       -0.2468
      5 C           4.6498    0.0530    0.1901 C.ar    1  UNL1        0.1465
      6 C           3.1997   -0.1169   -0.0182 C.2     1  UNL1        0.2683
      7 O           2.4413    0.3574    0.8458 O.2     1  UNL1       -0.2681
      8 N           2.6598   -0.7748   -1.1228 N.am    1  UNL1       -0.2802
      9 C           1.2977   -1.0059   -1.4418 C.ar    1  UNL1        0.0343
     10 C           0.9795   -1.6907   -2.6073 C.ar    1  UNL1       -0.0377
     11 C          -0.3044   -1.9440   -2.9694 C.ar    1  UNL1       -0.0243
     12 C          -1.3763   -1.5374   -2.2026 C.ar    1  UNL1        0.1311
     13 F          -2.6541   -1.8154   -2.6349 F       1  UNL1       -0.2050
     14 C          -1.1036   -0.8553   -1.0378 C.ar    1  UNL1        0.0420
     15 C          -2.2459   -0.4242   -0.1959 C.3     1  UNL1        0.1959
     16 C          -1.6542    0.3296    0.9857 C.3     1  UNL1       -0.0112
     17 C          -3.0871   -1.5811    0.2564 C.3     1  UNL1        0.1183
     18 S          -4.4685   -0.9132    1.1530 S.O2    1  UNL1       -0.0101
     19 O          -5.5100   -2.0269    1.1770 O.2     1  UNL1       -0.1731
     20 O          -4.1170   -0.6791    2.5985 O.2     1  UNL1       -0.1731
     21 C          -5.0134    0.5241    0.3403 C.3     1  UNL1        0.1831
     22 C          -5.1793    1.7063    1.2855 C.3     1  UNL1       -0.0288
     23 C          -6.4692    0.2254   -0.0992 C.3     1  UNL1       -0.0288
     24 C          -4.2192    0.8555   -0.8331 C.2     1  UNL1        0.3067
     25 N          -4.8571    1.7295   -1.8177 N.pl3   1  UNL1       -0.2488
     26 N          -3.0515    0.4285   -1.0130 N.2     1  UNL1       -0.0727
     27 C           0.2198   -0.6066   -0.6867 C.ar    1  UNL1       -0.0301
     28 C           5.1740    0.7035    1.2807 C.ar    1  UNL1        0.0689
     29 C           4.2412    1.2559    2.2867 C.3     1  UNL1       -0.0201
     30 N           6.5278    0.8343    1.4276 N.ar    1  UNL1       -0.2533
     31 H           9.2441   -0.4484    1.1210 H       1  UNL1        0.0293
     32 H           9.1086    1.3356    1.2332 H       1  UNL1        0.0293
     33 H           9.2644    0.5046   -0.3849 H       1  UNL1        0.0293
     34 H           7.5510   -0.7323   -1.3320 H       1  UNL1        0.0848
     35 H           3.3764   -1.1508   -1.8147 H       1  UNL1        0.1552
     36 H           1.7802   -2.0254   -3.2337 H       1  UNL1        0.0637
     37 H          -0.5537   -2.4887   -3.8967 H       1  UNL1        0.0647
     38 H          -2.4498    0.7561    1.6324 H       1  UNL1        0.0279
     39 H          -1.0983    1.1918    0.5781 H       1  UNL1        0.0279
     40 H          -0.9997   -0.2645    1.6136 H       1  UNL1        0.0279
     41 H          -2.5593   -2.2537    0.9605 H       1  UNL1        0.0550
     42 H          -3.4919   -2.1043   -0.6023 H       1  UNL1        0.0550
     43 H          -4.2695    2.2866    1.4352 H       1  UNL1        0.0256
     44 H          -5.9302    2.3855    0.7986 H       1  UNL1        0.0256
     45 H          -5.5808    1.3208    2.2251 H       1  UNL1        0.0256
     46 H          -7.0315    1.1610   -0.2393 H       1  UNL1        0.0256
     47 H          -6.4831   -0.4168   -0.9891 H       1  UNL1        0.0256
     48 H          -6.9225   -0.3106    0.7602 H       1  UNL1        0.0256
     49 H          -4.4107    2.5565   -2.2100 H       1  UNL1        0.2881
     50 H          -5.8174    1.4562   -2.1057 H       1  UNL1        0.2881
     51 H           0.4181   -0.0659    0.2358 H       1  UNL1        0.0641
     52 H           3.6307    2.0649    1.8667 H       1  UNL1        0.0293
     53 H           3.6787    0.4551    2.8041 H       1  UNL1        0.0293
     54 H           4.8808    1.7547    3.0766 H       1  UNL1        0.0293
@<TRIPOS>BOND
     1     1     2    1
     2     2     3   ar
     3     3     4   ar
     4     4     5   ar
     5     5     6    1
     6     6     7    2
     7     6     8   am
     8     8     9    1
     9     9    10   ar
    10    10    11   ar
    11    11    12   ar
    12    12    13    1
    13    12    14   ar
    14    14    15    1
    15    15    16    1
    16    15    17    1
    17    17    18    1
    18    18    19    2
    19    18    20    2
    20    18    21    1
    21    21    22    1
    22    21    23    1
    23    21    24    1
    24    24    25    1
    25    24    26    2
    26    14    27   ar
    27     5    28   ar
    28    28    29    1
    29    28    30   ar
    30    30     2   ar
    31    27     9   ar
    32    26    15    1
    33     1    31    1
    34     1    32    1
    35     1    33    1
    36     3    34    1
    37     8    35    1
    38    10    36    1
    39    11    37    1
    40    16    38    1
    41    16    39    1
    42    16    40    1
    43    17    41    1
    44    17    42    1
    45    22    43    1
    46    22    44    1
    47    22    45    1
    48    23    46    1
    49    23    47    1
    50    23    48    1
    51    25    49    1
    52    25    50    1
    53    27    51    1
    54    29    52    1
    55    29    53    1
    56    29    54    1
