@<TRIPOS>MOLECULE
*****
 37 39 0 0 0
SMALL
GASTEIGER

@<TRIPOS>ATOM
      1 C          -2.9147   -2.7663   -0.9126 C.3     1  UNL1       -0.0155
      2 N          -2.7505   -2.0744    0.3015 N.3     1  UNL1       -0.3159
      3 C          -1.8868   -0.9580    0.3108 C.3     1  UNL1        0.0122
      4 C          -2.3100    0.1405   -0.6449 C.3     1  UNL1       -0.0119
      5 C          -1.5609    1.3340   -0.2022 C.ar    1  UNL1       -0.0421
      6 C          -2.2293    2.4900    0.0967 C.ar    1  UNL1       -0.0582
      7 C          -1.4758    3.5909    0.5210 C.ar    1  UNL1       -0.0615
      8 C          -0.0899    3.4551    0.6173 C.ar    1  UNL1       -0.0615
      9 C           0.5754    2.2847    0.3134 C.ar    1  UNL1       -0.0577
     10 C          -0.1905    1.2040   -0.1059 C.ar    1  UNL1       -0.0367
     11 C           0.3465   -0.1146   -0.4789 C.3     1  UNL1        0.0109
     12 C           1.7707   -0.2920   -0.2116 C.ar    1  UNL1       -0.0384
     13 C           2.1822   -0.5696    1.0695 C.ar    1  UNL1       -0.0565
     14 C           3.5123   -0.7587    1.4204 C.ar    1  UNL1       -0.0417
     15 C           4.4515   -0.6587    0.4193 C.ar    1  UNL1        0.0593
     16 CL          6.1557   -0.8937    0.8295 Cl      1  UNL1       -0.0820
     17 C           4.0645   -0.3816   -0.8703 C.ar    1  UNL1        0.0595
     18 CL          5.3082   -0.2682   -2.0931 Cl      1  UNL1       -0.0820
     19 C           2.7358   -0.1984   -1.1907 C.ar    1  UNL1       -0.0382
     20 C          -0.4417   -1.2860    0.0436 C.3     1  UNL1       -0.0264
     21 H          -3.3286   -2.0578   -1.6826 H       1  UNL1        0.0388
     22 H          -3.6845   -3.5537   -0.7824 H       1  UNL1        0.0388
     23 H          -2.0053   -3.2899   -1.2885 H       1  UNL1        0.0388
     24 H          -3.5006   -2.1078    0.9861 H       1  UNL1        0.1219
     25 H          -1.9125   -0.5261    1.3555 H       1  UNL1        0.0464
     26 H          -3.3989    0.2919   -0.6716 H       1  UNL1        0.0328
     27 H          -1.9062   -0.1191   -1.6667 H       1  UNL1        0.0328
     28 H          -3.2958    2.6152    0.0291 H       1  UNL1        0.0620
     29 H          -2.0121    4.4860    0.7505 H       1  UNL1        0.0618
     30 H           0.4724    4.3253    0.9495 H       1  UNL1        0.0618
     31 H           1.6390    2.1611    0.3812 H       1  UNL1        0.0621
     32 H           0.2539   -0.1329   -1.6187 H       1  UNL1        0.0398
     33 H           1.4940   -0.6576    1.9087 H       1  UNL1        0.0621
     34 H           3.8099   -0.9797    2.4541 H       1  UNL1        0.0633
     35 H           2.4790    0.0201   -2.2310 H       1  UNL1        0.0635
     36 H           0.0059   -1.6544    1.0077 H       1  UNL1        0.0289
     37 H          -0.3624   -2.0997   -0.7353 H       1  UNL1        0.0289
@<TRIPOS>BOND
     1     1     2    1
     2     2     3    1
     3     3     4    1
     4     4     5    1
     5     5     6   ar
     6     6     7   ar
     7     7     8   ar
     8     8     9   ar
     9     9    10   ar
    10    10    11    1
    11    11    12    1
    12    12    13   ar
    13    13    14   ar
    14    14    15   ar
    15    15    16    1
    16    15    17   ar
    17    17    18    1
    18    17    19   ar
    19    11    20    1
    20    20     3    1
    21    10     5   ar
    22    19    12   ar
    23     1    21    1
    24     1    22    1
    25     1    23    1
    26     2    24    1
    27     3    25    1
    28     4    26    1
    29     4    27    1
    30     6    28    1
    31     7    29    1
    32     8    30    1
    33     9    31    1
    34    11    32    1
    35    13    33    1
    36    14    34    1
    37    19    35    1
    38    20    36    1
    39    20    37    1
