@<TRIPOS>MOLECULE
*****
 54 58 0 0 0
SMALL
GASTEIGER

@<TRIPOS>ATOM
      1 O          -0.3816    0.0793    1.4544 O.2     1  UNL1       -0.2748
      2 C           0.0286    0.9699    0.6727 C.2     1  UNL1        0.2271
      3 C          -0.9643    1.8971    0.0842 C.3     1  UNL1        0.0826
      4 C          -2.3069    1.5706    0.5599 C.ar    1  UNL1        0.1206
      5 N          -3.1504    0.7175   -0.0343 N.ar    1  UNL1       -0.2186
      6 C          -4.3798    0.4346    0.4233 C.ar    1  UNL1        0.1285
      7 N          -5.2432   -0.4772   -0.2381 N.pl3   1  UNL1       -0.3106
      8 C          -4.8067   -1.1388   -1.4526 C.3     1  UNL1        0.0370
      9 C          -5.9571   -1.3748   -2.3794 C.3     1  UNL1        0.0634
     10 O          -7.0626   -1.9359   -1.7946 O.3     1  UNL1       -0.3767
     11 C          -7.0143   -2.0543   -0.4312 C.3     1  UNL1        0.0634
     12 C          -6.5499   -0.7713    0.2592 C.3     1  UNL1        0.0370
     13 C          -4.8194    1.0511    1.5762 C.ar    1  UNL1        0.0427
     14 C          -3.9617    1.9322    2.1994 C.ar    1  UNL1        0.2533
     15 O          -4.3580    2.5055    3.2628 O.2     1  UNL1       -0.2677
     16 N          -2.7595    2.1671    1.6942 N.ar    1  UNL1       -0.3104
     17 N           1.4245    1.0847    0.3587 N.am    1  UNL1       -0.2705
     18 C           2.0811    2.0240   -0.5015 C.3     1  UNL1        0.0239
     19 C           3.2710    1.2027   -1.0127 C.3     1  UNL1       -0.0091
     20 C           3.5763    0.2749    0.0916 C.ar    1  UNL1       -0.0167
     21 C           4.7004   -0.4589    0.3768 C.ar    1  UNL1       -0.0114
     22 C           5.9306   -0.4413   -0.4086 C.ar    1  UNL1        0.0005
     23 C           6.4694   -1.6685   -0.8172 C.ar    1  UNL1       -0.0511
     24 C           7.6318   -1.7318   -1.5470 C.ar    1  UNL1       -0.0430
     25 C           8.2688   -0.5531   -1.8756 C.ar    1  UNL1        0.0276
     26 N           7.7746    0.6318   -1.4971 N.ar    1  UNL1       -0.2627
     27 C           6.6235    0.6689   -0.7757 C.ar    1  UNL1        0.0353
     28 C           4.6502   -1.2695    1.5172 C.ar    1  UNL1       -0.0536
     29 C           3.5391   -1.3439    2.3294 C.ar    1  UNL1       -0.0594
     30 C           2.4323   -0.5894    2.0056 C.ar    1  UNL1       -0.0400
     31 C           2.4388    0.2216    0.8923 C.ar    1  UNL1        0.0401
     32 H          -0.8796    1.9300   -1.0214 H       1  UNL1        0.0438
     33 H          -0.6973    2.9334    0.4408 H       1  UNL1        0.0438
     34 H          -4.0466   -0.5444   -2.0066 H       1  UNL1        0.0487
     35 H          -4.4112   -2.1324   -1.1507 H       1  UNL1        0.0487
     36 H          -5.6191   -2.0402   -3.2088 H       1  UNL1        0.0575
     37 H          -6.2894   -0.4310   -2.8810 H       1  UNL1        0.0575
     38 H          -8.0661   -2.2184   -0.0725 H       1  UNL1        0.0575
     39 H          -6.3897   -2.8703   -0.0577 H       1  UNL1        0.0575
     40 H          -6.5526   -1.0163    1.3539 H       1  UNL1        0.0487
     41 H          -7.2736    0.0424    0.0653 H       1  UNL1        0.0487
     42 H          -5.8137    0.8532    1.9890 H       1  UNL1        0.0706
     43 H          -2.1390    2.8424    2.1972 H       1  UNL1        0.1700
     44 H           1.4707    2.3982   -1.3224 H       1  UNL1        0.0472
     45 H           2.5300    2.8328    0.1200 H       1  UNL1        0.0472
     46 H           2.9603    0.6599   -1.9289 H       1  UNL1        0.0329
     47 H           4.0900    1.8668   -1.3011 H       1  UNL1        0.0329
     48 H           5.9461   -2.5751   -0.5436 H       1  UNL1        0.0625
     49 H           8.0512   -2.6992   -1.8657 H       1  UNL1        0.0633
     50 H           9.1851   -0.6214   -2.4522 H       1  UNL1        0.0829
     51 H           6.2711    1.6387   -0.4863 H       1  UNL1        0.0836
     52 H           5.5142   -1.8595    1.7713 H       1  UNL1        0.0624
     53 H           3.4875   -1.9653    3.2121 H       1  UNL1        0.0618
     54 H           1.5460   -0.6492    2.6546 H       1  UNL1        0.0636
@<TRIPOS>BOND
     1     1     2    2
     2     2     3    1
     3     3     4    1
     4     4     5   ar
     5     5     6   ar
     6     6     7    1
     7     7     8    1
     8     8     9    1
     9     9    10    1
    10    10    11    1
    11    11    12    1
    12     6    13   ar
    13    13    14   ar
    14    14    15    2
    15    14    16   ar
    16     2    17   am
    17    17    18    1
    18    18    19    1
    19    19    20    1
    20    20    21   ar
    21    21    22    1
    22    22    23   ar
    23    23    24   ar
    24    24    25   ar
    25    25    26   ar
    26    26    27   ar
    27    21    28   ar
    28    28    29   ar
    29    29    30   ar
    30    30    31   ar
    31    16     4   ar
    32    31    17    1
    33    12     7    1
    34    31    20   ar
    35    27    22   ar
    36     3    32    1
    37     3    33    1
    38     8    34    1
    39     8    35    1
    40     9    36    1
    41     9    37    1
    42    11    38    1
    43    11    39    1
    44    12    40    1
    45    12    41    1
    46    13    42    1
    47    16    43    1
    48    18    44    1
    49    18    45    1
    50    19    46    1
    51    19    47    1
    52    23    48    1
    53    24    49    1
    54    25    50    1
    55    27    51    1
    56    28    52    1
    57    29    53    1
    58    30    54    1
