
     RDKit          3D

 54 58  0  0  0  0  0  0  0  0999 V2000
   -0.3816    0.0793    1.4544 O   0  0  0  0  0  0  0  0  0  0  0  0
    0.0286    0.9699    0.6727 C   0  0  0  0  0  0  0  0  0  0  0  0
   -0.9643    1.8971    0.0842 C   0  0  0  0  0  0  0  0  0  0  0  0
   -2.3069    1.5706    0.5599 C   0  0  0  0  0  0  0  0  0  0  0  0
   -3.1504    0.7175   -0.0343 N   0  0  0  0  0  0  0  0  0  0  0  0
   -4.3798    0.4346    0.4233 C   0  0  0  0  0  0  0  0  0  0  0  0
   -5.2432   -0.4772   -0.2381 N   0  0  0  0  0  0  0  0  0  0  0  0
   -4.8067   -1.1388   -1.4526 C   0  0  0  0  0  0  0  0  0  0  0  0
   -5.9571   -1.3748   -2.3794 C   0  0  0  0  0  0  0  0  0  0  0  0
   -7.0626   -1.9359   -1.7946 O   0  0  0  0  0  0  0  0  0  0  0  0
   -7.0143   -2.0543   -0.4312 C   0  0  0  0  0  0  0  0  0  0  0  0
   -6.5499   -0.7713    0.2592 C   0  0  0  0  0  0  0  0  0  0  0  0
   -4.8194    1.0511    1.5762 C   0  0  0  0  0  0  0  0  0  0  0  0
   -3.9617    1.9322    2.1994 C   0  0  0  0  0  0  0  0  0  0  0  0
   -4.3580    2.5055    3.2628 O   0  0  0  0  0  0  0  0  0  0  0  0
   -2.7595    2.1671    1.6942 N   0  0  0  0  0  0  0  0  0  0  0  0
    1.4245    1.0847    0.3587 N   0  0  0  0  0  0  0  0  0  0  0  0
    2.0811    2.0240   -0.5015 C   0  0  0  0  0  0  0  0  0  0  0  0
    3.2710    1.2027   -1.0127 C   0  0  0  0  0  0  0  0  0  0  0  0
    3.5763    0.2749    0.0916 C   0  0  0  0  0  0  0  0  0  0  0  0
    4.7004   -0.4589    0.3768 C   0  0  0  0  0  0  0  0  0  0  0  0
    5.9306   -0.4413   -0.4086 C   0  0  0  0  0  0  0  0  0  0  0  0
    6.4694   -1.6685   -0.8172 C   0  0  0  0  0  0  0  0  0  0  0  0
    7.6318   -1.7318   -1.5470 C   0  0  0  0  0  0  0  0  0  0  0  0
    8.2688   -0.5531   -1.8756 C   0  0  0  0  0  0  0  0  0  0  0  0
    7.7746    0.6318   -1.4971 N   0  0  0  0  0  0  0  0  0  0  0  0
    6.6235    0.6689   -0.7757 C   0  0  0  0  0  0  0  0  0  0  0  0
    4.6502   -1.2695    1.5172 C   0  0  0  0  0  0  0  0  0  0  0  0
    3.5391   -1.3439    2.3294 C   0  0  0  0  0  0  0  0  0  0  0  0
    2.4323   -0.5894    2.0056 C   0  0  0  0  0  0  0  0  0  0  0  0
    2.4388    0.2216    0.8923 C   0  0  0  0  0  0  0  0  0  0  0  0
   -0.8796    1.9300   -1.0214 H   0  0  0  0  0  0  0  0  0  0  0  0
   -0.6973    2.9334    0.4408 H   0  0  0  0  0  0  0  0  0  0  0  0
   -4.0466   -0.5444   -2.0066 H   0  0  0  0  0  0  0  0  0  0  0  0
   -4.4112   -2.1324   -1.1507 H   0  0  0  0  0  0  0  0  0  0  0  0
   -5.6191   -2.0402   -3.2088 H   0  0  0  0  0  0  0  0  0  0  0  0
   -6.2894   -0.4310   -2.8810 H   0  0  0  0  0  0  0  0  0  0  0  0
   -8.0661   -2.2184   -0.0725 H   0  0  0  0  0  0  0  0  0  0  0  0
   -6.3897   -2.8703   -0.0577 H   0  0  0  0  0  0  0  0  0  0  0  0
   -6.5526   -1.0163    1.3539 H   0  0  0  0  0  0  0  0  0  0  0  0
   -7.2736    0.0424    0.0653 H   0  0  0  0  0  0  0  0  0  0  0  0
   -5.8137    0.8532    1.9890 H   0  0  0  0  0  0  0  0  0  0  0  0
   -2.1390    2.8424    2.1972 H   0  0  0  0  0  0  0  0  0  0  0  0
    1.4707    2.3982   -1.3224 H   0  0  0  0  0  0  0  0  0  0  0  0
    2.5300    2.8328    0.1200 H   0  0  0  0  0  0  0  0  0  0  0  0
    2.9603    0.6599   -1.9289 H   0  0  0  0  0  0  0  0  0  0  0  0
    4.0900    1.8668   -1.3011 H   0  0  0  0  0  0  0  0  0  0  0  0
    5.9461   -2.5751   -0.5436 H   0  0  0  0  0  0  0  0  0  0  0  0
    8.0512   -2.6992   -1.8657 H   0  0  0  0  0  0  0  0  0  0  0  0
    9.1851   -0.6214   -2.4522 H   0  0  0  0  0  0  0  0  0  0  0  0
    6.2711    1.6387   -0.4863 H   0  0  0  0  0  0  0  0  0  0  0  0
    5.5142   -1.8595    1.7713 H   0  0  0  0  0  0  0  0  0  0  0  0
    3.4875   -1.9653    3.2121 H   0  0  0  0  0  0  0  0  0  0  0  0
    1.5460   -0.6492    2.6546 H   0  0  0  0  0  0  0  0  0  0  0  0
  1  2  2  0
  2  3  1  0
  3  4  1  0
  4  5  2  0
  5  6  1  0
  6  7  1  0
  7  8  1  0
  8  9  1  0
  9 10  1  0
 10 11  1  0
 11 12  1  0
  6 13  2  0
 13 14  1  0
 14 15  2  0
 14 16  1  0
  2 17  1  0
 17 18  1  0
 18 19  1  0
 19 20  1  0
 20 21  2  0
 21 22  1  0
 22 23  2  0
 23 24  1  0
 24 25  2  0
 25 26  1  0
 26 27  2  0
 21 28  1  0
 28 29  2  0
 29 30  1  0
 30 31  2  0
 16  4  1  0
 31 17  1  0
 12  7  1  0
 31 20  1  0
 27 22  1  0
  3 32  1  0
  3 33  1  0
  8 34  1  0
  8 35  1  0
  9 36  1  0
  9 37  1  0
 11 38  1  0
 11 39  1  0
 12 40  1  0
 12 41  1  0
 13 42  1  0
 16 43  1  0
 18 44  1  0
 18 45  1  0
 19 46  1  0
 19 47  1  0
 23 48  1  0
 24 49  1  0
 25 50  1  0
 27 51  1  0
 28 52  1  0
 29 53  1  0
 30 54  1  0
M  END
$$$$
