
     RDKit          3D

 78 85  0  0  0  0  0  0  0  0999 V2000
   -4.8193    0.5518    4.1470 C   0  0  0  0  0  0  0  0  0  0  0  0
   -5.9401    0.2367    3.3459 O   0  0  0  0  0  0  0  0  0  0  0  0
   -5.7537   -0.2536    2.0702 C   0  0  0  0  0  0  0  0  0  0  0  0
   -4.4909   -0.4473    1.5509 C   0  0  0  0  0  0  0  0  0  0  0  0
   -4.3248   -0.9370    0.2760 C   0  0  0  0  0  0  0  0  0  0  0  0
   -3.0020   -1.1665   -0.3179 C   0  0  0  0  0  0  0  0  0  0  0  0
   -2.3753    0.0175   -0.9320 C   0  0  0  0  0  0  0  0  0  0  0  0
   -3.1168    1.1088   -1.3163 C   0  0  0  0  0  0  0  0  0  0  0  0
   -2.5732    2.2337   -1.8987 C   0  0  0  0  0  0  0  0  0  0  0  0
   -1.2135    2.2592   -2.1036 C   0  0  0  0  0  0  0  0  0  0  0  0
   -0.4561    1.1678   -1.7215 C   0  0  0  0  0  0  0  0  0  0  0  0
   -1.0244    0.0342   -1.1317 C   0  0  0  0  0  0  0  0  0  0  0  0
   -0.0715   -1.0448   -0.7831 C   0  0  0  0  0  0  0  0  0  0  0  0
    0.8310   -0.5721    0.1344 O   0  0  0  0  0  0  0  0  0  0  0  0
    2.1463   -0.5480   -0.2055 C   0  0  0  0  0  0  0  0  0  0  0  0
    2.6298    0.7442   -0.1521 O   0  0  0  0  0  0  0  0  0  0  0  0
    3.7907    0.8251   -0.8916 C   0  0  0  0  0  0  0  0  0  0  0  0
    4.3081    2.2446   -1.0048 C   0  0  0  0  0  0  0  0  0  0  0  0
    5.5080    2.2868   -0.2992 O   0  0  0  0  0  0  0  0  0  0  0  0
    6.4794    1.4508   -0.8423 C   0  0  0  0  0  0  0  0  0  0  0  0
    7.6583    1.4995    0.0335 C   0  0  0  0  0  0  0  0  0  0  0  0
    8.3163    2.5625    0.6396 C   0  0  0  0  0  0  0  0  0  0  0  0
    9.3836    2.3281    1.4025 C   0  0  0  0  0  0  0  0  0  0  0  0
    9.8298    1.0655    1.5902 C   0  0  0  0  0  0  0  0  0  0  0  0
    8.6355    0.0822    0.5963 S   0  0  0  0  0  0  0  0  0  0  0  0
    6.0108    0.1213   -0.9481 O   0  0  0  0  0  0  0  0  0  0  0  0
    4.8652    0.0498   -0.1606 C   0  0  0  0  0  0  0  0  0  0  0  0
    4.4228   -1.3624   -0.0130 C   0  0  0  0  0  0  0  0  0  0  0  0
    4.4730   -2.1175   -1.1662 O   0  0  0  0  0  0  0  0  0  0  0  0
    3.0437   -1.4161    0.6352 C   0  0  0  0  0  0  0  0  0  0  0  0
    3.1935   -0.9455    1.9249 O   0  0  0  0  0  0  0  0  0  0  0  0
   -0.8610   -2.2232   -0.2904 C   0  0  0  0  0  0  0  0  0  0  0  0
   -0.1479   -3.1375    0.6234 C   0  0  0  0  0  0  0  0  0  0  0  0
   -1.1962   -3.7557    1.3504 O   0  0  0  0  0  0  0  0  0  0  0  0
   -2.3765   -3.0371    1.2114 C   0  0  0  0  0  0  0  0  0  0  0  0
   -3.5048   -3.4630    1.5453 O   0  0  0  0  0  0  0  0  0  0  0  0
   -1.9956   -1.7477    0.6182 C   0  0  0  0  0  0  0  0  0  0  0  0
   -0.8561    3.4802   -2.7021 O   0  0  0  0  0  0  0  0  0  0  0  0
   -2.0202    4.2454   -2.8636 C   0  0  0  0  0  0  0  0  0  0  0  0
   -3.0616    3.4470   -2.3741 O   0  0  0  0  0  0  0  0  0  0  0  0
   -5.4693   -1.2194   -0.4438 C   0  0  0  0  0  0  0  0  0  0  0  0
   -6.7426   -1.0486    0.0172 C   0  0  0  0  0  0  0  0  0  0  0  0
   -7.8843   -1.3421   -0.7288 O   0  0  0  0  0  0  0  0  0  0  0  0
   -7.7424   -1.8452   -2.0315 C   0  0  0  0  0  0  0  0  0  0  0  0
   -6.8828   -0.5501    1.3147 C   0  0  0  0  0  0  0  0  0  0  0  0
   -8.1519   -0.3588    1.8276 O   0  0  0  0  0  0  0  0  0  0  0  0
   -5.1353    1.2487    4.9570 H   0  0  0  0  0  0  0  0  0  0  0  0
   -4.1141    1.1518    3.5189 H   0  0  0  0  0  0  0  0  0  0  0  0
   -4.3817   -0.3668    4.5507 H   0  0  0  0  0  0  0  0  0  0  0  0
   -3.5887   -0.2263    2.1142 H   0  0  0  0  0  0  0  0  0  0  0  0
   -3.1210   -1.9111   -1.1519 H   0  0  0  0  0  0  0  0  0  0  0  0
   -4.2079    1.1441   -1.1777 H   0  0  0  0  0  0  0  0  0  0  0  0
    0.6042    1.2445   -1.9110 H   0  0  0  0  0  0  0  0  0  0  0  0
    0.3888   -1.3617   -1.7459 H   0  0  0  0  0  0  0  0  0  0  0  0
    2.2625   -0.9212   -1.2449 H   0  0  0  0  0  0  0  0  0  0  0  0
    3.6492    0.4016   -1.9212 H   0  0  0  0  0  0  0  0  0  0  0  0
    3.6399    2.9859   -0.5609 H   0  0  0  0  0  0  0  0  0  0  0  0
    4.4593    2.4990   -2.0669 H   0  0  0  0  0  0  0  0  0  0  0  0
    6.7848    1.7502   -1.8643 H   0  0  0  0  0  0  0  0  0  0  0  0
    7.9434    3.6320    0.4842 H   0  0  0  0  0  0  0  0  0  0  0  0
    9.9695    3.1545    1.9289 H   0  0  0  0  0  0  0  0  0  0  0  0
   10.6232    0.6266    2.1279 H   0  0  0  0  0  0  0  0  0  0  0  0
    5.0134    0.4822    0.8380 H   0  0  0  0  0  0  0  0  0  0  0  0
    5.1033   -1.8253    0.7637 H   0  0  0  0  0  0  0  0  0  0  0  0
    4.2103   -1.5557   -1.9348 H   0  0  0  0  0  0  0  0  0  0  0  0
    2.7567   -2.4873    0.5932 H   0  0  0  0  0  0  0  0  0  0  0  0
    3.2184    0.0310    1.9080 H   0  0  0  0  0  0  0  0  0  0  0  0
   -1.3191   -2.7978   -1.1178 H   0  0  0  0  0  0  0  0  0  0  0  0
    0.4801   -2.5482    1.3533 H   0  0  0  0  0  0  0  0  0  0  0  0
    0.4499   -3.9268    0.1348 H   0  0  0  0  0  0  0  0  0  0  0  0
   -1.5566   -1.0302    1.3198 H   0  0  0  0  0  0  0  0  0  0  0  0
   -1.9984    5.2068   -2.3129 H   0  0  0  0  0  0  0  0  0  0  0  0
   -2.2143    4.4641   -3.9333 H   0  0  0  0  0  0  0  0  0  0  0  0
   -5.3557   -1.6118   -1.4652 H   0  0  0  0  0  0  0  0  0  0  0  0
   -8.7127   -2.2144   -2.4213 H   0  0  0  0  0  0  0  0  0  0  0  0
   -7.4106   -1.0604   -2.7591 H   0  0  0  0  0  0  0  0  0  0  0  0
   -7.0193   -2.6744   -2.0807 H   0  0  0  0  0  0  0  0  0  0  0  0
   -8.8929   -1.0072    1.6596 H   0  0  0  0  0  0  0  0  0  0  0  0
  1  2  1  0
  2  3  1  0
  3  4  2  0
  4  5  1  0
  5  6  1  0
  6  7  1  0
  7  8  2  0
  8  9  1  0
  9 10  2  0
 10 11  1  0
 11 12  2  0
 12 13  1  0
 13 14  1  0
 14 15  1  0
 15 16  1  0
 16 17  1  0
 17 18  1  0
 18 19  1  0
 19 20  1  0
 20 21  1  0
 21 22  2  0
 22 23  1  0
 23 24  2  0
 24 25  1  0
 20 26  1  0
 26 27  1  0
 27 28  1  0
 28 29  1  0
 28 30  1  0
 30 31  1  0
 13 32  1  0
 32 33  1  0
 33 34  1  0
 34 35  1  0
 35 36  2  0
 35 37  1  0
 10 38  1  0
 38 39  1  0
 39 40  1  0
  5 41  2  0
 41 42  1  0
 42 43  1  0
 43 44  1  0
 42 45  2  0
 45 46  1  0
 45  3  1  0
 37  6  1  0
 12  7  1  0
 30 15  1  0
 37 32  1  0
 40  9  1  0
 27 17  1  0
 25 21  1  0
  1 47  1  0
  1 48  1  0
  1 49  1  0
  4 50  1  0
  6 51  1  0
  8 52  1  0
 11 53  1  0
 13 54  1  0
 15 55  1  0
 17 56  1  0
 18 57  1  0
 18 58  1  0
 20 59  1  0
 22 60  1  0
 23 61  1  0
 24 62  1  0
 27 63  1  0
 28 64  1  0
 29 65  1  0
 30 66  1  0
 31 67  1  0
 32 68  1  0
 33 69  1  0
 33 70  1  0
 37 71  1  0
 39 72  1  0
 39 73  1  0
 41 74  1  0
 44 75  1  0
 44 76  1  0
 44 77  1  0
 46 78  1  0
M  END
$$$$
