@<TRIPOS>MOLECULE
*****
 78 85 0 0 0
SMALL
GASTEIGER

@<TRIPOS>ATOM
      1 C          -4.8193    0.5518    4.1470 C.3     1  UNL1        0.0790
      2 O          -5.9401    0.2367    3.3459 O.3     1  UNL1       -0.4913
      3 C          -5.7537   -0.2536    2.0702 C.ar    1  UNL1        0.1653
      4 C          -4.4909   -0.4473    1.5509 C.ar    1  UNL1       -0.0123
      5 C          -4.3248   -0.9370    0.2760 C.ar    1  UNL1       -0.0320
      6 C          -3.0020   -1.1665   -0.3179 C.3     1  UNL1        0.0233
      7 C          -2.3753    0.0175   -0.9320 C.ar    1  UNL1       -0.0298
      8 C          -3.1168    1.1088   -1.3163 C.ar    1  UNL1       -0.0120
      9 C          -2.5732    2.2337   -1.8987 C.ar    1  UNL1        0.1665
     10 C          -1.2135    2.2592   -2.1036 C.ar    1  UNL1        0.1666
     11 C          -0.4561    1.1678   -1.7215 C.ar    1  UNL1       -0.0102
     12 C          -1.0244    0.0342   -1.1317 C.ar    1  UNL1       -0.0109
     13 C          -0.0715   -1.0448   -0.7831 C.3     1  UNL1        0.0938
     14 O           0.8310   -0.5721    0.1344 O.3     1  UNL1       -0.3404
     15 C           2.1463   -0.5480   -0.2055 C.3     1  UNL1        0.1886
     16 O           2.6298    0.7442   -0.1521 O.3     1  UNL1       -0.3405
     17 C           3.7907    0.8251   -0.8916 C.3     1  UNL1        0.1137
     18 C           4.3081    2.2446   -1.0048 C.3     1  UNL1        0.0798
     19 O           5.5080    2.2868   -0.2992 O.3     1  UNL1       -0.3440
     20 C           6.4794    1.4508   -0.8423 C.3     1  UNL1        0.1921
     21 C           7.6583    1.4995    0.0335 C.ar    1  UNL1        0.0451
     22 C           8.3163    2.5625    0.6396 C.ar    1  UNL1       -0.0467
     23 C           9.3836    2.3281    1.4025 C.ar    1  UNL1       -0.0543
     24 C           9.8298    1.0655    1.5902 C.ar    1  UNL1       -0.0239
     25 S           8.6355    0.0822    0.5963 S.2     1  UNL1       -0.0966
     26 O           6.0108    0.1213   -0.9481 O.3     1  UNL1       -0.3382
     27 C           4.8652    0.0498   -0.1606 C.3     1  UNL1        0.1187
     28 C           4.4228   -1.3624   -0.0130 C.3     1  UNL1        0.1144
     29 O           4.4730   -2.1175   -1.1662 O.3     1  UNL1       -0.3864
     30 C           3.0437   -1.4161    0.6352 C.3     1  UNL1        0.1341
     31 O           3.1935   -0.9455    1.9249 O.3     1  UNL1       -0.3841
     32 C          -0.8610   -2.2232   -0.2904 C.3     1  UNL1        0.0375
     33 C          -0.1479   -3.1375    0.6234 C.3     1  UNL1        0.0987
     34 O          -1.1962   -3.7557    1.3504 O.3     1  UNL1       -0.4640
     35 C          -2.3765   -3.0371    1.2114 C.2     1  UNL1        0.3116
     36 O          -3.5048   -3.4630    1.5453 O.2     1  UNL1       -0.2505
     37 C          -1.9956   -1.7477    0.6182 C.3     1  UNL1        0.0758
     38 O          -0.8561    3.4802   -2.7021 O.3     1  UNL1       -0.4526
     39 C          -2.0202    4.2454   -2.8636 C.3     1  UNL1        0.2332
     40 O          -3.0616    3.4470   -2.3741 O.3     1  UNL1       -0.4526
     41 C          -5.4693   -1.2194   -0.4438 C.ar    1  UNL1       -0.0123
     42 C          -6.7426   -1.0486    0.0172 C.ar    1  UNL1        0.1653
     43 O          -7.8843   -1.3421   -0.7288 O.3     1  UNL1       -0.4913
     44 C          -7.7424   -1.8452   -2.0315 C.3     1  UNL1        0.0790
     45 C          -6.8828   -0.5501    1.3147 C.ar    1  UNL1        0.2010
     46 O          -8.1519   -0.3588    1.8276 O.3     1  UNL1       -0.5009
     47 H          -5.1353    1.2487    4.9570 H       1  UNL1        0.0660
     48 H          -4.1141    1.1518    3.5189 H       1  UNL1        0.0660
     49 H          -4.3817   -0.3668    4.5507 H       1  UNL1        0.0660
     50 H          -3.5887   -0.2263    2.1142 H       1  UNL1        0.0658
     51 H          -3.1210   -1.9111   -1.1519 H       1  UNL1        0.0405
     52 H          -4.2079    1.1441   -1.1777 H       1  UNL1        0.0658
     53 H           0.6042    1.2445   -1.9110 H       1  UNL1        0.0659
     54 H           0.3888   -1.3617   -1.7459 H       1  UNL1        0.0651
     55 H           2.2625   -0.9212   -1.2449 H       1  UNL1        0.0938
     56 H           3.6492    0.4016   -1.9212 H       1  UNL1        0.0647
     57 H           3.6399    2.9859   -0.5609 H       1  UNL1        0.0588
     58 H           4.4593    2.4990   -2.0669 H       1  UNL1        0.0588
     59 H           6.7848    1.7502   -1.8643 H       1  UNL1        0.0970
     60 H           7.9434    3.6320    0.4842 H       1  UNL1        0.0627
     61 H           9.9695    3.1545    1.9289 H       1  UNL1        0.0623
     62 H          10.6232    0.6266    2.1279 H       1  UNL1        0.0693
     63 H           5.0134    0.4822    0.8380 H       1  UNL1        0.0651
     64 H           5.1033   -1.8253    0.7637 H       1  UNL1        0.0648
     65 H           4.2103   -1.5557   -1.9348 H       1  UNL1        0.2100
     66 H           2.7567   -2.4873    0.5932 H       1  UNL1        0.0671
     67 H           3.2184    0.0310    1.9080 H       1  UNL1        0.2101
     68 H          -1.3191   -2.7978   -1.1178 H       1  UNL1        0.0370
     69 H           0.4801   -2.5482    1.3533 H       1  UNL1        0.0701
     70 H           0.4499   -3.9268    0.1348 H       1  UNL1        0.0701
     71 H          -1.5566   -1.0302    1.3198 H       1  UNL1        0.0427
     72 H          -1.9984    5.2068   -2.3129 H       1  UNL1        0.1166
     73 H          -2.2143    4.4641   -3.9333 H       1  UNL1        0.1166
     74 H          -5.3557   -1.6118   -1.4652 H       1  UNL1        0.0658
     75 H          -8.7127   -2.2144   -2.4213 H       1  UNL1        0.0660
     76 H          -7.4106   -1.0604   -2.7591 H       1  UNL1        0.0660
     77 H          -7.0193   -2.6744   -2.0807 H       1  UNL1        0.0660
     78 H          -8.8929   -1.0072    1.6596 H       1  UNL1        0.2924
@<TRIPOS>BOND
     1     1     2    1
     2     2     3    1
     3     3     4   ar
     4     4     5   ar
     5     5     6    1
     6     6     7    1
     7     7     8   ar
     8     8     9   ar
     9     9    10   ar
    10    10    11   ar
    11    11    12   ar
    12    12    13    1
    13    13    14    1
    14    14    15    1
    15    15    16    1
    16    16    17    1
    17    17    18    1
    18    18    19    1
    19    19    20    1
    20    20    21    1
    21    21    22   ar
    22    22    23   ar
    23    23    24   ar
    24    24    25   ar
    25    20    26    1
    26    26    27    1
    27    27    28    1
    28    28    29    1
    29    28    30    1
    30    30    31    1
    31    13    32    1
    32    32    33    1
    33    33    34    1
    34    34    35    1
    35    35    36    2
    36    35    37    1
    37    10    38    1
    38    38    39    1
    39    39    40    1
    40     5    41   ar
    41    41    42   ar
    42    42    43    1
    43    43    44    1
    44    42    45   ar
    45    45    46    1
    46    45     3   ar
    47    37     6    1
    48    12     7   ar
    49    30    15    1
    50    37    32    1
    51    40     9    1
    52    27    17    1
    53    25    21   ar
    54     1    47    1
    55     1    48    1
    56     1    49    1
    57     4    50    1
    58     6    51    1
    59     8    52    1
    60    11    53    1
    61    13    54    1
    62    15    55    1
    63    17    56    1
    64    18    57    1
    65    18    58    1
    66    20    59    1
    67    22    60    1
    68    23    61    1
    69    24    62    1
    70    27    63    1
    71    28    64    1
    72    29    65    1
    73    30    66    1
    74    31    67    1
    75    32    68    1
    76    33    69    1
    77    33    70    1
    78    37    71    1
    79    39    72    1
    80    39    73    1
    81    41    74    1
    82    44    75    1
    83    44    76    1
    84    44    77    1
    85    46    78    1
