@<TRIPOS>MOLECULE
*****
 46 49 0 0 0
SMALL
GASTEIGER

@<TRIPOS>ATOM
      1 C          -1.1614    0.2712    0.9916 C.3     1  UNL1       -0.0286
      2 C          -1.9577   -0.2419    2.1199 C.3     1  UNL1       -0.0458
      3 C          -3.3431    0.3120    1.7534 C.3     1  UNL1       -0.0118
      4 C          -3.3506    0.3325    0.2261 C.3     1  UNL1        0.1317
      5 O          -4.3049   -0.6218   -0.1667 O.3     1  UNL1       -0.3760
      6 C          -3.6928    1.6473   -0.2920 C.1     1  UNL1       -0.0704
      7 C          -3.9684    2.7339   -0.7041 C.1     1  UNL1       -0.1163
      8 C          -2.0190   -0.1464   -0.2117 C.3     1  UNL1        0.0111
      9 C          -2.0135   -1.6250   -0.4257 C.3     1  UNL1       -0.0558
     10 C          -1.4553    0.5868   -1.3979 C.3     1  UNL1       -0.0433
     11 C          -0.0067    0.3272   -1.6022 C.3     1  UNL1       -0.0453
     12 C           0.7866    0.5886   -0.3410 C.3     1  UNL1       -0.0125
     13 C           2.2096    0.3044   -0.4915 C.ar    1  UNL1       -0.0406
     14 C           2.9005   -0.6264    0.2753 C.ar    1  UNL1       -0.0405
     15 C           2.1980   -1.4211    1.3403 C.3     1  UNL1       -0.0270
     16 C           1.0755   -0.5209    1.8776 C.3     1  UNL1       -0.0454
     17 C           0.1640   -0.3166    0.7242 C.3     1  UNL1       -0.0305
     18 C           4.2624   -0.8036    0.0308 C.ar    1  UNL1       -0.0167
     19 C           4.8842   -0.0546   -0.9601 C.ar    1  UNL1        0.1171
     20 O           6.2465   -0.3157   -1.1160 O.3     1  UNL1       -0.5068
     21 C           4.1994    0.8671   -1.7193 C.ar    1  UNL1       -0.0199
     22 C           2.8519    1.0407   -1.4754 C.ar    1  UNL1       -0.0546
     23 H          -1.1776    1.3773    1.0255 H       1  UNL1        0.0310
     24 H          -1.9831   -1.3193    2.2625 H       1  UNL1        0.0269
     25 H          -1.5897    0.1960    3.0862 H       1  UNL1        0.0269
     26 H          -4.1487   -0.2932    2.1792 H       1  UNL1        0.0303
     27 H          -3.3435    1.3790    2.0912 H       1  UNL1        0.0303
     28 H          -4.8104   -0.9915    0.5849 H       1  UNL1        0.2114
     29 H          -4.2267    3.7167   -1.0638 H       1  UNL1        0.1229
     30 H          -3.0355   -1.9575   -0.7729 H       1  UNL1        0.0236
     31 H          -1.2918   -1.9483   -1.2273 H       1  UNL1        0.0236
     32 H          -1.7996   -2.2405    0.4466 H       1  UNL1        0.0236
     33 H          -1.7409    1.6591   -1.3884 H       1  UNL1        0.0272
     34 H          -1.9876    0.1644   -2.2955 H       1  UNL1        0.0272
     35 H           0.3567    1.0940   -2.3454 H       1  UNL1        0.0271
     36 H           0.1833   -0.6477   -2.0473 H       1  UNL1        0.0271
     37 H           0.5655    1.6286   -0.0238 H       1  UNL1        0.0352
     38 H           1.6846   -2.2597    0.8070 H       1  UNL1        0.0313
     39 H           2.8787   -1.7538    2.1188 H       1  UNL1        0.0313
     40 H           1.5775    0.4107    2.1970 H       1  UNL1        0.0271
     41 H           0.5133   -1.0158    2.6794 H       1  UNL1        0.0271
     42 H           0.0649   -1.3094    0.1976 H       1  UNL1        0.0310
     43 H           4.8001   -1.5281    0.6277 H       1  UNL1        0.0657
     44 H           6.8547    0.1575   -0.4307 H       1  UNL1        0.2921
     45 H           4.7973    1.3885   -2.4615 H       1  UNL1        0.0654
     46 H           2.3534    1.7753   -2.0954 H       1  UNL1        0.0622
@<TRIPOS>BOND
     1     1     2    1
     2     2     3    1
     3     3     4    1
     4     4     5    1
     5     4     6    1
     6     6     7    3
     7     4     8    1
     8     8     9    1
     9     8    10    1
    10    10    11    1
    11    11    12    1
    12    12    13    1
    13    13    14   ar
    14    14    15    1
    15    15    16    1
    16    16    17    1
    17    14    18   ar
    18    18    19   ar
    19    19    20    1
    20    19    21   ar
    21    21    22   ar
    22     8     1    1
    23    17    12    1
    24    17     1    1
    25    22    13   ar
    26     1    23    1
    27     2    24    1
    28     2    25    1
    29     3    26    1
    30     3    27    1
    31     5    28    1
    32     7    29    1
    33     9    30    1
    34     9    31    1
    35     9    32    1
    36    10    33    1
    37    10    34    1
    38    11    35    1
    39    11    36    1
    40    12    37    1
    41    15    38    1
    42    15    39    1
    43    16    40    1
    44    16    41    1
    45    17    42    1
    46    18    43    1
    47    20    44    1
    48    21    45    1
    49    22    46    1
