@<TRIPOS>MOLECULE
*****
 33 35 0 0 0
SMALL
GASTEIGER

@<TRIPOS>ATOM
      1 C          -0.6774    0.4361    2.4598 C.3     1  UNL1        0.0239
      2 N          -1.3767    0.1744    1.2294 N.pl3   1  UNL1       -0.1975
      3 C          -0.7882   -0.0744   -0.0358 C.2     1  UNL1        0.1552
      4 C           0.6561   -0.0490    0.0247 C.2     1  UNL1        0.2685
      5 O           1.4007    0.1623    1.0425 O.2     1  UNL1       -0.2683
      6 N           1.6221   -0.2413   -0.9767 N.am    1  UNL1       -0.2652
      7 C           2.9843   -0.1591   -0.6295 C.ar    1  UNL1        0.1251
      8 C           3.6505    1.0546   -0.6926 C.ar    1  UNL1       -0.0215
      9 C           4.9813    1.1817   -0.3626 C.ar    1  UNL1       -0.0571
     10 C           5.6979    0.0764    0.0479 C.ar    1  UNL1       -0.0435
     11 C           4.9758   -1.1060    0.0899 C.ar    1  UNL1        0.0297
     12 N           3.6784   -1.2391   -0.2299 N.ar    1  UNL1       -0.2401
     13 C          -1.4975   -0.2987   -1.1217 C.2     1  UNL1        0.1601
     14 O          -0.8376   -0.5329   -2.3180 O.2     1  UNL1       -0.5036
     15 C          -2.9186   -0.3297   -1.2109 C.ar    1  UNL1        0.0822
     16 C          -3.7771   -0.1225   -0.1364 C.ar    1  UNL1        0.1264
     17 C          -5.1071   -0.1472   -0.2188 C.ar    1  UNL1       -0.0273
     18 C          -5.5609   -0.4293   -1.6286 C.ar    1  UNL1       -0.0217
     19 S          -3.9591   -0.6107   -2.5955 S.2     1  UNL1       -0.0916
     20 S          -3.0850    0.1897    1.4341 S.O2    1  UNL1        0.0759
     21 O          -3.5470    1.5252    2.0011 O.2     1  UNL1       -0.1497
     22 O          -3.5013   -0.9079    2.4035 O.2     1  UNL1       -0.1497
     23 H          -1.3656    0.5652    3.3410 H       1  UNL1        0.0446
     24 H          -0.0235    1.3421    2.3839 H       1  UNL1        0.0446
     25 H           0.0142   -0.4043    2.7620 H       1  UNL1        0.0446
     26 H           1.3205   -0.4380   -1.9423 H       1  UNL1        0.1566
     27 H           3.0922    1.9342   -1.0161 H       1  UNL1        0.0652
     28 H           5.5266    2.1194   -0.4032 H       1  UNL1        0.0619
     29 H           6.7424    0.1005    0.3219 H       1  UNL1        0.0633
     30 H           5.5124   -1.9928    0.4090 H       1  UNL1        0.0830
     31 H          -1.1201   -1.2584   -2.9615 H       1  UNL1        0.2923
     32 H          -5.9553   -0.0258    0.4210 H       1  UNL1        0.0643
     33 H          -6.7574   -0.4947   -1.9206 H       1  UNL1        0.0694
@<TRIPOS>BOND
     1     1     2    1
     2     2     3    1
     3     3     4    1
     4     4     5    2
     5     4     6   am
     6     6     7    1
     7     7     8   ar
     8     8     9   ar
     9     9    10   ar
    10    10    11   ar
    11    11    12   ar
    12     3    13    2
    13    13    14    1
    14    13    15    1
    15    15    16   ar
    16    16    17   ar
    17    17    18   ar
    18    18    19   ar
    19    16    20    1
    20    20    21    2
    21    20    22    2
    22    20     2    1
    23    12     7   ar
    24    19    15   ar
    25     1    23    1
    26     1    24    1
    27     1    25    1
    28     6    26    1
    29     8    27    1
    30     9    28    1
    31    10    29    1
    32    11    30    1
    33    14    31    1
    34    17    32    1
    35    18    33    1
