@<TRIPOS>MOLECULE
*****
 47 48 0 0 0
SMALL
GASTEIGER

@<TRIPOS>ATOM
      1 C          -4.9239    2.7323   -1.2585 C.3     1  UNL1        0.0820
      2 O          -3.5282    2.7769   -1.1232 O.3     1  UNL1       -0.4646
      3 C          -2.7095    1.6729   -0.9414 C.2     1  UNL1        0.3383
      4 O          -3.4695    0.6541   -0.9249 O.2     1  UNL1       -0.2452
      5 C          -1.2774    1.7599   -0.8064 C.2     1  UNL1        0.0800
      6 C          -0.7027    2.9520   -0.8571 C.2     1  UNL1        0.1203
      7 N           0.7132    2.9583   -0.7164 N.pl3   1  UNL1       -0.3088
      8 C           1.4990    1.7861   -0.5317 C.2     1  UNL1        0.0164
      9 C           2.9772    1.8206   -0.3874 C.3     1  UNL1       -0.0260
     10 C           0.8129    0.6515   -0.4973 C.2     1  UNL1        0.0652
     11 C          -0.6287    0.4372   -0.6217 C.3     1  UNL1        0.0518
     12 C          -1.2488   -0.3821    0.4207 C.ar    1  UNL1       -0.0286
     13 C          -1.8755   -1.5925    0.1258 C.ar    1  UNL1        0.0197
     14 C          -2.4383   -2.3152    1.1457 C.ar    1  UNL1        0.2734
     15 C          -2.4081   -1.8946    2.4377 C.ar    1  UNL1        0.0156
     16 C          -1.7916   -0.6938    2.7636 C.ar    1  UNL1       -0.0551
     17 C          -1.2145    0.0509    1.7308 C.ar    1  UNL1       -0.0572
     18 N          -3.0718   -3.5470    0.8185 N.pl3   1  UNL1        0.0796
     19 O          -3.6700   -4.3571    1.7541 O.co2   1  UNL1       -0.5760
     20 O          -3.1313   -3.9847   -0.3476 O.2     1  UNL1        0.0414
     21 C           1.4982   -0.6229   -0.3134 C.2     1  UNL1        0.3378
     22 O           1.0573   -1.8129   -0.2495 O.2     1  UNL1       -0.2452
     23 O           2.8519   -0.7997   -0.1624 O.3     1  UNL1       -0.4586
     24 C           3.5164   -2.0090    0.0135 C.3     1  UNL1        0.0978
     25 C           4.3942   -1.8952    1.2515 C.3     1  UNL1       -0.0280
     26 C           4.4411   -2.1714   -1.1973 C.3     1  UNL1       -0.0280
     27 C          -1.4879    4.1379   -1.0430 C.1     1  UNL1        0.1152
     28 N          -2.1113    5.1030   -1.1783 N.1     1  UNL1       -0.1895
     29 H          -5.3549    1.7040   -1.1180 H       1  UNL1        0.0661
     30 H          -5.1905    3.0017   -2.3034 H       1  UNL1        0.0661
     31 H          -5.4688    3.4080   -0.5964 H       1  UNL1        0.0661
     32 H           1.1972    3.8737   -0.7511 H       1  UNL1        0.1525
     33 H           3.4472    1.2146   -1.1865 H       1  UNL1        0.0290
     34 H           3.3073    2.8721   -0.5106 H       1  UNL1        0.0290
     35 H           3.2420    1.3835    0.5742 H       1  UNL1        0.0290
     36 H          -0.7746   -0.1037   -1.6017 H       1  UNL1        0.0452
     37 H          -1.8897   -1.9150   -0.9218 H       1  UNL1        0.0688
     38 H          -2.8455   -2.4449    3.2702 H       1  UNL1        0.0685
     39 H          -1.7468   -0.3262    3.7757 H       1  UNL1        0.0620
     40 H          -0.7352    0.9908    2.0059 H       1  UNL1        0.0621
     41 H           2.8883   -2.9052    0.0321 H       1  UNL1        0.0728
     42 H           5.3401   -2.4386    1.0338 H       1  UNL1        0.0265
     43 H           4.6246   -0.8417    1.4357 H       1  UNL1        0.0265
     44 H           3.8345   -2.3485    2.0892 H       1  UNL1        0.0265
     45 H           5.3026   -2.8203   -0.9933 H       1  UNL1        0.0265
     46 H           3.8755   -2.5588   -2.0823 H       1  UNL1        0.0265
     47 H           4.8741   -1.1610   -1.4558 H       1  UNL1        0.0265
@<TRIPOS>UNITY_ATOM_ATTR
18 1
charge 1
19 1
charge -1
@<TRIPOS>BOND
     1     1     2    1
     2     2     3    1
     3     3     4    2
     4     3     5    1
     5     5     6    2
     6     6     7    1
     7     7     8    1
     8     8     9    1
     9     8    10    2
    10    10    11    1
    11    11    12    1
    12    12    13   ar
    13    13    14   ar
    14    14    15   ar
    15    15    16   ar
    16    16    17   ar
    17    14    18    1
    18    18    19    1
    19    18    20    2
    20    10    21    1
    21    21    22    2
    22    21    23    1
    23    23    24    1
    24    24    25    1
    25    24    26    1
    26     6    27    1
    27    27    28    3
    28    11     5    1
    29    17    12   ar
    30     1    29    1
    31     1    30    1
    32     1    31    1
    33     7    32    1
    34     9    33    1
    35     9    34    1
    36     9    35    1
    37    11    36    1
    38    13    37    1
    39    15    38    1
    40    16    39    1
    41    17    40    1
    42    24    41    1
    43    25    42    1
    44    25    43    1
    45    25    44    1
    46    26    45    1
    47    26    46    1
    48    26    47    1
