@<TRIPOS>MOLECULE
*****
 244 255 0 0 0
SMALL
GASTEIGER

@<TRIPOS>ATOM
      1 C          -3.2016    5.3920   -1.0635 C.3     1  UNK1        0.0337
      2 N          -4.6470    5.6213   -1.2386 N.3     1  UNK1       -0.2940
      3 C          -5.0577    6.3418   -0.0426 C.3     1  UNK1        0.0005
      4 C          -3.8994    7.2503    0.2116 C.3     1  UNK1       -0.0272
      5 C          -2.7381    6.7027   -0.6407 C.3     1  UNK1        0.0367
      6 C          -1.5449    6.8310    0.1811 C.ar    1  UNK1       -0.0162
      7 C          -0.8533    6.0568    1.0789 C.ar    1  UNK1       -0.0481
      8 C           0.3043    6.3051    1.8505 C.ar    1  UNK1        0.0172
      9 C           0.6936    7.6203    1.5283 C.ar    1  UNK1        0.1265
     10 O           1.7945    8.1327    2.1401 O.3     1  UNK1       -0.4947
     11 C           2.3383    9.4155    1.9548 C.3     1  UNK1        0.0788
     12 C           0.1072    8.5096    0.6549 C.ar    1  UNK1        0.0017
     13 C          -1.0201    8.0938   -0.0145 C.ar    1  UNK1        0.0372
     14 N          -1.8463    8.7647   -0.9628 N.pl3   1  UNK1       -0.3253
     15 C          -1.9546   10.2256   -1.0874 C.3     1  UNK1        0.0011
     16 C          -2.5099    7.7181   -1.7227 C.3     1  UNK1        0.0742
     17 C          -1.8207    7.2319   -2.9141 C.3     1  UNK1        0.1887
     18 O          -2.0491    8.1286   -3.9903 O.3     1  UNK1       -0.3754
     19 C          -2.3645    5.9154   -3.3885 C.3     1  UNK1        0.1047
     20 O          -3.5514    6.1960   -4.1093 O.3     1  UNK1       -0.3875
     21 C          -2.6636    4.8897   -2.3729 C.3     1  UNK1        0.0341
     22 C          -1.5554    3.8913   -2.1115 C.3     1  UNK1       -0.0428
     23 C          -2.0911    2.7100   -1.3232 C.3     1  UNK1       -0.0644
     24 C          -3.7746    4.0291   -2.9789 C.2     1  UNK1       -0.0765
     25 C          -4.9834    3.7280   -2.5881 C.2     1  UNK1       -0.0733
     26 C          -5.3347    4.3615   -1.2825 C.3     1  UNK1        0.0175
     27 C          -0.3473    7.0909   -2.8343 C.2     1  UNK1        0.2654
     28 O           0.4932    6.5390   -2.0537 O.2     1  UNK1       -0.2709
     29 N           0.5661    7.6567   -3.8107 N.am    1  UNK1       -0.2293
     30 N           1.7991    7.2038   -3.2589 N.am    1  UNK1       -0.1995
     31 C           2.0826    5.8990   -3.8030 C.2     1  UNK1        0.4168
     32 O           1.2240    5.4802   -4.6302 O.2     1  UNK1       -0.2249
     33 O           3.1163    5.0360   -3.5778 O.3     1  UNK1       -0.4486
     34 C           3.2586    3.7937   -4.1982 C.3     1  UNK1        0.1038
     35 C           3.4783    3.8379   -5.6817 C.3     1  UNK1        0.0383
     36 S           3.6044    2.1295   -6.2602 S.3     1  UNK1       -0.0897
     37 S           1.7196    1.1232   -6.2510 S.3     1  UNK1       -0.0906
     38 C           0.9178    1.2986   -7.8415 C.3     1  UNK1        0.0327
     39 C          -0.3962    0.6583   -8.0153 C.3     1  UNK1        0.1301
     40 N          -0.4497   -0.7628   -7.8072 N.am    1  UNK1       -0.3002
     41 C          -1.7758   -1.3085   -7.7656 C.2     1  UNK1        0.2346
     42 O          -2.6506   -0.4365   -7.9452 O.2     1  UNK1       -0.2737
     43 C          -2.1665   -2.6809   -7.5473 C.3     1  UNK1        0.1094
     44 C          -3.2045   -2.7377   -6.4032 C.3     1  UNK1        0.0716
     45 C          -4.4308   -1.9768   -6.7417 C.2     1  UNK1        0.3070
     46 O          -5.6778   -1.5447   -6.3801 O.3     1  UNK1       -0.4806
     47 O          -5.0342   -1.2688   -7.5972 O.2     1  UNK1       -0.2509
     48 N          -1.1177   -3.5811   -7.1590 N.am    1  UNK1       -0.3019
     49 C          -1.2714   -4.9546   -7.4230 C.2     1  UNK1        0.2345
     50 O          -2.3458   -5.2159   -8.0187 O.2     1  UNK1       -0.2737
     51 C          -0.5694   -6.2249   -7.2236 C.3     1  UNK1        0.1094
     52 C          -1.4421   -7.3430   -6.7574 C.3     1  UNK1        0.0716
     53 C          -2.5190   -7.6316   -7.7125 C.2     1  UNK1        0.3070
     54 O          -3.3512   -8.0268   -8.7435 O.3     1  UNK1       -0.4806
     55 O          -3.7378   -7.2533   -7.5965 O.2     1  UNK1       -0.2509
     56 N           0.6380   -6.1311   -6.4017 N.am    1  UNK1       -0.3019
     57 C           0.4452   -5.4741   -5.1377 C.2     1  UNK1        0.2340
     58 O          -0.7213   -5.0569   -4.8820 O.2     1  UNK1       -0.2738
     59 C           1.2873   -5.1190   -3.9742 C.3     1  UNK1        0.0995
     60 C           1.3763   -6.3180   -3.0092 C.3     1  UNK1       -0.0231
     61 C           1.9674   -7.5392   -3.6609 C.3     1  UNK1       -0.0201
     62 C           2.0040   -8.6348   -2.6110 C.3     1  UNK1        0.0647
     63 N           0.6410   -8.8685   -2.1716 N.pl3   1  UNK1       -0.2761
     64 C           0.6392   -9.8811   -1.1793 C.cat   1  UNK1        0.3762
     65 N          -0.4788  -10.4478   -0.4833 N.pl3   1  UNK1       -0.2893
     66 N           1.5356  -10.6028   -0.5832 N.pl3   1  UNK1       -0.1298
     67 N           0.5681   -4.0551   -3.2457 N.am    1  UNK1       -0.3025
     68 C           1.0886   -2.8708   -2.5850 C.2     1  UNK1        0.2345
     69 O           2.3394   -2.8724   -2.6987 O.2     1  UNK1       -0.2737
     70 C          -0.1009   -2.1113   -2.0194 C.3     1  UNK1        0.1094
     71 C          -0.8557   -1.5699   -3.2445 C.3     1  UNK1        0.0716
     72 C          -2.0558   -0.7980   -2.8738 C.2     1  UNK1        0.3070
     73 O          -2.8666   -0.1702   -3.7985 O.3     1  UNK1       -0.4806
     74 O          -2.5590   -0.5597   -1.7410 O.2     1  UNK1       -0.2509
     75 N           0.2657   -1.0546   -1.1428 N.am    1  UNK1       -0.3035
     76 C           0.1506   -1.3873    0.2307 C.2     1  UNK1        0.2137
     77 O          -0.2150   -2.5319    0.5293 O.2     1  UNK1       -0.2758
     78 C           0.3637   -0.6890    1.5021 C.3     1  UNK1        0.0262
     79 C          -0.1694   -1.4045    2.6763 C.3     1  UNK1       -0.0158
     80 C          -1.6361   -1.4894    2.8017 C.3     1  UNK1        0.1209
     81 N          -1.9155   -2.2945    4.0075 N.am    1  UNK1       -0.2983
     82 C          -2.3245   -2.6516    5.2843 C.2     0  UNK0        0.2447
     83 O          -2.7808   -1.5964    5.8564 O.2     0  UNK0       -0.2702
     84 C          -2.2365   -3.9790    5.8454 C.ar    0  UNK0        0.0368
     85 C          -2.5396   -4.0994    7.1571 C.ar    0  UNK0       -0.0479
     86 C          -2.4523   -5.3360    7.7436 C.ar    0  UNK0       -0.0401
     87 C          -2.0629   -6.4729    7.0386 C.ar    0  UNK0        0.0275
     88 N          -1.9534   -7.7349    7.6431 N.pl3   0  UNK0       -0.3382
     89 C          -1.5897   -9.0788    7.3073 C.3     0  UNK0        0.0529
     90 C          -0.1818   -9.2121    6.8227 C.ar    0  UNK0        0.0751
     91 C           0.1608   -9.2863    5.4765 C.ar    0  UNK0        0.0263
     92 N           1.3501   -9.3786    4.8848 N.ar    0  UNK0       -0.3426
     93 C           2.3899   -9.4034    5.7405 C.ar    0  UNK0        0.1656
     94 N           3.6528   -9.4879    5.2680 N.ar    0  UNK0       -0.1951
     95 C           4.7215   -9.5100    6.1001 C.ar    0  UNK0        0.2177
     96 N           5.9438   -9.5992    5.3708 N.pl3   0  UNK0       -0.3273
     97 N           4.5082   -9.4446    7.4237 N.ar    0  UNK0       -0.1739
     98 C           3.2725   -9.3596    7.9569 C.ar    0  UNK0        0.3022
     99 O           3.1531   -9.3019    9.1946 O.2     0  UNK0       -0.2633
    100 C           2.1440   -9.3333    7.1749 C.ar    0  UNK0        0.1725
    101 N           0.8740   -9.2398    7.6762 N.ar    0  UNK0       -0.2401
    102 C          -1.7808   -6.2436    5.7183 C.ar    0  UNK0       -0.0401
    103 C          -1.8472   -5.0332    5.0699 C.ar    0  UNK0       -0.0479
    104 C          -2.4267   -1.9639    1.6817 C.2     1  UNK1        0.3253
    105 O          -3.1650   -2.3922    0.6039 O.3     1  UNK1       -0.4793
    106 O          -2.9361   -2.9069    2.3392 O.2     1  UNK1       -0.2489
    107 C          -0.7109    0.7863   -9.5314 C.2     1  UNK1        0.3261
    108 O          -0.7890    2.0008  -10.2223 O.3     1  UNK1       -0.4793
    109 O          -0.9235   -0.2374  -10.2645 O.2     1  UNK1       -0.2489
    110 C           0.9772    5.3915    2.7392 C.3     1  UNK1        0.1360
    111 C           1.8879    4.3632    2.2493 C.3     1  UNK1       -0.0234
    112 C           3.0799    4.4218    1.4509 C.3     1  UNK1       -0.0239
    113 C           4.3380    5.1085    1.7062 C.3     1  UNK1        0.0020
    114 N           5.1337    4.6824    2.8352 N.3     1  UNK1       -0.2990
    115 C           5.3684    3.2802    2.7373 C.3     1  UNK1        0.0278
    116 C           4.7613    2.4949    1.6632 C.3     1  UNK1        0.0788
    117 O           4.4911    1.2070    2.2699 O.3     1  UNK1       -0.3873
    118 C           5.7535    2.0984    0.5642 C.3     1  UNK1       -0.0256
    119 C           6.8905    1.2526    1.1331 C.3     1  UNK1       -0.0626
    120 C           3.4570    2.9390    1.1455 C.3     1  UNK1       -0.0188
    121 C           4.3715    4.8467    4.0847 C.3     1  UNK1        0.0031
    122 C           3.4461    6.0120    3.9375 C.3     1  UNK1       -0.0126
    123 C           2.3467    6.0974    4.8840 C.ar    1  UNK1       -0.0165
    124 C           1.2204    5.7854    4.1434 C.ar    1  UNK1        0.0418
    125 N           0.3216    5.9467    5.1806 N.ar    1  UNK1       -0.3565
    126 C           0.7979    6.2989    6.3776 C.ar    1  UNK1        0.0470
    127 C           0.2849    6.5490    7.6223 C.ar    1  UNK1       -0.0378
    128 C           1.1557    6.8948    8.6349 C.ar    1  UNK1       -0.0598
    129 C           2.5243    6.9899    8.4013 C.ar    1  UNK1       -0.0611
    130 C           3.0621    6.7422    7.1565 C.ar    1  UNK1       -0.0523
    131 C           2.1404    6.4033    6.1993 C.ar    1  UNK1        0.0032
    132 C          -0.3325    4.4487    2.9846 C.2     1  UNK1        0.3235
    133 O          -1.4425    3.9082    3.0243 O.2     1  UNK1       -0.2494
    134 O          -0.0353    3.3501    3.7750 O.3     1  UNK1       -0.4670
    135 C          -0.9656    2.3639    4.1451 C.3     1  UNK1        0.0817
    136 H          -3.1095    4.6585   -0.2733 H       1  UNK1        0.0481
    137 H          -5.9651    6.9488   -0.2150 H       1  UNK1        0.0427
    138 H          -5.2100    5.6884    0.8266 H       1  UNK1        0.0427
    139 H          -4.1478    8.2943   -0.0518 H       1  UNK1        0.0287
    140 H          -3.6290    7.2751    1.2901 H       1  UNK1        0.0287
    141 H          -1.2984    5.0681    1.1778 H       1  UNK1        0.0625
    142 H           1.5736   10.2357    2.0457 H       1  UNK1        0.0660
    143 H           3.1522    9.5599    2.7176 H       1  UNK1        0.0660
    144 H           2.8316    9.4638    0.9486 H       1  UNK1        0.0660
    145 H           0.4805    9.4893    0.4775 H       1  UNK1        0.0673
    146 H          -0.9833   10.6658   -0.7860 H       1  UNK1        0.0428
    147 H          -2.7383   10.5958   -0.3878 H       1  UNK1        0.0428
    148 H          -2.1513   10.4837   -2.1285 H       1  UNK1        0.0428
    149 H          -3.5179    8.1052   -2.0120 H       1  UNK1        0.0543
    150 H          -1.5513    8.9631   -3.8894 H       1  UNK1        0.2110
    151 H          -1.6976    5.4360   -4.1581 H       1  UNK1        0.0637
    152 H          -3.2550    6.6493   -4.9358 H       1  UNK1        0.2100
    153 H          -1.2583    3.5031   -3.1078 H       1  UNK1        0.0272
    154 H          -0.7140    4.2803   -1.5261 H       1  UNK1        0.0272
    155 H          -1.3625    1.8445   -1.4043 H       1  UNK1        0.0230
    156 H          -2.1444    2.8980   -0.2332 H       1  UNK1        0.0230
    157 H          -3.0464    2.3259   -1.6782 H       1  UNK1        0.0230
    158 H          -3.3851    3.6241   -3.9318 H       1  UNK1        0.0576
    159 H          -5.5545    3.0792   -3.2431 H       1  UNK1        0.0582
    160 H          -4.9445    3.7413   -0.4434 H       1  UNK1        0.0470
    161 H          -6.4289    4.5192   -1.1898 H       1  UNK1        0.0470
    162 H           0.2409    8.2152   -4.6288 H       1  UNK1        0.1730
    163 H           2.5287    7.5409   -2.6016 H       1  UNK1        0.1762
    164 H           4.0859    3.2239   -3.7290 H       1  UNK1        0.0706
    165 H           2.3266    3.2120   -4.0285 H       1  UNK1        0.0706
    166 H           4.4627    4.3170   -5.9227 H       1  UNK1        0.0418
    167 H           2.6311    4.3460   -6.1926 H       1  UNK1        0.0418
    168 H           0.9034    2.3709   -8.1482 H       1  UNK1        0.0408
    169 H           1.6167    0.8270   -8.5985 H       1  UNK1        0.0408
    170 H          -1.2361    1.1913   -7.5825 H       1  UNK1        0.0623
    171 H           0.3366   -1.4355   -7.6832 H       1  UNK1        0.1496
    172 H          -2.7336   -3.1593   -8.4025 H       1  UNK1        0.0600
    173 H          -2.7714   -2.3143   -5.4826 H       1  UNK1        0.0401
    174 H          -3.4386   -3.8110   -6.1795 H       1  UNK1        0.0401
    175 H          -6.1615   -1.7108   -5.5192 H       1  UNK1        0.2951
    176 H          -0.1976   -3.3698   -6.7127 H       1  UNK1        0.1495
    177 H          -0.1749   -6.5062   -8.2541 H       1  UNK1        0.0600
    178 H          -1.9318   -7.1241   -5.7835 H       1  UNK1        0.0401
    179 H          -0.8244   -8.2667   -6.6752 H       1  UNK1        0.0401
    180 H          -2.9536   -8.4993   -9.5577 H       1  UNK1        0.2951
    181 H           1.6601   -6.4042   -6.4348 H       1  UNK1        0.1495
    182 H           2.3162   -4.8627   -4.2128 H       1  UNK1        0.0594
    183 H           0.3840   -6.5239   -2.5951 H       1  UNK1        0.0289
    184 H           2.0850   -6.0121   -2.2100 H       1  UNK1        0.0289
    185 H           1.2620   -7.8522   -4.4819 H       1  UNK1        0.0296
    186 H           2.9629   -7.3442   -4.0849 H       1  UNK1        0.0296
    187 H           2.6766   -8.2997   -1.8084 H       1  UNK1        0.0655
    188 H           2.4357   -9.5530   -3.0706 H       1  UNK1        0.0655
    189 H          -0.3236   -8.5269   -2.3571 H       1  UNK1        0.2579
    190 H          -0.9312  -11.3858   -0.4828 H       1  UNK1        0.2546
    191 H          -1.0675   -9.9295    0.2055 H       1  UNK1        0.2546
    192 H           2.5513  -10.5209   -0.7896 H       1  UNK1        0.3062
    193 H          -0.4718   -4.2766   -3.2415 H       1  UNK1        0.1495
    194 H          -0.7643   -2.8286   -1.5188 H       1  UNK1        0.0600
    195 H          -0.1422   -0.9869   -3.8824 H       1  UNK1        0.0401
    196 H          -1.1722   -2.4637   -3.8083 H       1  UNK1        0.0401
    197 H          -3.1036    0.8257   -3.6888 H       1  UNK1        0.2951
    198 H           0.6049   -0.0775   -1.2274 H       1  UNK1        0.1495
    199 H          -0.0632    0.3562    1.4785 H       1  UNK1        0.0359
    200 H           1.4683   -0.4931    1.6625 H       1  UNK1        0.0359
    201 H           0.2235   -2.4740    2.6675 H       1  UNK1        0.0293
    202 H           0.2613   -0.9550    3.6190 H       1  UNK1        0.0293
    203 H          -2.0563   -0.4461    3.0632 H       1  UNK1        0.0614
    204 H          -1.5150   -3.1693    3.5343 H       1  UNK1        0.1498
    205 H          -2.8383   -3.2473    7.7143 H       0  UNK0        0.0626
    206 H          -2.6996   -5.4089    8.7935 H       0  UNK0        0.0636
    207 H          -2.2227   -7.6955    8.6788 H       0  UNK0        0.1465
    208 H          -2.2210   -9.4667    6.4593 H       0  UNK0        0.0526
    209 H          -1.7189   -9.7840    8.1398 H       0  UNK0        0.0526
    210 H          -0.6958   -9.2669    4.7999 H       0  UNK0        0.0826
    211 H           1.4517   -9.4269    3.8655 H       0  UNK0        0.1669
    212 H           6.5834  -10.3606    5.1318 H       0  UNK0        0.1452
    213 H           6.3837   -8.7738    4.9334 H       0  UNK0        0.1452
    214 H          -1.4863   -7.0722    5.1135 H       0  UNK0        0.0636
    215 H          -1.5971   -5.0004    4.0239 H       0  UNK0        0.0626
    216 H          -3.9378   -1.8959    0.2140 H       1  UNK1        0.2951
    217 H          -0.5124    2.0810  -11.1777 H       1  UNK1        0.2951
    218 H           2.0538    3.5664    3.0636 H       1  UNK1        0.0286
    219 H           1.2336    3.6153    1.5625 H       1  UNK1        0.0286
    220 H           2.7620    4.7895    0.4043 H       1  UNK1        0.0314
    221 H           5.0112    4.7467    0.8384 H       1  UNK1        0.0429
    222 H           4.3156    6.1597    1.4651 H       1  UNK1        0.0429
    223 H           5.2493    2.7666    3.7339 H       1  UNK1        0.0455
    224 H           6.5058    3.1982    2.5894 H       1  UNK1        0.0455
    225 H           4.3229    0.6067    1.5230 H       1  UNK1        0.2102
    226 H           5.2486    1.4054   -0.1640 H       1  UNK1        0.0291
    227 H           6.2292    2.9555    0.0761 H       1  UNK1        0.0291
    228 H           7.3509    0.6217    0.3489 H       1  UNK1        0.0231
    229 H           7.7152    1.9789    1.4116 H       1  UNK1        0.0231
    230 H           6.5788    0.7255    2.0361 H       1  UNK1        0.0231
    231 H           3.4807    2.7718    0.0271 H       1  UNK1        0.0296
    232 H           2.6060    2.2689    1.4640 H       1  UNK1        0.0296
    233 H           3.8515    3.9591    4.3815 H       1  UNK1        0.0430
    234 H           5.1738    5.0269    4.8340 H       1  UNK1        0.0430
    235 H           4.1543    6.9133    4.1791 H       1  UNK1        0.0326
    236 H           3.2180    6.2738    2.9111 H       1  UNK1        0.0326
    237 H          -0.7417    5.8234    5.1262 H       1  UNK1        0.1656
    238 H          -0.7769    6.4690    7.7745 H       1  UNK1        0.0638
    239 H           0.7380    7.0908    9.6225 H       1  UNK1        0.0618
    240 H           3.2064    7.2632    9.2034 H       1  UNK1        0.0618
    241 H           4.1042    6.8082    6.9458 H       1  UNK1        0.0624
    242 H          -1.7004    2.8464    4.8402 H       1  UNK1        0.0661
    243 H          -1.4541    1.8878    3.2827 H       1  UNK1        0.0661
    244 H          -0.4074    1.5684    4.7237 H       1  UNK1        0.0661
@<TRIPOS>BOND
     1     1     2    1
     2     2     3    1
     3     3     4    1
     4     5     4    1
     5     5     6    1
     6     6     7   ar
     7     7     8   ar
     8     8     9   ar
     9     9    10    1
    10    10    11    1
    11     9    12   ar
    12    12    13   ar
    13    13    14    1
    14    14    15    1
    15    14    16    1
    16    16    17    1
    17    17    18    1
    18    17    19    1
    19    19    20    1
    20    19    21    1
    21    21    22    1
    22    22    23    1
    23    21    24    1
    24    24    25    2
    25    25    26    1
    26    17    27    1
    27    27    28    2
    28    27    29   am
    29    29    30    1
    30    30    31   am
    31    31    32    2
    32    31    33    1
    33    33    34    1
    34    34    35    1
    35    35    36    1
    36    36    37    1
    37    37    38    1
    38    38    39    1
    39    39    40    1
    40    40    41   am
    41    41    42    2
    42    41    43    1
    43    43    44    1
    44    44    45    1
    45    45    46    1
    46    45    47    2
    47    43    48    1
    48    48    49   am
    49    49    50    2
    50    49    51    1
    51    51    52    1
    52    52    53    1
    53    53    54    1
    54    53    55    2
    55    51    56    1
    56    56    57   am
    57    57    58    2
    58    57    59    1
    59    59    60    1
    60    60    61    1
    61    61    62    1
    62    62    63    1
    63    63    64    1
    64    64    65    1
    65    64    66    2
    66    59    67    1
    67    67    68   am
    68    68    69    2
    69    68    70    1
    70    70    71    1
    71    71    72    1
    72    72    73    1
    73    72    74    2
    74    70    75    1
    75    75    76   am
    76    76    77    2
    77    76    78    1
    78    78    79    1
    79    79    80    1
    80    80    81    1
    81    81    82   am
    82    82    83    2
    83    82    84    1
    84    84    85   ar
    85    85    86   ar
    86    86    87   ar
    87    87    88    1
    88    88    89    1
    89    89    90    1
    90    90    91   ar
    91    91    92   ar
    92    92    93   ar
    93    93    94   ar
    94    94    95   ar
    95    95    96    1
    96    95    97   ar
    97    97    98   ar
    98    98    99    2
    99    98   100   ar
   100   100   101   ar
   101    87   102   ar
   102   102   103   ar
   103    80   104    1
   104   104   105    1
   105   104   106    2
   106    39   107    1
   107   107   108    1
   108   107   109    2
   109     8   110    1
   110   110   111    1
   111   111   112    1
   112   112   113    1
   113   113   114    1
   114   114   115    1
   115   115   116    1
   116   116   117    1
   117   116   118    1
   118   118   119    1
   119   116   120    1
   120   114   121    1
   121   121   122    1
   122   122   123    1
   123   123   124   ar
   124   124   125   ar
   125   125   126   ar
   126   126   127   ar
   127   127   128   ar
   128   128   129   ar
   129   129   130   ar
   130   130   131   ar
   131   110   132    1
   132   132   133    2
   133   132   134    1
   134   134   135    1
   135     5     1    1
   136    16     5    1
   137   103    84   ar
   138   124   110    1
   139   131   126   ar
   140    21     1    1
   141   101    90   ar
   142   120   112    1
   143   131   123   ar
   144    26     2    1
   145   100    93    1
   146    13     6   ar
   147     1   136    1
   148     3   137    1
   149     3   138    1
   150     4   139    1
   151     4   140    1
   152     7   141    1
   153    11   142    1
   154    11   143    1
   155    11   144    1
   156    12   145    1
   157    15   146    1
   158    15   147    1
   159    15   148    1
   160    16   149    1
   161    18   150    1
   162    19   151    1
   163    20   152    1
   164    22   153    1
   165    22   154    1
   166    23   155    1
   167    23   156    1
   168    23   157    1
   169    24   158    1
   170    25   159    1
   171    26   160    1
   172    26   161    1
   173    29   162    1
   174    30   163    1
   175    34   164    1
   176    34   165    1
   177    35   166    1
   178    35   167    1
   179    38   168    1
   180    38   169    1
   181    39   170    1
   182    40   171    1
   183    43   172    1
   184    44   173    1
   185    44   174    1
   186    46   175    1
   187    48   176    1
   188    51   177    1
   189    52   178    1
   190    52   179    1
   191    54   180    1
   192    56   181    1
   193    59   182    1
   194    60   183    1
   195    60   184    1
   196    61   185    1
   197    61   186    1
   198    62   187    1
   199    62   188    1
   200    63   189    1
   201    65   190    1
   202    65   191    1
   203    66   192    1
   204    67   193    1
   205    70   194    1
   206    71   195    1
   207    71   196    1
   208    73   197    1
   209    75   198    1
   210    78   199    1
   211    78   200    1
   212    79   201    1
   213    79   202    1
   214    80   203    1
   215    81   204    1
   216    85   205    1
   217    86   206    1
   218    88   207    1
   219    89   208    1
   220    89   209    1
   221    91   210    1
   222    92   211    1
   223    96   212    1
   224    96   213    1
   225   102   214    1
   226   103   215    1
   227   105   216    1
   228   108   217    1
   229   111   218    1
   230   111   219    1
   231   112   220    1
   232   113   221    1
   233   113   222    1
   234   115   223    1
   235   115   224    1
   236   117   225    1
   237   118   226    1
   238   118   227    1
   239   119   228    1
   240   119   229    1
   241   119   230    1
   242   120   231    1
   243   120   232    1
   244   121   233    1
   245   121   234    1
   246   122   235    1
   247   122   236    1
   248   125   237    1
   249   127   238    1
   250   128   239    1
   251   129   240    1
   252   130   241    1
   253   135   242    1
   254   135   243    1
   255   135   244    1
