
     RDKit          3D

244255  0  0  0  0  0  0  0  0999 V2000
   -3.2016    5.3920   -1.0635 C   0  0  2  0  0  0  0  0  0  0  0  0
   -4.6470    5.6213   -1.2386 N   0  0  0  0  0  0  0  0  0  0  0  0
   -5.0577    6.3418   -0.0426 C   0  0  0  0  0  0  0  0  0  0  0  0
   -3.8994    7.2503    0.2116 C   0  0  0  0  0  0  0  0  0  0  0  0
   -2.7381    6.7027   -0.6407 C   0  0  1  0  0  0  0  0  0  0  0  0
   -1.5449    6.8310    0.1811 C   0  0  0  0  0  0  0  0  0  0  0  0
   -0.8533    6.0568    1.0789 C   0  0  0  0  0  0  0  0  0  0  0  0
    0.3043    6.3051    1.8505 C   0  0  0  0  0  0  0  0  0  0  0  0
    0.6936    7.6203    1.5283 C   0  0  0  0  0  0  0  0  0  0  0  0
    1.7945    8.1327    2.1401 O   0  0  0  0  0  0  0  0  0  0  0  0
    2.3383    9.4155    1.9548 C   0  0  0  0  0  0  0  0  0  0  0  0
    0.1072    8.5096    0.6549 C   0  0  0  0  0  0  0  0  0  0  0  0
   -1.0201    8.0938   -0.0145 C   0  0  0  0  0  0  0  0  0  0  0  0
   -1.8463    8.7647   -0.9628 N   0  0  0  0  0  0  0  0  0  0  0  0
   -1.9546   10.2256   -1.0874 C   0  0  0  0  0  0  0  0  0  0  0  0
   -2.5099    7.7181   -1.7227 C   0  0  1  0  0  0  0  0  0  0  0  0
   -1.8207    7.2319   -2.9141 C   0  0  2  0  0  0  0  0  0  0  0  0
   -2.0491    8.1286   -3.9903 O   0  0  0  0  0  0  0  0  0  0  0  0
   -2.3645    5.9154   -3.3885 C   0  0  2  0  0  0  0  0  0  0  0  0
   -3.5514    6.1960   -4.1093 O   0  0  0  0  0  0  0  0  0  0  0  0
   -2.6636    4.8897   -2.3729 C   0  0  1  0  0  0  0  0  0  0  0  0
   -1.5554    3.8913   -2.1115 C   0  0  0  0  0  0  0  0  0  0  0  0
   -2.0911    2.7100   -1.3232 C   0  0  0  0  0  0  0  0  0  0  0  0
   -3.7746    4.0291   -2.9789 C   0  0  0  0  0  0  0  0  0  0  0  0
   -4.9834    3.7280   -2.5881 C   0  0  0  0  0  0  0  0  0  0  0  0
   -5.3347    4.3615   -1.2825 C   0  0  0  0  0  0  0  0  0  0  0  0
   -0.3473    7.0909   -2.8343 C   0  0  0  0  0  0  0  0  0  0  0  0
    0.4932    6.5390   -2.0537 O   0  0  0  0  0  0  0  0  0  0  0  0
    0.5661    7.6567   -3.8107 N   0  0  0  0  0  0  0  0  0  0  0  0
    1.7991    7.2038   -3.2589 N   0  0  0  0  0  0  0  0  0  0  0  0
    2.0826    5.8990   -3.8030 C   0  0  0  0  0  0  0  0  0  0  0  0
    1.2240    5.4802   -4.6302 O   0  0  0  0  0  0  0  0  0  0  0  0
    3.1163    5.0360   -3.5778 O   0  0  0  0  0  0  0  0  0  0  0  0
    3.2586    3.7937   -4.1982 C   0  0  0  0  0  0  0  0  0  0  0  0
    3.4783    3.8379   -5.6817 C   0  0  0  0  0  0  0  0  0  0  0  0
    3.6044    2.1295   -6.2602 S   0  0  0  0  0  0  0  0  0  0  0  0
    1.7196    1.1232   -6.2510 S   0  0  0  0  0  0  0  0  0  0  0  0
    0.9178    1.2986   -7.8415 C   0  0  0  0  0  0  0  0  0  0  0  0
   -0.3962    0.6583   -8.0153 C   0  0  2  0  0  0  0  0  0  0  0  0
   -0.4497   -0.7628   -7.8072 N   0  0  0  0  0  0  0  0  0  0  0  0
   -1.7758   -1.3085   -7.7656 C   0  0  0  0  0  0  0  0  0  0  0  0
   -2.6506   -0.4365   -7.9452 O   0  0  0  0  0  0  0  0  0  0  0  0
   -2.1665   -2.6809   -7.5473 C   0  0  2  0  0  0  0  0  0  0  0  0
   -3.2045   -2.7377   -6.4032 C   0  0  0  0  0  0  0  0  0  0  0  0
   -4.4308   -1.9768   -6.7417 C   0  0  0  0  0  0  0  0  0  0  0  0
   -5.6778   -1.5447   -6.3801 O   0  0  0  0  0  0  0  0  0  0  0  0
   -5.0342   -1.2688   -7.5972 O   0  0  0  0  0  0  0  0  0  0  0  0
   -1.1177   -3.5811   -7.1590 N   0  0  0  0  0  0  0  0  0  0  0  0
   -1.2714   -4.9546   -7.4230 C   0  0  0  0  0  0  0  0  0  0  0  0
   -2.3458   -5.2159   -8.0187 O   0  0  0  0  0  0  0  0  0  0  0  0
   -0.5694   -6.2249   -7.2236 C   0  0  2  0  0  0  0  0  0  0  0  0
   -1.4421   -7.3430   -6.7574 C   0  0  0  0  0  0  0  0  0  0  0  0
   -2.5190   -7.6316   -7.7125 C   0  0  0  0  0  0  0  0  0  0  0  0
   -3.3512   -8.0268   -8.7435 O   0  0  0  0  0  0  0  0  0  0  0  0
   -3.7378   -7.2533   -7.5965 O   0  0  0  0  0  0  0  0  0  0  0  0
    0.6380   -6.1311   -6.4017 N   0  0  0  0  0  0  0  0  0  0  0  0
    0.4452   -5.4741   -5.1377 C   0  0  0  0  0  0  0  0  0  0  0  0
   -0.7213   -5.0569   -4.8820 O   0  0  0  0  0  0  0  0  0  0  0  0
    1.2873   -5.1190   -3.9742 C   0  0  2  0  0  0  0  0  0  0  0  0
    1.3763   -6.3180   -3.0092 C   0  0  0  0  0  0  0  0  0  0  0  0
    1.9674   -7.5392   -3.6609 C   0  0  0  0  0  0  0  0  0  0  0  0
    2.0040   -8.6348   -2.6110 C   0  0  0  0  0  0  0  0  0  0  0  0
    0.6410   -8.8685   -2.1716 N   0  0  0  0  0  0  0  0  0  0  0  0
    0.6392   -9.8811   -1.1793 C   0  0  0  0  0  0  0  0  0  0  0  0
   -0.4788  -10.4478   -0.4833 N   0  0  0  0  0  0  0  0  0  0  0  0
    1.5356  -10.6028   -0.5832 N   0  0  0  0  0  0  0  0  0  0  0  0
    0.5681   -4.0551   -3.2457 N   0  0  0  0  0  0  0  0  0  0  0  0
    1.0886   -2.8708   -2.5850 C   0  0  0  0  0  0  0  0  0  0  0  0
    2.3394   -2.8724   -2.6987 O   0  0  0  0  0  0  0  0  0  0  0  0
   -0.1009   -2.1113   -2.0194 C   0  0  2  0  0  0  0  0  0  0  0  0
   -0.8557   -1.5699   -3.2445 C   0  0  0  0  0  0  0  0  0  0  0  0
   -2.0558   -0.7980   -2.8738 C   0  0  0  0  0  0  0  0  0  0  0  0
   -2.8666   -0.1702   -3.7985 O   0  0  0  0  0  0  0  0  0  0  0  0
   -2.5590   -0.5597   -1.7410 O   0  0  0  0  0  0  0  0  0  0  0  0
    0.2657   -1.0546   -1.1428 N   0  0  0  0  0  0  0  0  0  0  0  0
    0.1506   -1.3873    0.2307 C   0  0  0  0  0  0  0  0  0  0  0  0
   -0.2150   -2.5319    0.5293 O   0  0  0  0  0  0  0  0  0  0  0  0
    0.3637   -0.6890    1.5021 C   0  0  0  0  0  0  0  0  0  0  0  0
   -0.1694   -1.4045    2.6763 C   0  0  0  0  0  0  0  0  0  0  0  0
   -1.6361   -1.4894    2.8017 C   0  0  2  0  0  0  0  0  0  0  0  0
   -1.9155   -2.2945    4.0075 N   0  0  0  0  0  0  0  0  0  0  0  0
   -2.3245   -2.6516    5.2843 C   0  0  0  0  0  0  0  0  0  0  0  0
   -2.7808   -1.5964    5.8564 O   0  0  0  0  0  0  0  0  0  0  0  0
   -2.2365   -3.9790    5.8454 C   0  0  0  0  0  0  0  0  0  0  0  0
   -2.5396   -4.0994    7.1571 C   0  0  0  0  0  0  0  0  0  0  0  0
   -2.4523   -5.3360    7.7436 C   0  0  0  0  0  0  0  0  0  0  0  0
   -2.0629   -6.4729    7.0386 C   0  0  0  0  0  0  0  0  0  0  0  0
   -1.9534   -7.7349    7.6431 N   0  0  0  0  0  0  0  0  0  0  0  0
   -1.5897   -9.0788    7.3073 C   0  0  0  0  0  0  0  0  0  0  0  0
   -0.1818   -9.2121    6.8227 C   0  0  0  0  0  0  0  0  0  0  0  0
    0.1608   -9.2863    5.4765 C   0  0  0  0  0  0  0  0  0  0  0  0
    1.3501   -9.3786    4.8848 N   0  0  0  0  0  0  0  0  0  0  0  0
    2.3899   -9.4034    5.7405 C   0  0  0  0  0  0  0  0  0  0  0  0
    3.6528   -9.4879    5.2680 N   0  0  0  0  0  0  0  0  0  0  0  0
    4.7215   -9.5100    6.1001 C   0  0  0  0  0  0  0  0  0  0  0  0
    5.9438   -9.5992    5.3708 N   0  0  0  0  0  0  0  0  0  0  0  0
    4.5082   -9.4446    7.4237 N   0  0  0  0  0  0  0  0  0  0  0  0
    3.2725   -9.3596    7.9569 C   0  0  0  0  0  0  0  0  0  0  0  0
    3.1531   -9.3019    9.1946 O   0  0  0  0  0  0  0  0  0  0  0  0
    2.1440   -9.3333    7.1749 C   0  0  0  0  0  0  0  0  0  0  0  0
    0.8740   -9.2398    7.6762 N   0  0  0  0  0  0  0  0  0  0  0  0
   -1.7808   -6.2436    5.7183 C   0  0  0  0  0  0  0  0  0  0  0  0
   -1.8472   -5.0332    5.0699 C   0  0  0  0  0  0  0  0  0  0  0  0
   -2.4267   -1.9639    1.6817 C   0  0  0  0  0  0  0  0  0  0  0  0
   -3.1650   -2.3922    0.6039 O   0  0  0  0  0  0  0  0  0  0  0  0
   -2.9361   -2.9069    2.3392 O   0  0  0  0  0  0  0  0  0  0  0  0
   -0.7109    0.7863   -9.5314 C   0  0  0  0  0  0  0  0  0  0  0  0
   -0.7890    2.0008  -10.2223 O   0  0  0  0  0  0  0  0  0  0  0  0
   -0.9235   -0.2374  -10.2645 O   0  0  0  0  0  0  0  0  0  0  0  0
    0.9772    5.3915    2.7392 C   0  0  1  0  0  0  0  0  0  0  0  0
    1.8879    4.3632    2.2493 C   0  0  0  0  0  0  0  0  0  0  0  0
    3.0799    4.4218    1.4509 C   0  0  1  0  0  0  0  0  0  0  0  0
    4.3380    5.1085    1.7062 C   0  0  0  0  0  0  0  0  0  0  0  0
    5.1337    4.6824    2.8352 N   0  0  0  0  0  0  0  0  0  0  0  0
    5.3684    3.2802    2.7373 C   0  0  0  0  0  0  0  0  0  0  0  0
    4.7613    2.4949    1.6632 C   0  0  2  0  0  0  0  0  0  0  0  0
    4.4911    1.2070    2.2699 O   0  0  0  0  0  0  0  0  0  0  0  0
    5.7535    2.0984    0.5642 C   0  0  0  0  0  0  0  0  0  0  0  0
    6.8905    1.2526    1.1331 C   0  0  0  0  0  0  0  0  0  0  0  0
    3.4570    2.9390    1.1455 C   0  0  0  0  0  0  0  0  0  0  0  0
    4.3715    4.8467    4.0847 C   0  0  0  0  0  0  0  0  0  0  0  0
    3.4461    6.0120    3.9375 C   0  0  0  0  0  0  0  0  0  0  0  0
    2.3467    6.0974    4.8840 C   0  0  0  0  0  0  0  0  0  0  0  0
    1.2204    5.7854    4.1434 C   0  0  0  0  0  0  0  0  0  0  0  0
    0.3216    5.9467    5.1806 N   0  0  0  0  0  0  0  0  0  0  0  0
    0.7979    6.2989    6.3776 C   0  0  0  0  0  0  0  0  0  0  0  0
    0.2849    6.5490    7.6223 C   0  0  0  0  0  0  0  0  0  0  0  0
    1.1557    6.8948    8.6349 C   0  0  0  0  0  0  0  0  0  0  0  0
    2.5243    6.9899    8.4013 C   0  0  0  0  0  0  0  0  0  0  0  0
    3.0621    6.7422    7.1565 C   0  0  0  0  0  0  0  0  0  0  0  0
    2.1404    6.4033    6.1993 C   0  0  0  0  0  0  0  0  0  0  0  0
   -0.3325    4.4487    2.9846 C   0  0  0  0  0  0  0  0  0  0  0  0
   -1.4425    3.9082    3.0243 O   0  0  0  0  0  0  0  0  0  0  0  0
   -0.0353    3.3501    3.7750 O   0  0  0  0  0  0  0  0  0  0  0  0
   -0.9656    2.3639    4.1451 C   0  0  0  0  0  0  0  0  0  0  0  0
   -3.1095    4.6585   -0.2733 H   0  0  0  0  0  0  0  0  0  0  0  0
   -5.9651    6.9488   -0.2150 H   0  0  0  0  0  0  0  0  0  0  0  0
   -5.2100    5.6884    0.8266 H   0  0  0  0  0  0  0  0  0  0  0  0
   -4.1478    8.2943   -0.0518 H   0  0  0  0  0  0  0  0  0  0  0  0
   -3.6290    7.2751    1.2901 H   0  0  0  0  0  0  0  0  0  0  0  0
   -1.2984    5.0681    1.1778 H   0  0  0  0  0  0  0  0  0  0  0  0
    1.5736   10.2357    2.0457 H   0  0  0  0  0  0  0  0  0  0  0  0
    3.1522    9.5599    2.7176 H   0  0  0  0  0  0  0  0  0  0  0  0
    2.8316    9.4638    0.9486 H   0  0  0  0  0  0  0  0  0  0  0  0
    0.4805    9.4893    0.4775 H   0  0  0  0  0  0  0  0  0  0  0  0
   -0.9833   10.6658   -0.7860 H   0  0  0  0  0  0  0  0  0  0  0  0
   -2.7383   10.5958   -0.3878 H   0  0  0  0  0  0  0  0  0  0  0  0
   -2.1513   10.4837   -2.1285 H   0  0  0  0  0  0  0  0  0  0  0  0
   -3.5179    8.1052   -2.0120 H   0  0  0  0  0  0  0  0  0  0  0  0
   -1.5513    8.9631   -3.8894 H   0  0  0  0  0  0  0  0  0  0  0  0
   -1.6976    5.4360   -4.1581 H   0  0  0  0  0  0  0  0  0  0  0  0
   -3.2550    6.6493   -4.9358 H   0  0  0  0  0  0  0  0  0  0  0  0
   -1.2583    3.5031   -3.1078 H   0  0  0  0  0  0  0  0  0  0  0  0
   -0.7140    4.2803   -1.5261 H   0  0  0  0  0  0  0  0  0  0  0  0
   -1.3625    1.8445   -1.4043 H   0  0  0  0  0  0  0  0  0  0  0  0
   -2.1444    2.8980   -0.2332 H   0  0  0  0  0  0  0  0  0  0  0  0
   -3.0464    2.3259   -1.6782 H   0  0  0  0  0  0  0  0  0  0  0  0
   -3.3851    3.6241   -3.9318 H   0  0  0  0  0  0  0  0  0  0  0  0
   -5.5545    3.0792   -3.2431 H   0  0  0  0  0  0  0  0  0  0  0  0
   -4.9445    3.7413   -0.4434 H   0  0  0  0  0  0  0  0  0  0  0  0
   -6.4289    4.5192   -1.1898 H   0  0  0  0  0  0  0  0  0  0  0  0
    0.2409    8.2152   -4.6288 H   0  0  0  0  0  0  0  0  0  0  0  0
    2.5287    7.5409   -2.6016 H   0  0  0  0  0  0  0  0  0  0  0  0
    4.0859    3.2239   -3.7290 H   0  0  0  0  0  0  0  0  0  0  0  0
    2.3266    3.2120   -4.0285 H   0  0  0  0  0  0  0  0  0  0  0  0
    4.4627    4.3170   -5.9227 H   0  0  0  0  0  0  0  0  0  0  0  0
    2.6311    4.3460   -6.1926 H   0  0  0  0  0  0  0  0  0  0  0  0
    0.9034    2.3709   -8.1482 H   0  0  0  0  0  0  0  0  0  0  0  0
    1.6167    0.8270   -8.5985 H   0  0  0  0  0  0  0  0  0  0  0  0
   -1.2361    1.1913   -7.5825 H   0  0  0  0  0  0  0  0  0  0  0  0
    0.3366   -1.4355   -7.6832 H   0  0  0  0  0  0  0  0  0  0  0  0
   -2.7336   -3.1593   -8.4025 H   0  0  0  0  0  0  0  0  0  0  0  0
   -2.7714   -2.3143   -5.4826 H   0  0  0  0  0  0  0  0  0  0  0  0
   -3.4386   -3.8110   -6.1795 H   0  0  0  0  0  0  0  0  0  0  0  0
   -6.1615   -1.7108   -5.5192 H   0  0  0  0  0  0  0  0  0  0  0  0
   -0.1976   -3.3698   -6.7127 H   0  0  0  0  0  0  0  0  0  0  0  0
   -0.1749   -6.5062   -8.2541 H   0  0  0  0  0  0  0  0  0  0  0  0
   -1.9318   -7.1241   -5.7835 H   0  0  0  0  0  0  0  0  0  0  0  0
   -0.8244   -8.2667   -6.6752 H   0  0  0  0  0  0  0  0  0  0  0  0
   -2.9536   -8.4993   -9.5577 H   0  0  0  0  0  0  0  0  0  0  0  0
    1.6601   -6.4042   -6.4348 H   0  0  0  0  0  0  0  0  0  0  0  0
    2.3162   -4.8627   -4.2128 H   0  0  0  0  0  0  0  0  0  0  0  0
    0.3840   -6.5239   -2.5951 H   0  0  0  0  0  0  0  0  0  0  0  0
    2.0850   -6.0121   -2.2100 H   0  0  0  0  0  0  0  0  0  0  0  0
    1.2620   -7.8522   -4.4819 H   0  0  0  0  0  0  0  0  0  0  0  0
    2.9629   -7.3442   -4.0849 H   0  0  0  0  0  0  0  0  0  0  0  0
    2.6766   -8.2997   -1.8084 H   0  0  0  0  0  0  0  0  0  0  0  0
    2.4357   -9.5530   -3.0706 H   0  0  0  0  0  0  0  0  0  0  0  0
   -0.3236   -8.5269   -2.3571 H   0  0  0  0  0  0  0  0  0  0  0  0
   -0.9312  -11.3858   -0.4828 H   0  0  0  0  0  0  0  0  0  0  0  0
   -1.0675   -9.9295    0.2055 H   0  0  0  0  0  0  0  0  0  0  0  0
    2.5513  -10.5209   -0.7896 H   0  0  0  0  0  0  0  0  0  0  0  0
   -0.4718   -4.2766   -3.2415 H   0  0  0  0  0  0  0  0  0  0  0  0
   -0.7643   -2.8286   -1.5188 H   0  0  0  0  0  0  0  0  0  0  0  0
   -0.1422   -0.9869   -3.8824 H   0  0  0  0  0  0  0  0  0  0  0  0
   -1.1722   -2.4637   -3.8083 H   0  0  0  0  0  0  0  0  0  0  0  0
   -3.1036    0.8257   -3.6888 H   0  0  0  0  0  0  0  0  0  0  0  0
    0.6049   -0.0775   -1.2274 H   0  0  0  0  0  0  0  0  0  0  0  0
   -0.0632    0.3562    1.4785 H   0  0  0  0  0  0  0  0  0  0  0  0
    1.4683   -0.4931    1.6625 H   0  0  0  0  0  0  0  0  0  0  0  0
    0.2235   -2.4740    2.6675 H   0  0  0  0  0  0  0  0  0  0  0  0
    0.2613   -0.9550    3.6190 H   0  0  0  0  0  0  0  0  0  0  0  0
   -2.0563   -0.4461    3.0632 H   0  0  0  0  0  0  0  0  0  0  0  0
   -1.5150   -3.1693    3.5343 H   0  0  0  0  0  0  0  0  0  0  0  0
   -2.8383   -3.2473    7.7143 H   0  0  0  0  0  0  0  0  0  0  0  0
   -2.6996   -5.4089    8.7935 H   0  0  0  0  0  0  0  0  0  0  0  0
   -2.2227   -7.6955    8.6788 H   0  0  0  0  0  0  0  0  0  0  0  0
   -2.2210   -9.4667    6.4593 H   0  0  0  0  0  0  0  0  0  0  0  0
   -1.7189   -9.7840    8.1398 H   0  0  0  0  0  0  0  0  0  0  0  0
   -0.6958   -9.2669    4.7999 H   0  0  0  0  0  0  0  0  0  0  0  0
    1.4517   -9.4269    3.8655 H   0  0  0  0  0  0  0  0  0  0  0  0
    6.5834  -10.3606    5.1318 H   0  0  0  0  0  0  0  0  0  0  0  0
    6.3837   -8.7738    4.9334 H   0  0  0  0  0  0  0  0  0  0  0  0
   -1.4863   -7.0722    5.1135 H   0  0  0  0  0  0  0  0  0  0  0  0
   -1.5971   -5.0004    4.0239 H   0  0  0  0  0  0  0  0  0  0  0  0
   -3.9378   -1.8959    0.2140 H   0  0  0  0  0  0  0  0  0  0  0  0
   -0.5124    2.0810  -11.1777 H   0  0  0  0  0  0  0  0  0  0  0  0
    2.0538    3.5664    3.0636 H   0  0  0  0  0  0  0  0  0  0  0  0
    1.2336    3.6153    1.5625 H   0  0  0  0  0  0  0  0  0  0  0  0
    2.7620    4.7895    0.4043 H   0  0  0  0  0  0  0  0  0  0  0  0
    5.0112    4.7467    0.8384 H   0  0  0  0  0  0  0  0  0  0  0  0
    4.3156    6.1597    1.4651 H   0  0  0  0  0  0  0  0  0  0  0  0
    5.2493    2.7666    3.7339 H   0  0  0  0  0  0  0  0  0  0  0  0
    6.5058    3.1982    2.5894 H   0  0  0  0  0  0  0  0  0  0  0  0
    4.3229    0.6067    1.5230 H   0  0  0  0  0  0  0  0  0  0  0  0
    5.2486    1.4054   -0.1640 H   0  0  0  0  0  0  0  0  0  0  0  0
    6.2292    2.9555    0.0761 H   0  0  0  0  0  0  0  0  0  0  0  0
    7.3509    0.6217    0.3489 H   0  0  0  0  0  0  0  0  0  0  0  0
    7.7152    1.9789    1.4116 H   0  0  0  0  0  0  0  0  0  0  0  0
    6.5788    0.7255    2.0361 H   0  0  0  0  0  0  0  0  0  0  0  0
    3.4807    2.7718    0.0271 H   0  0  0  0  0  0  0  0  0  0  0  0
    2.6060    2.2689    1.4640 H   0  0  0  0  0  0  0  0  0  0  0  0
    3.8515    3.9591    4.3815 H   0  0  0  0  0  0  0  0  0  0  0  0
    5.1738    5.0269    4.8340 H   0  0  0  0  0  0  0  0  0  0  0  0
    4.1543    6.9133    4.1791 H   0  0  0  0  0  0  0  0  0  0  0  0
    3.2180    6.2738    2.9111 H   0  0  0  0  0  0  0  0  0  0  0  0
   -0.7417    5.8234    5.1262 H   0  0  0  0  0  0  0  0  0  0  0  0
   -0.7769    6.4690    7.7745 H   0  0  0  0  0  0  0  0  0  0  0  0
    0.7380    7.0908    9.6225 H   0  0  0  0  0  0  0  0  0  0  0  0
    3.2064    7.2632    9.2034 H   0  0  0  0  0  0  0  0  0  0  0  0
    4.1042    6.8082    6.9458 H   0  0  0  0  0  0  0  0  0  0  0  0
   -1.7004    2.8464    4.8402 H   0  0  0  0  0  0  0  0  0  0  0  0
   -1.4541    1.8878    3.2827 H   0  0  0  0  0  0  0  0  0  0  0  0
   -0.4074    1.5684    4.7237 H   0  0  0  0  0  0  0  0  0  0  0  0
  1  2  1  0
  2  3  1  0
  3  4  1  0
  5  4  1  1
  5  6  1  0
  6  7  2  0
  7  8  1  0
  8  9  2  0
  9 10  1  0
 10 11  1  0
  9 12  1  0
 12 13  2  0
 13 14  1  0
 14 15  1  0
 14 16  1  0
 16 17  1  0
 17 18  1  6
 17 19  1  0
 19 20  1  0
 19 21  1  0
 21 22  1  1
 22 23  1  0
 21 24  1  0
 24 25  2  0
 25 26  1  0
 17 27  1  0
 27 28  2  0
 27 29  1  0
 29 30  1  0
 30 31  1  0
 31 32  2  0
 31 33  1  0
 33 34  1  0
 34 35  1  0
 35 36  1  0
 36 37  1  0
 37 38  1  0
 38 39  1  0
 39 40  1  0
 40 41  1  0
 41 42  2  0
 41 43  1  0
 43 44  1  0
 44 45  1  0
 45 46  1  0
 45 47  2  0
 43 48  1  0
 48 49  1  0
 49 50  2  0
 49 51  1  0
 51 52  1  0
 52 53  1  0
 53 54  1  0
 53 55  2  0
 51 56  1  0
 56 57  1  0
 57 58  2  0
 57 59  1  0
 59 60  1  0
 60 61  1  0
 61 62  1  0
 62 63  1  0
 63 64  1  0
 64 65  1  0
 64 66  2  3
 59 67  1  0
 67 68  1  0
 68 69  2  0
 68 70  1  0
 70 71  1  0
 71 72  1  0
 72 73  1  0
 72 74  2  0
 70 75  1  0
 75 76  1  0
 76 77  2  0
 76 78  1  0
 78 79  1  0
 79 80  1  0
 80 81  1  0
 81 82  1  0
 82 83  2  0
 82 84  1  0
 84 85  2  0
 85 86  1  0
 86 87  2  0
 87 88  1  0
 88 89  1  0
 89 90  1  0
 90 91  2  0
 91 92  1  0
 92 93  1  0
 93 94  2  0
 94 95  1  0
 95 96  1  0
 95 97  2  0
 97 98  1  0
 98 99  2  0
 98100  1  0
100101  2  0
 87102  1  0
102103  2  0
 80104  1  0
104105  1  0
104106  2  0
 39107  1  0
107108  1  0
107109  2  0
  8110  1  0
110111  1  0
111112  1  0
112113  1  0
113114  1  0
114115  1  6
115116  1  0
116117  1  1
116118  1  0
118119  1  0
116120  1  0
114121  1  0
121122  1  0
122123  1  0
123124  2  0
124125  1  0
125126  1  0
126127  2  0
127128  1  0
128129  2  0
129130  1  0
130131  2  0
110132  1  1
132133  2  0
132134  1  0
134135  1  0
  5  1  1  0
 16  5  1  0
103 84  1  0
124110  1  0
131126  1  0
 21  1  1  0
101 90  1  0
120112  1  0
131123  1  0
 26  2  1  0
100 93  1  0
 13  6  1  0
  1136  1  1
  3137  1  0
  3138  1  0
  4139  1  0
  4140  1  0
  7141  1  0
 11142  1  0
 11143  1  0
 11144  1  0
 12145  1  0
 15146  1  0
 15147  1  0
 15148  1  0
 16149  1  6
 18150  1  0
 19151  1  6
 20152  1  0
 22153  1  0
 22154  1  0
 23155  1  0
 23156  1  0
 23157  1  0
 24158  1  0
 25159  1  0
 26160  1  0
 26161  1  0
 29162  1  0
 30163  1  0
 34164  1  0
 34165  1  0
 35166  1  0
 35167  1  0
 38168  1  0
 38169  1  0
 39170  1  1
 40171  1  0
 43172  1  6
 44173  1  0
 44174  1  0
 46175  1  0
 48176  1  0
 51177  1  6
 52178  1  0
 52179  1  0
 54180  1  0
 56181  1  0
 59182  1  6
 60183  1  0
 60184  1  0
 61185  1  0
 61186  1  0
 62187  1  0
 62188  1  0
 63189  1  0
 65190  1  0
 65191  1  0
 66192  1  0
 67193  1  0
 70194  1  1
 71195  1  0
 71196  1  0
 73197  1  0
 75198  1  0
 78199  1  0
 78200  1  0
 79201  1  0
 79202  1  0
 80203  1  1
 81204  1  0
 85205  1  0
 86206  1  0
 88207  1  0
 89208  1  0
 89209  1  0
 91210  1  0
 92211  1  0
 96212  1  0
 96213  1  0
102214  1  0
103215  1  0
105216  1  0
108217  1  0
111218  1  0
111219  1  0
112220  1  6
113221  1  0
113222  1  0
115223  1  0
115224  1  0
117225  1  0
118226  1  0
118227  1  0
119228  1  0
119229  1  0
119230  1  0
120231  1  0
120232  1  0
121233  1  0
121234  1  0
122235  1  0
122236  1  0
125237  1  0
127238  1  0
128239  1  0
129240  1  0
130241  1  0
135242  1  0
135243  1  0
135244  1  0
M  END
$$$$
