@<TRIPOS>MOLECULE
*****
 31 31 0 0 0
SMALL
GASTEIGER

@<TRIPOS>ATOM
      1 C           2.8406    1.9710   -0.2672 C.3     1  UNL1       -0.0306
      2 C           2.2617    1.4621    1.0320 C.3     1  UNL1        0.0898
      3 O           1.2419    0.5366    0.7716 O.3     1  UNL1       -0.4622
      4 C           1.4479   -0.6430    0.0675 C.2     1  UNL1        0.3508
      5 O           2.6069   -0.9055   -0.3642 O.2     1  UNL1       -0.2463
      6 C           0.4410   -1.6868   -0.2614 C.3     1  UNL1        0.2005
      7 C           0.4824   -1.8798   -1.7475 C.3     1  UNL1       -0.0145
      8 C           0.8741   -3.0086    0.3832 C.3     1  UNL1       -0.0145
      9 O          -0.7748   -1.2949    0.2497 O.3     1  UNL1       -0.4750
     10 C          -1.5419   -0.2007    0.0090 C.ar    1  UNL1        0.1222
     11 C          -1.3651    0.8868   -0.8293 C.ar    1  UNL1       -0.0185
     12 C          -2.3035    1.8890   -0.8991 C.ar    1  UNL1       -0.0399
     13 C          -3.4414    1.8584   -0.1526 C.ar    1  UNL1        0.0412
     14 CL         -4.6158    3.1618   -0.2728 Cl      1  UNL1       -0.0835
     15 C          -3.6591    0.8031    0.6904 C.ar    1  UNL1       -0.0399
     16 C          -2.7190   -0.2152    0.7698 C.ar    1  UNL1       -0.0185
     17 H           3.5987    1.2432   -0.6074 H       1  UNL1        0.0262
     18 H           2.0242    2.0850   -1.0290 H       1  UNL1        0.0262
     19 H           3.2589    2.9756   -0.1432 H       1  UNL1        0.0262
     20 H           1.7875    2.3389    1.5417 H       1  UNL1        0.0694
     21 H           3.0946    1.0426    1.6324 H       1  UNL1        0.0694
     22 H           1.2323   -2.6649   -1.9787 H       1  UNL1        0.0273
     23 H          -0.4895   -2.1896   -2.1592 H       1  UNL1        0.0273
     24 H           0.8998   -0.9628   -2.2587 H       1  UNL1        0.0273
     25 H           0.0304   -3.6961    0.2483 H       1  UNL1        0.0273
     26 H           1.1173   -2.8773    1.4374 H       1  UNL1        0.0273
     27 H           1.7629   -3.3541   -0.2110 H       1  UNL1        0.0273
     28 H          -0.4366    0.8238   -1.3808 H       1  UNL1        0.0654
     29 H          -2.0777    2.6975   -1.5826 H       1  UNL1        0.0633
     30 H          -4.5699    0.8071    1.2688 H       1  UNL1        0.0633
     31 H          -3.0084   -1.0032    1.4802 H       1  UNL1        0.0654
@<TRIPOS>BOND
     1     1     2    1
     2     2     3    1
     3     3     4    1
     4     4     5    2
     5     4     6    1
     6     6     7    1
     7     6     8    1
     8     6     9    1
     9     9    10    1
    10    10    11   ar
    11    11    12   ar
    12    12    13   ar
    13    13    14    1
    14    13    15   ar
    15    15    16   ar
    16    16    10   ar
    17     1    17    1
    18     1    18    1
    19     1    19    1
    20     2    20    1
    21     2    21    1
    22     7    22    1
    23     7    23    1
    24     7    24    1
    25     8    25    1
    26     8    26    1
    27     8    27    1
    28    11    28    1
    29    12    29    1
    30    15    30    1
    31    16    31    1
