
     RDKit          3D

 33 34  0  0  0  0  0  0  0  0999 V2000
   -2.2759    2.8380   -2.3558 N   0  0  0  0  0  0  0  0  0  0  0  0
   -2.5777    1.8547   -1.8279 C   0  0  0  0  0  0  0  0  0  0  0  0
   -2.9538    0.6008   -1.1774 C   0  0  2  0  0  0  0  0  0  0  0  0
   -4.4316    0.5541   -0.9684 C   0  0  0  0  0  0  0  0  0  0  0  0
   -4.5909   -0.0284    0.3958 C   0  0  0  0  0  0  0  0  0  0  0  0
   -3.3232    0.3843    1.1257 C   0  0  0  0  0  0  0  0  0  0  0  0
   -2.3048    0.4480    0.0994 N   0  0  0  0  0  0  0  0  0  0  0  0
   -0.9235    0.3688    0.3279 C   0  0  0  0  0  0  0  0  0  0  0  0
   -0.4969    0.2334    1.5112 O   0  0  0  0  0  0  0  0  0  0  0  0
    0.0269    0.4421   -0.8031 C   0  0  0  0  0  0  0  0  0  0  0  0
    1.4059    0.3396   -0.3686 N   0  0  0  0  0  0  0  0  0  0  0  0
    1.9231   -0.7685    0.3162 C   0  0  0  0  0  0  0  0  0  0  0  0
    1.1474   -1.7342    0.5710 O   0  0  0  0  0  0  0  0  0  0  0  0
    3.3342   -0.8088    0.7293 C   0  0  0  0  0  0  0  0  0  0  0  0
    4.2234    0.2014    0.4851 C   0  0  0  0  0  0  0  0  0  0  0  0
    5.5222    0.0923    0.9005 C   0  0  0  0  0  0  0  0  0  0  0  0
    5.9448   -0.9892    1.5453 N   0  0  0  0  0  0  0  0  0  0  0  0
    5.1092   -2.0011    1.8053 C   0  0  0  0  0  0  0  0  0  0  0  0
    3.8133   -1.9312    1.4098 C   0  0  0  0  0  0  0  0  0  0  0  0
   -2.6537   -0.2736   -1.7942 H   0  0  0  0  0  0  0  0  0  0  0  0
   -4.9125    1.5634   -1.0571 H   0  0  0  0  0  0  0  0  0  0  0  0
   -4.8970   -0.0730   -1.7626 H   0  0  0  0  0  0  0  0  0  0  0  0
   -4.6372   -1.1461    0.2858 H   0  0  0  0  0  0  0  0  0  0  0  0
   -5.4332    0.3720    0.9647 H   0  0  0  0  0  0  0  0  0  0  0  0
   -3.1196   -0.4389    1.8671 H   0  0  0  0  0  0  0  0  0  0  0  0
   -3.4649    1.3454    1.6569 H   0  0  0  0  0  0  0  0  0  0  0  0
   -0.1278    1.3928   -1.3289 H   0  0  0  0  0  0  0  0  0  0  0  0
   -0.1734   -0.3877   -1.5007 H   0  0  0  0  0  0  0  0  0  0  0  0
    2.0250    1.1420   -0.5874 H   0  0  0  0  0  0  0  0  0  0  0  0
    3.9228    1.0928   -0.0331 H   0  0  0  0  0  0  0  0  0  0  0  0
    6.2151    0.9152    0.6929 H   0  0  0  0  0  0  0  0  0  0  0  0
    5.5311   -2.8544    2.3387 H   0  0  0  0  0  0  0  0  0  0  0  0
    3.1532   -2.7458    1.6225 H   0  0  0  0  0  0  0  0  0  0  0  0
  1  2  3  0
  2  3  1  0
  3  4  1  0
  4  5  1  0
  5  6  1  0
  6  7  1  0
  7  8  1  0
  8  9  2  0
  8 10  1  0
 10 11  1  0
 11 12  1  0
 12 13  2  0
 12 14  1  0
 14 15  2  0
 15 16  1  0
 16 17  2  0
 17 18  1  0
 18 19  2  0
  7  3  1  0
 19 14  1  0
  3 20  1  6
  4 21  1  0
  4 22  1  0
  5 23  1  0
  5 24  1  0
  6 25  1  0
  6 26  1  0
 10 27  1  0
 10 28  1  0
 11 29  1  0
 15 30  1  0
 16 31  1  0
 18 32  1  0
 19 33  1  0
M  END
$$$$
