@<TRIPOS>MOLECULE
*****
 33 34 0 0 0
SMALL
GASTEIGER

@<TRIPOS>ATOM
      1 N          -2.2759    2.8380   -2.3558 N.1     1  UNL1       -0.1946
      2 C          -2.5777    1.8547   -1.8279 C.1     1  UNL1        0.0851
      3 C          -2.9538    0.6008   -1.1774 C.3     1  UNL1        0.1129
      4 C          -4.4316    0.5541   -0.9684 C.3     1  UNL1       -0.0196
      5 C          -4.5909   -0.0284    0.3958 C.3     1  UNL1       -0.0345
      6 C          -3.3232    0.3843    1.1257 C.3     1  UNL1        0.0161
      7 N          -2.3048    0.4480    0.0994 N.am    1  UNL1       -0.2844
      8 C          -0.9235    0.3688    0.3279 C.2     1  UNL1        0.2337
      9 O          -0.4969    0.2334    1.5112 O.2     1  UNL1       -0.2738
     10 C           0.0269    0.4421   -0.8031 C.3     1  UNL1        0.0886
     11 N           1.4059    0.3396   -0.3686 N.am    1  UNL1       -0.3027
     12 C           1.9231   -0.7685    0.3162 C.2     1  UNL1        0.2446
     13 O           1.1474   -1.7342    0.5710 O.2     1  UNL1       -0.2702
     14 C           3.3342   -0.8088    0.7293 C.ar    1  UNL1        0.0396
     15 C           4.2234    0.2014    0.4851 C.ar    1  UNL1       -0.0315
     16 C           5.5222    0.0923    0.9005 C.ar    1  UNL1        0.0283
     17 N           5.9448   -0.9892    1.5453 N.ar    1  UNL1       -0.2632
     18 C           5.1092   -2.0011    1.8053 C.ar    1  UNL1        0.0283
     19 C           3.8133   -1.9312    1.4098 C.ar    1  UNL1       -0.0315
     20 H          -2.6537   -0.2736   -1.7942 H       1  UNL1        0.0659
     21 H          -4.9125    1.5634   -1.0571 H       1  UNL1        0.0294
     22 H          -4.8970   -0.0730   -1.7626 H       1  UNL1        0.0294
     23 H          -4.6372   -1.1461    0.2858 H       1  UNL1        0.0281
     24 H          -5.4332    0.3720    0.9647 H       1  UNL1        0.0281
     25 H          -3.1196   -0.4389    1.8671 H       1  UNL1        0.0465
     26 H          -3.4649    1.3454    1.6569 H       1  UNL1        0.0465
     27 H          -0.1278    1.3928   -1.3289 H       1  UNL1        0.0558
     28 H          -0.1734   -0.3877   -1.5007 H       1  UNL1        0.0558
     29 H           2.0250    1.1420   -0.5874 H       1  UNL1        0.1495
     30 H           3.9228    1.0928   -0.0331 H       1  UNL1        0.0640
     31 H           6.2151    0.9152    0.6929 H       1  UNL1        0.0830
     32 H           5.5311   -2.8544    2.3387 H       1  UNL1        0.0830
     33 H           3.1532   -2.7458    1.6225 H       1  UNL1        0.0640
@<TRIPOS>BOND
     1     1     2    3
     2     2     3    1
     3     3     4    1
     4     4     5    1
     5     5     6    1
     6     6     7    1
     7     7     8   am
     8     8     9    2
     9     8    10    1
    10    10    11    1
    11    11    12   am
    12    12    13    2
    13    12    14    1
    14    14    15   ar
    15    15    16   ar
    16    16    17   ar
    17    17    18   ar
    18    18    19   ar
    19     7     3    1
    20    19    14   ar
    21     3    20    1
    22     4    21    1
    23     4    22    1
    24     5    23    1
    25     5    24    1
    26     6    25    1
    27     6    26    1
    28    10    27    1
    29    10    28    1
    30    11    29    1
    31    15    30    1
    32    16    31    1
    33    18    32    1
    34    19    33    1
