
     RDKit          3D

 72 77  0  0  0  0  0  0  0  0999 V2000
    6.8688   -1.2406   -1.5023 C   0  0  0  0  0  0  0  0  0  0  0  0
    7.4053   -0.2862   -0.5154 C   0  0  0  0  0  0  0  0  0  0  0  0
    8.7867   -0.1097   -0.4254 C   0  0  0  0  0  0  0  0  0  0  0  0
    9.3623    0.7713    0.4653 C   0  0  0  0  0  0  0  0  0  0  0  0
   10.8018    0.9585    0.5617 C   0  0  0  0  0  0  0  0  0  0  0  0
   11.6105    0.3293   -0.1572 O   0  0  0  0  0  0  0  0  0  0  0  0
   11.3048    1.8636    1.4793 O   0  0  0  0  0  0  0  0  0  0  0  0
    8.4998    1.4870    1.2819 C   0  0  0  0  0  0  0  0  0  0  0  0
    7.1308    1.3413    1.2238 C   0  0  0  0  0  0  0  0  0  0  0  0
    6.5882    0.4361    0.3053 C   0  0  0  0  0  0  0  0  0  0  0  0
    5.1388    0.2519    0.2247 C   0  0  0  0  0  0  0  0  0  0  0  0
    4.2795    1.3257    0.1452 C   0  0  0  0  0  0  0  0  0  0  0  0
    2.8900    1.1595    0.0808 C   0  0  0  0  0  0  0  0  0  0  0  0
    2.3390   -0.1004    0.0954 C   0  0  0  0  0  0  0  0  0  0  0  0
    0.9187   -0.2675    0.0274 N   0  0  0  0  0  0  0  0  0  0  0  0
    0.1715   -1.4722    0.0569 C   0  0  0  0  0  0  0  0  0  0  0  0
    0.6796   -2.6381    0.1531 O   0  0  0  0  0  0  0  0  0  0  0  0
   -1.2341   -1.2287   -0.0344 N   0  0  0  0  0  0  0  0  0  0  0  0
   -2.1926   -2.2884   -0.1830 C   0  0  0  0  0  0  0  0  0  0  0  0
   -3.4961   -2.0714   -0.2286 N   0  0  0  0  0  0  0  0  0  0  0  0
   -4.4481   -2.9982   -0.3679 C   0  0  0  0  0  0  0  0  0  0  0  0
   -4.0468   -4.3217   -0.4764 C   0  0  0  0  0  0  0  0  0  0  0  0
   -2.7004   -4.5921   -0.4339 C   0  0  0  0  0  0  0  0  0  0  0  0
   -1.7988   -3.5790   -0.2887 N   0  0  0  0  0  0  0  0  0  0  0  0
   -1.4416    0.1791    0.0536 C   0  0  0  0  0  0  0  0  0  0  0  0
   -1.9344    0.6245    1.4018 C   0  0  0  0  0  0  0  0  0  0  0  0
   -3.1277    1.5213    1.3733 C   0  0  0  0  0  0  0  0  0  0  0  0
   -4.1548    1.0234    0.4703 N   0  0  0  0  0  0  0  0  0  0  0  0
   -5.2863    1.9260    0.6118 C   0  0  0  0  0  0  0  0  0  0  0  0
   -6.4263    1.5204   -0.2334 C   0  0  0  0  0  0  0  0  0  0  0  0
   -6.6669    2.1874   -1.3668 N   0  0  0  0  0  0  0  0  0  0  0  0
   -7.6927    1.8515   -2.1724 C   0  0  0  0  0  0  0  0  0  0  0  0
   -8.5112    0.8080   -1.8330 C   0  0  0  0  0  0  0  0  0  0  0  0
   -8.3155    0.0840   -0.6812 C   0  0  0  0  0  0  0  0  0  0  0  0
   -7.2378    0.4704    0.1228 C   0  0  0  0  0  0  0  0  0  0  0  0
   -6.9642   -0.2660    1.3884 C   0  0  0  0  0  0  0  0  0  0  0  0
   -3.6762    0.9756   -0.8898 C   0  0  0  0  0  0  0  0  0  0  0  0
   -2.2204    0.7960   -1.0556 C   0  0  0  0  0  0  0  0  0  0  0  0
   -0.0402    0.7568   -0.0862 C   0  0  0  0  0  0  0  0  0  0  0  0
    0.1216    1.9968   -0.2756 O   0  0  0  0  0  0  0  0  0  0  0  0
    3.2231   -1.1467    0.1753 C   0  0  0  0  0  0  0  0  0  0  0  0
    4.6020   -1.0043    0.2401 C   0  0  0  0  0  0  0  0  0  0  0  0
    7.5334   -1.1313   -2.4144 H   0  0  0  0  0  0  0  0  0  0  0  0
    7.0420   -2.3160   -1.2078 H   0  0  0  0  0  0  0  0  0  0  0  0
    5.8575   -1.0409   -1.8548 H   0  0  0  0  0  0  0  0  0  0  0  0
    9.4433   -0.6791   -1.0724 H   0  0  0  0  0  0  0  0  0  0  0  0
   12.2539    2.2213    1.4601 H   0  0  0  0  0  0  0  0  0  0  0  0
    8.9423    2.1936    1.9978 H   0  0  0  0  0  0  0  0  0  0  0  0
    6.4444    1.8850    1.8464 H   0  0  0  0  0  0  0  0  0  0  0  0
    4.7067    2.3220    0.1329 H   0  0  0  0  0  0  0  0  0  0  0  0
    2.3155    2.0545    0.0241 H   0  0  0  0  0  0  0  0  0  0  0  0
   -5.5113   -2.7552   -0.3990 H   0  0  0  0  0  0  0  0  0  0  0  0
   -4.7637   -5.1242   -0.5914 H   0  0  0  0  0  0  0  0  0  0  0  0
   -2.2890   -5.5934   -0.5103 H   0  0  0  0  0  0  0  0  0  0  0  0
   -1.1493    1.1542    1.9850 H   0  0  0  0  0  0  0  0  0  0  0  0
   -2.1883   -0.2648    2.0503 H   0  0  0  0  0  0  0  0  0  0  0  0
   -3.5735    1.5240    2.3885 H   0  0  0  0  0  0  0  0  0  0  0  0
   -2.9076    2.5659    1.1048 H   0  0  0  0  0  0  0  0  0  0  0  0
   -4.9399    2.9421    0.4064 H   0  0  0  0  0  0  0  0  0  0  0  0
   -5.5641    1.8970    1.6980 H   0  0  0  0  0  0  0  0  0  0  0  0
   -7.8570    2.4125   -3.0811 H   0  0  0  0  0  0  0  0  0  0  0  0
   -9.3487    0.5162   -2.4685 H   0  0  0  0  0  0  0  0  0  0  0  0
   -8.9562   -0.7326   -0.4158 H   0  0  0  0  0  0  0  0  0  0  0  0
   -7.6785   -1.1058    1.4893 H   0  0  0  0  0  0  0  0  0  0  0  0
   -7.1283    0.4836    2.2073 H   0  0  0  0  0  0  0  0  0  0  0  0
   -5.9261   -0.6416    1.4032 H   0  0  0  0  0  0  0  0  0  0  0  0
   -3.9404    1.9545   -1.4159 H   0  0  0  0  0  0  0  0  0  0  0  0
   -4.2243    0.2226   -1.5184 H   0  0  0  0  0  0  0  0  0  0  0  0
   -1.7415    1.8059   -1.2837 H   0  0  0  0  0  0  0  0  0  0  0  0
   -2.0473    0.2404   -2.0211 H   0  0  0  0  0  0  0  0  0  0  0  0
    2.8319   -2.1618    0.1888 H   0  0  0  0  0  0  0  0  0  0  0  0
    5.2538   -1.8830    0.3057 H   0  0  0  0  0  0  0  0  0  0  0  0
  1  2  1  0
  2  3  2  0
  3  4  1  0
  4  5  1  0
  5  6  2  0
  5  7  1  0
  4  8  2  0
  8  9  1  0
  9 10  2  0
 10 11  1  0
 11 12  2  0
 12 13  1  0
 13 14  2  0
 14 15  1  0
 15 16  1  0
 16 17  2  0
 16 18  1  0
 18 19  1  0
 19 20  2  0
 20 21  1  0
 21 22  2  0
 22 23  1  0
 23 24  2  0
 18 25  1  0
 25 26  1  0
 26 27  1  0
 27 28  1  0
 28 29  1  0
 29 30  1  0
 30 31  2  0
 31 32  1  0
 32 33  2  0
 33 34  1  0
 34 35  2  0
 35 36  1  0
 28 37  1  0
 37 38  1  0
 25 39  1  0
 39 40  2  0
 14 41  1  0
 41 42  2  0
 10  2  1  0
 42 11  1  0
 39 15  1  0
 24 19  1  0
 38 25  1  0
 35 30  1  0
  1 43  1  0
  1 44  1  0
  1 45  1  0
  3 46  1  0
  7 47  1  0
  8 48  1  0
  9 49  1  0
 12 50  1  0
 13 51  1  0
 21 52  1  0
 22 53  1  0
 23 54  1  0
 26 55  1  0
 26 56  1  0
 27 57  1  0
 27 58  1  0
 29 59  1  0
 29 60  1  0
 32 61  1  0
 33 62  1  0
 34 63  1  0
 36 64  1  0
 36 65  1  0
 36 66  1  0
 37 67  1  0
 37 68  1  0
 38 69  1  0
 38 70  1  0
 41 71  1  0
 42 72  1  0
M  END
$$$$
