@<TRIPOS>MOLECULE
*****
 72 77 0 0 0
SMALL
GASTEIGER

@<TRIPOS>ATOM
      1 C           6.8688   -1.2406   -1.5023 C.3     1  UNL1       -0.0391
      2 C           7.4053   -0.2862   -0.5154 C.ar    1  UNL1       -0.0420
      3 C           8.7867   -0.1097   -0.4254 C.ar    1  UNL1       -0.0443
      4 C           9.3623    0.7713    0.4653 C.ar    1  UNL1        0.0591
      5 C          10.8018    0.9585    0.5617 C.2     1  UNL1        0.3368
      6 O          11.6105    0.3293   -0.1572 O.2     1  UNL1       -0.2451
      7 O          11.3048    1.8636    1.4793 O.3     1  UNL1       -0.4771
      8 C           8.4998    1.4870    1.2819 C.ar    1  UNL1       -0.0472
      9 C           7.1308    1.3413    1.2238 C.ar    1  UNL1       -0.0530
     10 C           6.5882    0.4361    0.3053 C.ar    1  UNL1       -0.0149
     11 C           5.1388    0.2519    0.2247 C.ar    1  UNL1       -0.0175
     12 C           4.2795    1.3257    0.1452 C.ar    1  UNL1       -0.0523
     13 C           2.8900    1.1595    0.0808 C.ar    1  UNL1       -0.0392
     14 C           2.3390   -0.1004    0.0954 C.ar    1  UNL1        0.0455
     15 N           0.9187   -0.2675    0.0274 N.am    1  UNL1       -0.1920
     16 C           0.1715   -1.4722    0.0569 C.2     1  UNL1        0.3230
     17 O           0.6796   -2.6381    0.1531 O.2     1  UNL1       -0.2511
     18 N          -1.2341   -1.2287   -0.0344 N.am    1  UNL1       -0.2083
     19 C          -2.1926   -2.2884   -0.1830 C.ar    1  UNL1        0.2263
     20 N          -3.4961   -2.0714   -0.2286 N.ar    1  UNL1       -0.2224
     21 C          -4.4481   -2.9982   -0.3679 C.ar    1  UNL1        0.0326
     22 C          -4.0468   -4.3217   -0.4764 C.ar    1  UNL1       -0.0253
     23 C          -2.7004   -4.5921   -0.4339 C.ar    1  UNL1        0.0326
     24 N          -1.7988   -3.5790   -0.2887 N.ar    1  UNL1       -0.2224
     25 C          -1.4416    0.1791    0.0536 C.3     1  UNL1        0.1254
     26 C          -1.9344    0.6245    1.4018 C.3     1  UNL1       -0.0095
     27 C          -3.1277    1.5213    1.3733 C.3     1  UNL1        0.0017
     28 N          -4.1548    1.0234    0.4703 N.3     1  UNL1       -0.2965
     29 C          -5.2863    1.9260    0.6118 C.3     1  UNL1        0.0415
     30 C          -6.4263    1.5204   -0.2334 C.ar    1  UNL1        0.0581
     31 N          -6.6669    2.1874   -1.3668 N.ar    1  UNL1       -0.2583
     32 C          -7.6927    1.8515   -2.1724 C.ar    1  UNL1        0.0279
     33 C          -8.5112    0.8080   -1.8330 C.ar    1  UNL1       -0.0433
     34 C          -8.3155    0.0840   -0.6812 C.ar    1  UNL1       -0.0557
     35 C          -7.2378    0.4704    0.1228 C.ar    1  UNL1       -0.0279
     36 C          -6.9642   -0.2660    1.3884 C.3     1  UNL1       -0.0380
     37 C          -3.6762    0.9756   -0.8898 C.3     1  UNL1        0.0017
     38 C          -2.2204    0.7960   -1.0556 C.3     1  UNL1       -0.0095
     39 C          -0.0402    0.7568   -0.0862 C.2     1  UNL1        0.2517
     40 O           0.1216    1.9968   -0.2756 O.2     1  UNL1       -0.2724
     41 C           3.2231   -1.1467    0.1753 C.ar    1  UNL1       -0.0392
     42 C           4.6020   -1.0043    0.2401 C.ar    1  UNL1       -0.0523
     43 H           7.5334   -1.1313   -2.4144 H       1  UNL1        0.0278
     44 H           7.0420   -2.3160   -1.2078 H       1  UNL1        0.0278
     45 H           5.8575   -1.0409   -1.8548 H       1  UNL1        0.0278
     46 H           9.4433   -0.6791   -1.0724 H       1  UNL1        0.0628
     47 H          12.2539    2.2213    1.4601 H       1  UNL1        0.2954
     48 H           8.9423    2.1936    1.9978 H       1  UNL1        0.0626
     49 H           6.4444    1.8850    1.8464 H       1  UNL1        0.0624
     50 H           4.7067    2.3220    0.1329 H       1  UNL1        0.0624
     51 H           2.3155    2.0545    0.0241 H       1  UNL1        0.0636
     52 H          -5.5113   -2.7552   -0.3990 H       1  UNL1        0.0831
     53 H          -4.7637   -5.1242   -0.5914 H       1  UNL1        0.0648
     54 H          -2.2890   -5.5934   -0.5103 H       1  UNL1        0.0831
     55 H          -1.1493    1.1542    1.9850 H       1  UNL1        0.0303
     56 H          -2.1883   -0.2648    2.0503 H       1  UNL1        0.0303
     57 H          -3.5735    1.5240    2.3885 H       1  UNL1        0.0427
     58 H          -2.9076    2.5659    1.1048 H       1  UNL1        0.0427
     59 H          -4.9399    2.9421    0.4064 H       1  UNL1        0.0491
     60 H          -5.5641    1.8970    1.6980 H       1  UNL1        0.0491
     61 H          -7.8570    2.4125   -3.0811 H       1  UNL1        0.0829
     62 H          -9.3487    0.5162   -2.4685 H       1  UNL1        0.0633
     63 H          -8.9562   -0.7326   -0.4158 H       1  UNL1        0.0621
     64 H          -7.6785   -1.1058    1.4893 H       1  UNL1        0.0278
     65 H          -7.1283    0.4836    2.2073 H       1  UNL1        0.0278
     66 H          -5.9261   -0.6416    1.4032 H       1  UNL1        0.0278
     67 H          -3.9404    1.9545   -1.4159 H       1  UNL1        0.0427
     68 H          -4.2243    0.2226   -1.5184 H       1  UNL1        0.0427
     69 H          -1.7415    1.8059   -1.2837 H       1  UNL1        0.0303
     70 H          -2.0473    0.2404   -2.0211 H       1  UNL1        0.0303
     71 H           2.8319   -2.1618    0.1888 H       1  UNL1        0.0636
     72 H           5.2538   -1.8830    0.3057 H       1  UNL1        0.0624
@<TRIPOS>BOND
     1     1     2    1
     2     2     3   ar
     3     3     4   ar
     4     4     5    1
     5     5     6    2
     6     5     7    1
     7     4     8   ar
     8     8     9   ar
     9     9    10   ar
    10    10    11    1
    11    11    12   ar
    12    12    13   ar
    13    13    14   ar
    14    14    15    1
    15    15    16   am
    16    16    17    2
    17    16    18   am
    18    18    19    1
    19    19    20   ar
    20    20    21   ar
    21    21    22   ar
    22    22    23   ar
    23    23    24   ar
    24    18    25    1
    25    25    26    1
    26    26    27    1
    27    27    28    1
    28    28    29    1
    29    29    30    1
    30    30    31   ar
    31    31    32   ar
    32    32    33   ar
    33    33    34   ar
    34    34    35   ar
    35    35    36    1
    36    28    37    1
    37    37    38    1
    38    25    39    1
    39    39    40    2
    40    14    41   ar
    41    41    42   ar
    42    10     2   ar
    43    42    11   ar
    44    39    15   am
    45    24    19   ar
    46    38    25    1
    47    35    30   ar
    48     1    43    1
    49     1    44    1
    50     1    45    1
    51     3    46    1
    52     7    47    1
    53     8    48    1
    54     9    49    1
    55    12    50    1
    56    13    51    1
    57    21    52    1
    58    22    53    1
    59    23    54    1
    60    26    55    1
    61    26    56    1
    62    27    57    1
    63    27    58    1
    64    29    59    1
    65    29    60    1
    66    32    61    1
    67    33    62    1
    68    34    63    1
    69    36    64    1
    70    36    65    1
    71    36    66    1
    72    37    67    1
    73    37    68    1
    74    38    69    1
    75    38    70    1
    76    41    71    1
    77    42    72    1
