
     RDKit          3D

 39 41  0  0  0  0  0  0  0  0999 V2000
   -2.9743   -0.9614    0.1398 C   0  0  1  0  0  0  0  0  0  0  0  0
   -3.6263   -2.2175   -0.3639 C   0  0  0  0  0  0  0  0  0  0  0  0
   -4.9832   -2.2821   -0.0590 O   0  0  0  0  0  0  0  0  0  0  0  0
   -1.6111   -0.9327   -0.1858 O   0  0  0  0  0  0  0  0  0  0  0  0
   -0.9650    0.0804    0.4969 C   0  0  1  0  0  0  0  0  0  0  0  0
    0.4768   -0.0270    0.2447 C   0  0  0  0  0  0  0  0  0  0  0  0
    0.9922   -0.2426   -0.9872 N   0  0  0  0  0  0  0  0  0  0  0  0
    2.3390   -0.2869   -0.8620 C   0  0  0  0  0  0  0  0  0  0  0  0
    2.6524   -0.0938    0.4770 C   0  0  0  0  0  0  0  0  0  0  0  0
    1.4875    0.0635    1.1355 N   0  0  0  0  0  0  0  0  0  0  0  0
    3.9810   -0.0983    0.8530 C   0  0  0  0  0  0  0  0  0  0  0  0
    4.9691   -0.2873   -0.0633 C   0  0  0  0  0  0  0  0  0  0  0  0
    6.3876   -0.2828    0.3982 C   0  0  0  0  0  0  0  0  0  0  0  0
    4.6242   -0.4781   -1.3972 C   0  0  0  0  0  0  0  0  0  0  0  0
    3.3222   -0.4785   -1.7968 C   0  0  0  0  0  0  0  0  0  0  0  0
   -1.5250    1.4512    0.1549 C   0  0  2  0  0  0  0  0  0  0  0  0
   -0.8893    2.3586    1.0021 O   0  0  0  0  0  0  0  0  0  0  0  0
   -3.0033    1.4167    0.4556 C   0  0  1  0  0  0  0  0  0  0  0  0
   -3.6318    2.6229    0.2094 O   0  0  0  0  0  0  0  0  0  0  0  0
   -3.5851    0.2896   -0.3877 C   0  0  2  0  0  0  0  0  0  0  0  0
   -4.9716    0.3000   -0.3635 O   0  0  0  0  0  0  0  0  0  0  0  0
   -3.0179   -0.9166    1.2476 H   0  0  0  0  0  0  0  0  0  0  0  0
   -3.1568   -3.0803    0.1513 H   0  0  0  0  0  0  0  0  0  0  0  0
   -3.4148   -2.3259   -1.4442 H   0  0  0  0  0  0  0  0  0  0  0  0
   -5.5382   -2.1253   -0.8747 H   0  0  0  0  0  0  0  0  0  0  0  0
   -1.1787   -0.0712    1.5842 H   0  0  0  0  0  0  0  0  0  0  0  0
    1.3798    0.2296    2.1726 H   0  0  0  0  0  0  0  0  0  0  0  0
    4.2102    0.0537    1.9021 H   0  0  0  0  0  0  0  0  0  0  0  0
    6.6364    0.7174    0.8081 H   0  0  0  0  0  0  0  0  0  0  0  0
    7.0242   -0.4913   -0.4955 H   0  0  0  0  0  0  0  0  0  0  0  0
    6.5210   -1.0704    1.1775 H   0  0  0  0  0  0  0  0  0  0  0  0
    5.4454   -0.6276   -2.1103 H   0  0  0  0  0  0  0  0  0  0  0  0
    3.0666   -0.6281   -2.8383 H   0  0  0  0  0  0  0  0  0  0  0  0
   -1.3373    1.6847   -0.9105 H   0  0  0  0  0  0  0  0  0  0  0  0
   -0.7016    3.1703    0.4920 H   0  0  0  0  0  0  0  0  0  0  0  0
   -3.1067    1.1122    1.5243 H   0  0  0  0  0  0  0  0  0  0  0  0
   -3.8142    3.1115    1.0507 H   0  0  0  0  0  0  0  0  0  0  0  0
   -3.2195    0.4412   -1.4255 H   0  0  0  0  0  0  0  0  0  0  0  0
   -5.2637    0.9026   -1.1118 H   0  0  0  0  0  0  0  0  0  0  0  0
  1  2  1  0
  2  3  1  0
  1  4  1  0
  4  5  1  0
  5  6  1  0
  6  7  2  0
  7  8  1  0
  8  9  2  0
  9 10  1  0
  9 11  1  0
 11 12  2  0
 12 13  1  0
 12 14  1  0
 14 15  2  0
  5 16  1  0
 16 17  1  0
 16 18  1  0
 18 19  1  0
 18 20  1  0
 20 21  1  0
 20  1  1  0
 10  6  1  0
 15  8  1  0
  1 22  1  1
  2 23  1  0
  2 24  1  0
  3 25  1  0
  5 26  1  1
 10 27  1  0
 11 28  1  0
 13 29  1  0
 13 30  1  0
 13 31  1  0
 14 32  1  0
 15 33  1  0
 16 34  1  6
 17 35  1  0
 18 36  1  1
 19 37  1  0
 20 38  1  6
 21 39  1  0
M  END
$$$$
