@<TRIPOS>MOLECULE
*****
 39 41 0 0 0
SMALL
GASTEIGER

@<TRIPOS>ATOM
      1 C          -2.9743   -0.9614    0.1398 C.3     1  UNL1        0.1109
      2 C          -3.6263   -2.2175   -0.3639 C.3     1  UNL1        0.0729
      3 O          -4.9832   -2.2821   -0.0590 O.3     1  UNL1       -0.3924
      4 O          -1.6111   -0.9327   -0.1858 O.3     1  UNL1       -0.3581
      5 C          -0.9650    0.0804    0.4969 C.3     1  UNL1        0.1447
      6 C           0.4768   -0.0270    0.2447 C.ar    1  UNL1        0.1399
      7 N           0.9922   -0.2426   -0.9872 N.ar    1  UNL1       -0.2297
      8 C           2.3390   -0.2869   -0.8620 C.ar    1  UNL1        0.0892
      9 C           2.6524   -0.0938    0.4770 C.ar    1  UNL1        0.0665
     10 N           1.4875    0.0635    1.1355 N.ar    1  UNL1       -0.3396
     11 C           3.9810   -0.0983    0.8530 C.ar    1  UNL1       -0.0333
     12 C           4.9691   -0.2873   -0.0633 C.ar    1  UNL1       -0.0484
     13 C           6.3876   -0.2828    0.3982 C.3     1  UNL1       -0.0396
     14 C           4.6242   -0.4781   -1.3972 C.ar    1  UNL1       -0.0567
     15 C           3.3222   -0.4785   -1.7968 C.ar    1  UNL1       -0.0340
     16 C          -1.5250    1.4512    0.1549 C.3     1  UNL1        0.1166
     17 O          -0.8893    2.3586    1.0021 O.3     1  UNL1       -0.3861
     18 C          -3.0033    1.4167    0.4556 C.3     1  UNL1        0.1122
     19 O          -3.6318    2.6229    0.2094 O.3     1  UNL1       -0.3865
     20 C          -3.5851    0.2896   -0.3877 C.3     1  UNL1        0.1117
     21 O          -4.9716    0.3000   -0.3635 O.3     1  UNL1       -0.3865
     22 H          -3.0179   -0.9166    1.2476 H       1  UNL1        0.0646
     23 H          -3.1568   -3.0803    0.1513 H       1  UNL1        0.0584
     24 H          -3.4148   -2.3259   -1.4442 H       1  UNL1        0.0584
     25 H          -5.5382   -2.1253   -0.8747 H       1  UNL1        0.2095
     26 H          -1.1787   -0.0712    1.5842 H       1  UNL1        0.0704
     27 H           1.3798    0.2296    2.1726 H       1  UNL1        0.1671
     28 H           4.2102    0.0537    1.9021 H       1  UNL1        0.0641
     29 H           6.6364    0.7174    0.8081 H       1  UNL1        0.0278
     30 H           7.0242   -0.4913   -0.4955 H       1  UNL1        0.0278
     31 H           6.5210   -1.0704    1.1775 H       1  UNL1        0.0278
     32 H           5.4454   -0.6276   -2.1103 H       1  UNL1        0.0621
     33 H           3.0666   -0.6281   -2.8383 H       1  UNL1        0.0639
     34 H          -1.3373    1.6847   -0.9105 H       1  UNL1        0.0650
     35 H          -0.7016    3.1703    0.4920 H       1  UNL1        0.2100
     36 H          -3.1067    1.1122    1.5243 H       1  UNL1        0.0647
     37 H          -3.8142    3.1115    1.0507 H       1  UNL1        0.2100
     38 H          -3.2195    0.4412   -1.4255 H       1  UNL1        0.0647
     39 H          -5.2637    0.9026   -1.1118 H       1  UNL1        0.2100
@<TRIPOS>BOND
     1     1     2    1
     2     2     3    1
     3     1     4    1
     4     4     5    1
     5     5     6    1
     6     6     7   ar
     7     7     8   ar
     8     8     9   ar
     9     9    10   ar
    10     9    11   ar
    11    11    12   ar
    12    12    13    1
    13    12    14   ar
    14    14    15   ar
    15     5    16    1
    16    16    17    1
    17    16    18    1
    18    18    19    1
    19    18    20    1
    20    20    21    1
    21    20     1    1
    22    10     6   ar
    23    15     8   ar
    24     1    22    1
    25     2    23    1
    26     2    24    1
    27     3    25    1
    28     5    26    1
    29    10    27    1
    30    11    28    1
    31    13    29    1
    32    13    30    1
    33    13    31    1
    34    14    32    1
    35    15    33    1
    36    16    34    1
    37    17    35    1
    38    18    36    1
    39    19    37    1
    40    20    38    1
    41    21    39    1
