@<TRIPOS>MOLECULE
*****
 45 49 0 0 0
SMALL
GASTEIGER

@<TRIPOS>ATOM
      1 C           4.5503    0.3802    0.7888 C.3     1  UNL1       -0.0041
      2 C           3.3076   -0.1693    1.4235 C.3     1  UNL1        0.0182
      3 N           2.2975    0.0893    0.4160 N.pl3   1  UNL1       -0.3122
      4 C           2.6795    1.2760   -0.3202 C.3     1  UNL1        0.0182
      5 C           4.1656    1.1570   -0.4165 C.3     1  UNL1       -0.0041
      6 C           4.8577   -0.1446   -0.5836 C.3     1  UNL1        0.0141
      7 N           6.2492   -0.0849   -0.9354 N.3     1  UNL1       -0.3266
      8 C           1.0961   -0.6422    0.1213 C.ar    1  UNL1        0.1592
      9 N          -0.1108   -0.0310    0.2157 N.ar    1  UNL1       -0.2109
     10 C          -1.2644   -0.6715   -0.0493 C.ar    1  UNL1        0.1512
     11 C          -1.2901   -1.9992   -0.4362 C.ar    1  UNL1        0.0681
     12 C          -0.0804   -2.6475   -0.5411 C.ar    1  UNL1       -0.0087
     13 C           1.0670   -1.9544   -0.2613 C.ar    1  UNL1        0.1639
     14 F           2.2212   -2.6247   -0.3765 F       1  UNL1       -0.2019
     15 C          -2.4425   -2.7111   -0.7218 C.ar    1  UNL1        0.2050
     16 O          -2.3718   -3.9052   -1.0633 O.2     1  UNL1       -0.2862
     17 C          -3.6458   -2.0557   -0.6143 C.ar    1  UNL1        0.1225
     18 C          -3.6208   -0.7388   -0.2306 C.ar    1  UNL1        0.0295
     19 N          -2.4770   -0.0838    0.0379 N.ar    1  UNL1       -0.2971
     20 C          -2.5719    1.2639    0.4223 C.ar    1  UNL1        0.0833
     21 C          -3.3987    1.8110    1.3674 C.ar    1  UNL1        0.1498
     22 F          -4.2097    0.9138    1.9865 F       1  UNL1       -0.2032
     23 C          -3.3677    3.1725    1.6288 C.ar    1  UNL1        0.0109
     24 C          -2.4998    4.0041    0.9386 C.ar    1  UNL1        0.1263
     25 F          -2.4770    5.3176    1.1978 F       1  UNL1       -0.2054
     26 C          -1.6648    3.4539   -0.0154 C.ar    1  UNL1       -0.0243
     27 C          -1.7026    2.0852   -0.2715 C.ar    1  UNL1       -0.0323
     28 C          -4.9074   -2.7309   -0.8968 C.2     1  UNL1        0.3420
     29 O          -4.9024   -4.0633   -1.2829 O.3     1  UNL1       -0.4770
     30 O          -6.0517   -2.1897   -0.8183 O.2     1  UNL1       -0.2449
     31 H           5.3745    0.7616    1.4251 H       1  UNL1        0.0335
     32 H           3.0234    0.4011    2.3530 H       1  UNL1        0.0467
     33 H           3.3759   -1.2400    1.6567 H       1  UNL1        0.0467
     34 H           2.4799    2.1513    0.3620 H       1  UNL1        0.0467
     35 H           2.1644    1.3816   -1.2801 H       1  UNL1        0.0467
     36 H           4.7362    2.0825   -0.6949 H       1  UNL1        0.0335
     37 H           4.3157   -1.0315   -0.9805 H       1  UNL1        0.0465
     38 H           6.8718    0.1805   -0.1154 H       1  UNL1        0.1185
     39 H           6.5781   -0.9961   -1.3063 H       1  UNL1        0.1185
     40 H          -0.0589   -3.6874   -0.8413 H       1  UNL1        0.0655
     41 H          -4.5802   -0.2493   -0.1545 H       1  UNL1        0.0823
     42 H          -4.0463    3.5264    2.3840 H       1  UNL1        0.0676
     43 H          -1.0103    4.1325   -0.5248 H       1  UNL1        0.0647
     44 H          -1.0050    1.7864   -1.0339 H       1  UNL1        0.0640
     45 H          -5.6536   -4.6761   -1.0183 H       1  UNL1        0.2954
@<TRIPOS>BOND
     1     1     2    1
     2     2     3    1
     3     3     4    1
     4     4     5    1
     5     5     6    1
     6     6     7    1
     7     3     8    1
     8     8     9   ar
     9     9    10   ar
    10    10    11   ar
    11    11    12   ar
    12    12    13   ar
    13    13    14    1
    14    11    15   ar
    15    15    16    2
    16    15    17   ar
    17    17    18   ar
    18    18    19   ar
    19    19    20    1
    20    20    21   ar
    21    21    22    1
    22    21    23   ar
    23    23    24   ar
    24    24    25    1
    25    24    26   ar
    26    26    27   ar
    27    17    28    1
    28    28    29    1
    29    28    30    2
    30     5     1    1
    31    13     8   ar
    32    27    20   ar
    33     6     1    1
    34    19    10   ar
    35     1    31    1
    36     2    32    1
    37     2    33    1
    38     4    34    1
    39     4    35    1
    40     5    36    1
    41     6    37    1
    42     7    38    1
    43     7    39    1
    44    12    40    1
    45    18    41    1
    46    23    42    1
    47    26    43    1
    48    27    44    1
    49    29    45    1
