@<TRIPOS>MOLECULE
*****
 50 53 0 0 0
SMALL
GASTEIGER

@<TRIPOS>ATOM
      1 C           6.4751    3.1382    0.0579 C.3     1  UNL1        0.0788
      2 O           5.6545    2.5535    1.0523 O.3     1  UNL1       -0.4951
      3 C           4.6468    1.7022    0.6528 C.ar    1  UNL1        0.1201
      4 C           4.3339    1.3417   -0.6399 C.ar    1  UNL1       -0.0193
      5 C           3.3063    0.4811   -0.9551 C.ar    1  UNL1       -0.0476
      6 C           2.5217   -0.0733    0.0528 C.ar    1  UNL1        0.0182
      7 C           2.8388    0.2902    1.3409 C.ar    1  UNL1       -0.0476
      8 C           3.8573    1.1440    1.6630 C.ar    1  UNL1       -0.0193
      9 C           1.4699   -0.9627   -0.3744 C.ar    1  UNL1        0.1460
     10 C           0.0757   -0.9463   -0.2585 C.ar    1  UNL1        0.0406
     11 C          -0.3253   -2.1041   -0.8881 C.ar    1  UNL1        0.0878
     12 C          -1.6247   -2.5352   -1.0342 C.ar    1  UNL1        0.1336
     13 N          -2.7505   -1.8260   -0.5428 N.pl3   1  UNL1       -0.3262
     14 C          -4.1009   -2.3376   -0.7284 C.3     1  UNL1        0.0336
     15 C          -4.2517   -3.6520    0.0014 C.3     1  UNL1        0.0597
     16 O          -5.5622   -4.1142   -0.1973 O.3     1  UNL1       -0.3935
     17 N          -1.8057   -3.6966   -1.6832 N.ar    1  UNL1       -0.2201
     18 C          -0.7322   -4.3588   -2.1435 C.ar    1  UNL1        0.1219
     19 N           0.5577   -3.9349   -2.0005 N.ar    1  UNL1       -0.2005
     20 C           0.7913   -2.7650   -1.3508 C.ar    1  UNL1        0.2331
     21 O           1.8460   -2.0574   -1.0277 O.2     1  UNL1       -0.4360
     22 C          -0.5562    0.1714    0.4266 C.ar    1  UNL1       -0.0133
     23 C          -0.7409    0.1096    1.7969 C.ar    1  UNL1       -0.0504
     24 C          -1.3352    1.1926    2.4351 C.ar    1  UNL1       -0.0194
     25 C          -1.7595    2.3351    1.8054 C.ar    1  UNL1        0.1201
     26 O          -2.3358    3.3565    2.5095 O.3     1  UNL1       -0.4951
     27 C          -2.7745    4.5343    1.8691 C.3     1  UNL1        0.0788
     28 C          -1.5721    2.3910    0.4344 C.ar    1  UNL1       -0.0194
     29 C          -0.9915    1.3406   -0.2121 C.ar    1  UNL1       -0.0504
     30 H           7.0496    2.3093   -0.4275 H       1  UNL1        0.0660
     31 H           5.8092    3.5408   -0.7560 H       1  UNL1        0.0660
     32 H           7.1227    3.9352    0.4552 H       1  UNL1        0.0660
     33 H           4.9629    1.7908   -1.3913 H       1  UNL1        0.0654
     34 H           3.1762    0.2879   -2.0171 H       1  UNL1        0.0626
     35 H           2.2129   -0.1542    2.1208 H       1  UNL1        0.0626
     36 H           4.0565    1.3905    2.6931 H       1  UNL1        0.0654
     37 H          -2.7114   -0.9261   -0.0313 H       1  UNL1        0.1476
     38 H          -4.3115   -2.5357   -1.8034 H       1  UNL1        0.0484
     39 H          -4.8738   -1.6575   -0.3284 H       1  UNL1        0.0484
     40 H          -4.1507   -3.5007    1.1074 H       1  UNL1        0.0573
     41 H          -3.5960   -4.4377   -0.3638 H       1  UNL1        0.0573
     42 H          -5.5992   -4.9931    0.2680 H       1  UNL1        0.2095
     43 H          -0.9204   -5.3025   -2.6677 H       1  UNL1        0.1049
     44 H          -0.4390   -0.7527    2.3908 H       1  UNL1        0.0625
     45 H          -1.4719    1.1234    3.5169 H       1  UNL1        0.0654
     46 H          -1.9046    5.0777    1.4191 H       1  UNL1        0.0660
     47 H          -3.4245    4.2583    0.9912 H       1  UNL1        0.0660
     48 H          -3.4072    5.1631    2.5044 H       1  UNL1        0.0660
     49 H          -1.8924    3.2818   -0.1248 H       1  UNL1        0.0654
     50 H          -0.8435    1.3834   -1.2918 H       1  UNL1        0.0625
@<TRIPOS>BOND
     1     1     2    1
     2     2     3    1
     3     3     4   ar
     4     4     5   ar
     5     5     6   ar
     6     6     7   ar
     7     7     8   ar
     8     6     9    1
     9     9    10   ar
    10    10    11   ar
    11    11    12   ar
    12    12    13    1
    13    13    14    1
    14    14    15    1
    15    15    16    1
    16    12    17   ar
    17    17    18   ar
    18    18    19   ar
    19    19    20   ar
    20    20    21   ar
    21    10    22    1
    22    22    23   ar
    23    23    24   ar
    24    24    25   ar
    25    25    26    1
    26    26    27    1
    27    25    28   ar
    28    28    29   ar
    29     8     3   ar
    30    21     9   ar
    31    29    22   ar
    32    20    11   ar
    33     1    30    1
    34     1    31    1
    35     1    32    1
    36     4    33    1
    37     5    34    1
    38     7    35    1
    39     8    36    1
    40    13    37    1
    41    14    38    1
    42    14    39    1
    43    15    40    1
    44    15    41    1
    45    16    42    1
    46    18    43    1
    47    23    44    1
    48    24    45    1
    49    27    46    1
    50    27    47    1
    51    27    48    1
    52    28    49    1
    53    29    50    1
