
     RDKit          3D

 50 53  0  0  0  0  0  0  0  0999 V2000
    6.4751    3.1382    0.0579 C   0  0  0  0  0  0  0  0  0  0  0  0
    5.6545    2.5535    1.0523 O   0  0  0  0  0  0  0  0  0  0  0  0
    4.6468    1.7022    0.6528 C   0  0  0  0  0  0  0  0  0  0  0  0
    4.3339    1.3417   -0.6399 C   0  0  0  0  0  0  0  0  0  0  0  0
    3.3063    0.4811   -0.9551 C   0  0  0  0  0  0  0  0  0  0  0  0
    2.5217   -0.0733    0.0528 C   0  0  0  0  0  0  0  0  0  0  0  0
    2.8388    0.2902    1.3409 C   0  0  0  0  0  0  0  0  0  0  0  0
    3.8573    1.1440    1.6630 C   0  0  0  0  0  0  0  0  0  0  0  0
    1.4699   -0.9627   -0.3744 C   0  0  0  0  0  0  0  0  0  0  0  0
    0.0757   -0.9463   -0.2585 C   0  0  0  0  0  0  0  0  0  0  0  0
   -0.3253   -2.1041   -0.8881 C   0  0  0  0  0  0  0  0  0  0  0  0
   -1.6247   -2.5352   -1.0342 C   0  0  0  0  0  0  0  0  0  0  0  0
   -2.7505   -1.8260   -0.5428 N   0  0  0  0  0  0  0  0  0  0  0  0
   -4.1009   -2.3376   -0.7284 C   0  0  0  0  0  0  0  0  0  0  0  0
   -4.2517   -3.6520    0.0014 C   0  0  0  0  0  0  0  0  0  0  0  0
   -5.5622   -4.1142   -0.1973 O   0  0  0  0  0  0  0  0  0  0  0  0
   -1.8057   -3.6966   -1.6832 N   0  0  0  0  0  0  0  0  0  0  0  0
   -0.7322   -4.3588   -2.1435 C   0  0  0  0  0  0  0  0  0  0  0  0
    0.5577   -3.9349   -2.0005 N   0  0  0  0  0  0  0  0  0  0  0  0
    0.7913   -2.7650   -1.3508 C   0  0  0  0  0  0  0  0  0  0  0  0
    1.8460   -2.0574   -1.0277 O   0  0  0  0  0  0  0  0  0  0  0  0
   -0.5562    0.1714    0.4266 C   0  0  0  0  0  0  0  0  0  0  0  0
   -0.7409    0.1096    1.7969 C   0  0  0  0  0  0  0  0  0  0  0  0
   -1.3352    1.1926    2.4351 C   0  0  0  0  0  0  0  0  0  0  0  0
   -1.7595    2.3351    1.8054 C   0  0  0  0  0  0  0  0  0  0  0  0
   -2.3358    3.3565    2.5095 O   0  0  0  0  0  0  0  0  0  0  0  0
   -2.7745    4.5343    1.8691 C   0  0  0  0  0  0  0  0  0  0  0  0
   -1.5721    2.3910    0.4344 C   0  0  0  0  0  0  0  0  0  0  0  0
   -0.9915    1.3406   -0.2121 C   0  0  0  0  0  0  0  0  0  0  0  0
    7.0496    2.3093   -0.4275 H   0  0  0  0  0  0  0  0  0  0  0  0
    5.8092    3.5408   -0.7560 H   0  0  0  0  0  0  0  0  0  0  0  0
    7.1227    3.9352    0.4552 H   0  0  0  0  0  0  0  0  0  0  0  0
    4.9629    1.7908   -1.3913 H   0  0  0  0  0  0  0  0  0  0  0  0
    3.1762    0.2879   -2.0171 H   0  0  0  0  0  0  0  0  0  0  0  0
    2.2129   -0.1542    2.1208 H   0  0  0  0  0  0  0  0  0  0  0  0
    4.0565    1.3905    2.6931 H   0  0  0  0  0  0  0  0  0  0  0  0
   -2.7114   -0.9261   -0.0313 H   0  0  0  0  0  0  0  0  0  0  0  0
   -4.3115   -2.5357   -1.8034 H   0  0  0  0  0  0  0  0  0  0  0  0
   -4.8738   -1.6575   -0.3284 H   0  0  0  0  0  0  0  0  0  0  0  0
   -4.1507   -3.5007    1.1074 H   0  0  0  0  0  0  0  0  0  0  0  0
   -3.5960   -4.4377   -0.3638 H   0  0  0  0  0  0  0  0  0  0  0  0
   -5.5992   -4.9931    0.2680 H   0  0  0  0  0  0  0  0  0  0  0  0
   -0.9204   -5.3025   -2.6677 H   0  0  0  0  0  0  0  0  0  0  0  0
   -0.4390   -0.7527    2.3908 H   0  0  0  0  0  0  0  0  0  0  0  0
   -1.4719    1.1234    3.5169 H   0  0  0  0  0  0  0  0  0  0  0  0
   -1.9046    5.0777    1.4191 H   0  0  0  0  0  0  0  0  0  0  0  0
   -3.4245    4.2583    0.9912 H   0  0  0  0  0  0  0  0  0  0  0  0
   -3.4072    5.1631    2.5044 H   0  0  0  0  0  0  0  0  0  0  0  0
   -1.8924    3.2818   -0.1248 H   0  0  0  0  0  0  0  0  0  0  0  0
   -0.8435    1.3834   -1.2918 H   0  0  0  0  0  0  0  0  0  0  0  0
  1  2  1  0
  2  3  1  0
  3  4  2  0
  4  5  1  0
  5  6  2  0
  6  7  1  0
  7  8  2  0
  6  9  1  0
  9 10  2  0
 10 11  1  0
 11 12  2  0
 12 13  1  0
 13 14  1  0
 14 15  1  0
 15 16  1  0
 12 17  1  0
 17 18  2  0
 18 19  1  0
 19 20  2  0
 20 21  1  0
 10 22  1  0
 22 23  2  0
 23 24  1  0
 24 25  2  0
 25 26  1  0
 26 27  1  0
 25 28  1  0
 28 29  2  0
  8  3  1  0
 21  9  1  0
 29 22  1  0
 20 11  1  0
  1 30  1  0
  1 31  1  0
  1 32  1  0
  4 33  1  0
  5 34  1  0
  7 35  1  0
  8 36  1  0
 13 37  1  0
 14 38  1  0
 14 39  1  0
 15 40  1  0
 15 41  1  0
 16 42  1  0
 18 43  1  0
 23 44  1  0
 24 45  1  0
 27 46  1  0
 27 47  1  0
 27 48  1  0
 28 49  1  0
 29 50  1  0
M  END
$$$$
