
     RDKit          3D

 58 62  0  0  0  0  0  0  0  0999 V2000
   -7.6547    3.2603    0.6352 C   0  0  0  0  0  0  0  0  0  0  0  0
   -6.5219    2.7920    1.3652 O   0  0  0  0  0  0  0  0  0  0  0  0
   -5.8011    1.6865    0.9338 C   0  0  0  0  0  0  0  0  0  0  0  0
   -6.1256    0.9819   -0.2067 C   0  0  0  0  0  0  0  0  0  0  0  0
   -5.3767   -0.1254   -0.6089 C   0  0  0  0  0  0  0  0  0  0  0  0
   -4.2814   -0.5103    0.1733 C   0  0  0  0  0  0  0  0  0  0  0  0
   -3.9478    0.1874    1.3160 C   0  0  0  0  0  0  0  0  0  0  0  0
   -4.7151    1.2770    1.6782 C   0  0  0  0  0  0  0  0  0  0  0  0
   -3.6286   -1.6863   -0.4101 C   0  0  0  0  0  0  0  0  0  0  0  0
   -2.3188   -1.6856   -0.8299 C   0  0  0  0  0  0  0  0  0  0  0  0
   -2.1393   -2.9701   -1.2961 C   0  0  0  0  0  0  0  0  0  0  0  0
   -1.1153   -3.6997   -1.8565 C   0  0  0  0  0  0  0  0  0  0  0  0
    0.1428   -3.0849   -2.0657 N   0  0  0  0  0  0  0  0  0  0  0  0
   -1.2029   -4.9823   -2.2363 N   0  0  0  0  0  0  0  0  0  0  0  0
   -2.3646   -5.6568   -2.0783 C   0  0  0  0  0  0  0  0  0  0  0  0
   -3.3753   -4.9669   -1.5348 N   0  0  0  0  0  0  0  0  0  0  0  0
   -3.3036   -3.6862   -1.1505 C   0  0  0  0  0  0  0  0  0  0  0  0
   -4.1809   -2.8607   -0.6066 O   0  0  0  0  0  0  0  0  0  0  0  0
   -1.2915   -0.6836   -0.8389 C   0  0  0  0  0  0  0  0  0  0  0  0
   -1.3338    0.5051   -1.5355 C   0  0  0  0  0  0  0  0  0  0  0  0
   -0.2812    1.3901   -1.4654 C   0  0  0  0  0  0  0  0  0  0  0  0
    0.8775    1.1698   -0.7112 C   0  0  0  0  0  0  0  0  0  0  0  0
    1.9046    2.1391   -0.6957 N   0  0  0  0  0  0  0  0  0  0  0  0
    3.1283    1.9867    0.0051 C   0  0  0  0  0  0  0  0  0  0  0  0
    3.6404    3.0844    0.7209 O   0  0  0  0  0  0  0  0  0  0  0  0
    3.6817    0.8082   -0.0821 N   0  0  0  0  0  0  0  0  0  0  0  0
    4.9090    0.5239    0.5729 C   0  0  0  0  0  0  0  0  0  0  0  0
    5.0589   -0.4687    1.5404 C   0  0  0  0  0  0  0  0  0  0  0  0
    3.9742   -1.2034    1.8748 F   0  0  0  0  0  0  0  0  0  0  0  0
    6.2870   -0.6759    2.1246 C   0  0  0  0  0  0  0  0  0  0  0  0
    7.4142    0.0548    1.8077 C   0  0  0  0  0  0  0  0  0  0  0  0
    7.2642    1.0356    0.8511 C   0  0  0  0  0  0  0  0  0  0  0  0
    6.0403    1.2580    0.2541 C   0  0  0  0  0  0  0  0  0  0  0  0
    8.4372    1.8647    0.4579 C   0  0  0  0  0  0  0  0  0  0  0  0
    8.1856    2.6175   -0.6566 F   0  0  0  0  0  0  0  0  0  0  0  0
    9.5201    1.0192    0.2685 F   0  0  0  0  0  0  0  0  0  0  0  0
    8.8028    2.7407    1.4650 F   0  0  0  0  0  0  0  0  0  0  0  0
    0.8700   -0.0247   -0.0380 C   0  0  0  0  0  0  0  0  0  0  0  0
   -0.1602   -0.9399   -0.0790 C   0  0  0  0  0  0  0  0  0  0  0  0
   -7.3535    3.5517   -0.3897 H   0  0  0  0  0  0  0  0  0  0  0  0
   -8.1725    4.0377    1.2020 H   0  0  0  0  0  0  0  0  0  0  0  0
   -8.2932    2.3402    0.4991 H   0  0  0  0  0  0  0  0  0  0  0  0
   -6.9785    1.3251   -0.7671 H   0  0  0  0  0  0  0  0  0  0  0  0
   -5.7306   -0.5858   -1.5108 H   0  0  0  0  0  0  0  0  0  0  0  0
   -3.0882   -0.2130    1.8208 H   0  0  0  0  0  0  0  0  0  0  0  0
   -4.4021    1.7872    2.5900 H   0  0  0  0  0  0  0  0  0  0  0  0
    0.6534   -2.6602   -2.8772 H   0  0  0  0  0  0  0  0  0  0  0  0
    1.0292   -2.6227   -2.3329 H   0  0  0  0  0  0  0  0  0  0  0  0
   -2.6584   -6.6635   -2.3041 H   0  0  0  0  0  0  0  0  0  0  0  0
   -2.2096    0.7123   -2.1286 H   0  0  0  0  0  0  0  0  0  0  0  0
   -0.3610    2.3091   -2.0295 H   0  0  0  0  0  0  0  0  0  0  0  0
    1.7447    3.0344   -1.2396 H   0  0  0  0  0  0  0  0  0  0  0  0
    4.5020    2.9000    1.2587 H   0  0  0  0  0  0  0  0  0  0  0  0
    6.3381   -1.4749    2.8811 H   0  0  0  0  0  0  0  0  0  0  0  0
    8.3410   -0.1594    2.3021 H   0  0  0  0  0  0  0  0  0  0  0  0
    5.9768    2.0486   -0.4986 H   0  0  0  0  0  0  0  0  0  0  0  0
    1.7203   -0.2754    0.5710 H   0  0  0  0  0  0  0  0  0  0  0  0
   -0.0765   -1.8630    0.4896 H   0  0  0  0  0  0  0  0  0  0  0  0
  1  2  1  0
  2  3  1  0
  3  4  2  0
  4  5  1  0
  5  6  2  0
  6  7  1  0
  7  8  2  0
  6  9  1  0
  9 10  2  0
 10 11  1  0
 11 12  2  0
 12 13  1  0
 12 14  1  0
 14 15  2  0
 15 16  1  0
 16 17  2  0
 17 18  1  0
 10 19  1  0
 19 20  2  0
 20 21  1  0
 21 22  2  0
 22 23  1  0
 23 24  1  0
 24 25  1  0
 24 26  2  3
 26 27  1  0
 27 28  2  0
 28 29  1  0
 28 30  1  0
 30 31  2  0
 31 32  1  0
 32 33  2  0
 32 34  1  0
 34 35  1  0
 34 36  1  0
 34 37  1  0
 22 38  1  0
 38 39  2  0
  8  3  1  0
 18  9  1  0
 39 19  1  0
 17 11  1  0
 33 27  1  0
  1 40  1  0
  1 41  1  0
  1 42  1  0
  4 43  1  0
  5 44  1  0
  7 45  1  0
  8 46  1  0
 13 47  1  0
 13 48  1  0
 15 49  1  0
 20 50  1  0
 21 51  1  0
 23 52  1  0
 25 53  1  0
 30 54  1  0
 31 55  1  0
 33 56  1  0
 38 57  1  0
 39 58  1  0
M  END
$$$$
