@<TRIPOS>MOLECULE
*****
 58 62 0 0 0
SMALL
GASTEIGER

@<TRIPOS>ATOM
      1 C          -7.6547    3.2603    0.6352 C.3     1  UNL1        0.0788
      2 O          -6.5219    2.7920    1.3652 O.3     1  UNL1       -0.4951
      3 C          -5.8011    1.6865    0.9338 C.ar    1  UNL1        0.1201
      4 C          -6.1256    0.9819   -0.2067 C.ar    1  UNL1       -0.0193
      5 C          -5.3767   -0.1254   -0.6089 C.ar    1  UNL1       -0.0476
      6 C          -4.2814   -0.5103    0.1733 C.ar    1  UNL1        0.0182
      7 C          -3.9478    0.1874    1.3160 C.ar    1  UNL1       -0.0476
      8 C          -4.7151    1.2770    1.6782 C.ar    1  UNL1       -0.0193
      9 C          -3.6286   -1.6863   -0.4101 C.ar    1  UNL1        0.1460
     10 C          -2.3188   -1.6856   -0.8299 C.ar    1  UNL1        0.0406
     11 C          -2.1393   -2.9701   -1.2961 C.ar    1  UNL1        0.0876
     12 C          -1.1153   -3.6997   -1.8565 C.ar    1  UNL1        0.1309
     13 N           0.1428   -3.0849   -2.0657 N.pl3   1  UNL1       -0.3425
     14 N          -1.2029   -4.9823   -2.2363 N.ar    1  UNL1       -0.2203
     15 C          -2.3646   -5.6568   -2.0783 C.ar    1  UNL1        0.1219
     16 N          -3.3753   -4.9669   -1.5348 N.ar    1  UNL1       -0.2005
     17 C          -3.3036   -3.6862   -1.1505 C.ar    1  UNL1        0.2331
     18 O          -4.1809   -2.8607   -0.6066 O.2     1  UNL1       -0.4360
     19 C          -1.2915   -0.6836   -0.8389 C.ar    1  UNL1       -0.0134
     20 C          -1.3338    0.5051   -1.5355 C.ar    1  UNL1       -0.0521
     21 C          -0.2812    1.3901   -1.4654 C.ar    1  UNL1       -0.0399
     22 C           0.8775    1.1698   -0.7112 C.ar    1  UNL1        0.0349
     23 N           1.9046    2.1391   -0.6957 N.pl3   1  UNL1       -0.2693
     24 C           3.1283    1.9867    0.0051 C.2     1  UNL1        0.2849
     25 O           3.6404    3.0844    0.7209 O.2     1  UNL1       -0.4813
     26 N           3.6817    0.8082   -0.0821 N.2     1  UNL1       -0.1965
     27 C           4.9090    0.5239    0.5729 C.ar    1  UNL1        0.1046
     28 C           5.0589   -0.4687    1.5404 C.ar    1  UNL1        0.1488
     29 F           3.9742   -1.2034    1.8748 F       1  UNL1       -0.2033
     30 C           6.2870   -0.6759    2.1246 C.ar    1  UNL1       -0.0238
     31 C           7.4142    0.0548    1.8077 C.ar    1  UNL1       -0.0473
     32 C           7.2642    1.0356    0.8511 C.ar    1  UNL1        0.0570
     33 C           6.0403    1.2580    0.2541 C.ar    1  UNL1       -0.0217
     34 C           8.4372    1.8647    0.4579 C.3     1  UNL1        0.4175
     35 F           8.1856    2.6175   -0.6566 F       1  UNL1       -0.1659
     36 F           9.5201    1.0192    0.2685 F       1  UNL1       -0.1659
     37 F           8.8028    2.7407    1.4650 F       1  UNL1       -0.1659
     38 C           0.8700   -0.0247   -0.0380 C.ar    1  UNL1       -0.0399
     39 C          -0.1602   -0.9399   -0.0790 C.ar    1  UNL1       -0.0521
     40 H          -7.3535    3.5517   -0.3897 H       1  UNL1        0.0660
     41 H          -8.1725    4.0377    1.2020 H       1  UNL1        0.0660
     42 H          -8.2932    2.3402    0.4991 H       1  UNL1        0.0660
     43 H          -6.9785    1.3251   -0.7671 H       1  UNL1        0.0654
     44 H          -5.7306   -0.5858   -1.5108 H       1  UNL1        0.0626
     45 H          -3.0882   -0.2130    1.8208 H       1  UNL1        0.0626
     46 H          -4.4021    1.7872    2.5900 H       1  UNL1        0.0654
     47 H           0.6534   -2.6602   -2.8772 H       1  UNL1        0.1437
     48 H           1.0292   -2.6227   -2.3329 H       1  UNL1        0.1437
     49 H          -2.6584   -6.6635   -2.3041 H       1  UNL1        0.1049
     50 H          -2.2096    0.7123   -2.1286 H       1  UNL1        0.0624
     51 H          -0.3610    2.3091   -2.0295 H       1  UNL1        0.0636
     52 H           1.7447    3.0344   -1.2396 H       1  UNL1        0.1565
     53 H           4.5020    2.9000    1.2587 H       1  UNL1        0.2951
     54 H           6.3381   -1.4749    2.8811 H       1  UNL1        0.0647
     55 H           8.3410   -0.1594    2.3021 H       1  UNL1        0.0624
     56 H           5.9768    2.0486   -0.4986 H       1  UNL1        0.0645
     57 H           1.7203   -0.2754    0.5710 H       1  UNL1        0.0636
     58 H          -0.0765   -1.8630    0.4896 H       1  UNL1        0.0624
@<TRIPOS>BOND
     1     1     2    1
     2     2     3    1
     3     3     4   ar
     4     4     5   ar
     5     5     6   ar
     6     6     7   ar
     7     7     8   ar
     8     6     9    1
     9     9    10   ar
    10    10    11   ar
    11    11    12   ar
    12    12    13    1
    13    12    14   ar
    14    14    15   ar
    15    15    16   ar
    16    16    17   ar
    17    17    18   ar
    18    10    19    1
    19    19    20   ar
    20    20    21   ar
    21    21    22   ar
    22    22    23    1
    23    23    24    1
    24    24    25    1
    25    24    26    2
    26    26    27    1
    27    27    28   ar
    28    28    29    1
    29    28    30   ar
    30    30    31   ar
    31    31    32   ar
    32    32    33   ar
    33    32    34    1
    34    34    35    1
    35    34    36    1
    36    34    37    1
    37    22    38   ar
    38    38    39   ar
    39     8     3   ar
    40    18     9   ar
    41    39    19   ar
    42    17    11   ar
    43    33    27   ar
    44     1    40    1
    45     1    41    1
    46     1    42    1
    47     4    43    1
    48     5    44    1
    49     7    45    1
    50     8    46    1
    51    13    47    1
    52    13    48    1
    53    15    49    1
    54    20    50    1
    55    21    51    1
    56    23    52    1
    57    25    53    1
    58    30    54    1
    59    31    55    1
    60    33    56    1
    61    38    57    1
    62    39    58    1
