@<TRIPOS>MOLECULE
*****
 75 79 0 0 0
SMALL
GASTEIGER

@<TRIPOS>ATOM
      1 C          -4.5742    4.3864    0.4683 C.3     1  UNL1       -0.0380
      2 C          -3.2951    3.7464    0.0951 C.ar    1  UNL1       -0.0291
      3 C          -2.3675    4.5022   -0.6038 C.ar    1  UNL1       -0.0553
      4 C          -1.1678    3.9226   -0.9606 C.ar    1  UNL1       -0.0401
      5 C          -0.8783    2.6157   -0.6367 C.ar    1  UNL1        0.0354
      6 N           0.3817    2.0912   -1.0421 N.am    1  UNL1       -0.2814
      7 C           1.4774    2.2331   -0.1525 C.2     1  UNL1        0.2483
      8 O           1.2889    2.8141    0.9519 O.2     1  UNL1       -0.2699
      9 C           2.8076    1.7267   -0.4827 C.ar    1  UNL1        0.0376
     10 C           3.8560    1.9053    0.4170 C.ar    1  UNL1       -0.0493
     11 C           5.1247    1.4292    0.1141 C.ar    1  UNL1       -0.0561
     12 C           5.3904    0.7728   -1.0680 C.ar    1  UNL1       -0.0217
     13 C           6.7635    0.2987   -1.3141 C.3     1  UNL1        0.0247
     14 N           6.9357   -1.1044   -1.1413 N.3     1  UNL1       -0.2957
     15 C           8.2846   -1.4875   -1.3927 C.3     1  UNL1        0.0120
     16 C           9.1736   -1.4046   -0.1830 C.3     1  UNL1        0.0114
     17 N           8.6259   -2.1451    0.9052 N.3     1  UNL1       -0.3029
     18 C           8.7166   -3.5624    0.7686 C.3     1  UNL1       -0.0127
     19 C           7.3212   -1.6609    1.2220 C.3     1  UNL1        0.0114
     20 C           6.3723   -1.6394    0.0602 C.3     1  UNL1        0.0120
     21 C           4.3777    0.5906   -1.9565 C.ar    1  UNL1        0.0599
     22 C           4.6060   -0.1181   -3.2628 C.3     1  UNL1        0.4177
     23 F           3.4043   -0.1580   -3.9607 F       1  UNL1       -0.1659
     24 F           4.9983   -1.4191   -3.0649 F       1  UNL1       -0.1659
     25 F           5.4867    0.5807   -4.0646 F       1  UNL1       -0.1659
     26 C           3.0991    1.0715   -1.6492 C.ar    1  UNL1       -0.0377
     27 C          -1.8275    1.8956    0.0596 C.ar    1  UNL1       -0.0189
     28 C          -3.0379    2.4374    0.4347 C.ar    1  UNL1        0.0383
     29 N          -4.0034    1.6457    1.1611 N.am    1  UNL1       -0.2812
     30 C          -4.9821    0.8820    0.4966 C.2     1  UNL1        0.2483
     31 O          -4.9467    0.9453   -0.7809 O.2     1  UNL1       -0.2699
     32 C          -5.9707    0.0734    1.1817 C.ar    1  UNL1        0.0376
     33 C          -6.0001    0.0002    2.5456 C.ar    1  UNL1       -0.0496
     34 C          -6.9509   -0.7767    3.1851 C.ar    1  UNL1       -0.0604
     35 C          -7.8800   -1.4866    2.4603 C.ar    1  UNL1       -0.0525
     36 C          -7.8830   -1.4388    1.0899 C.ar    1  UNL1        0.0011
     37 C          -8.8191   -2.1527    0.2464 C.ar    1  UNL1        0.0710
     38 C          -9.7882   -2.9473    0.7752 C.ar    1  UNL1       -0.0357
     39 C         -10.6605   -3.6137   -0.0782 C.ar    1  UNL1       -0.0583
     40 C         -10.5460   -3.4720   -1.4422 C.ar    1  UNL1       -0.0436
     41 C          -9.5529   -2.6597   -1.9255 C.ar    1  UNL1        0.0283
     42 N          -8.7362   -2.0375   -1.0786 N.ar    1  UNL1       -0.2550
     43 C          -6.9089   -0.6445    0.4787 C.ar    1  UNL1       -0.0404
     44 H          -5.3854    4.2076   -0.2494 H       1  UNL1        0.0278
     45 H          -4.4418    5.4911    0.5590 H       1  UNL1        0.0278
     46 H          -4.9419    4.0513    1.4667 H       1  UNL1        0.0278
     47 H          -2.5949    5.5236   -0.8562 H       1  UNL1        0.0621
     48 H          -0.4636    4.5394   -1.5066 H       1  UNL1        0.0636
     49 H           0.4726    1.6178   -1.9769 H       1  UNL1        0.1551
     50 H           3.6312    2.4182    1.3326 H       1  UNL1        0.0625
     51 H           5.8817    1.6110    0.8699 H       1  UNL1        0.0621
     52 H           7.0303    0.5538   -2.3623 H       1  UNL1        0.0476
     53 H           7.4945    0.8239   -0.6667 H       1  UNL1        0.0476
     54 H           8.7056   -0.7648   -2.1409 H       1  UNL1        0.0439
     55 H           8.3801   -2.4932   -1.8852 H       1  UNL1        0.0439
     56 H          10.1855   -1.7415   -0.4893 H       1  UNL1        0.0439
     57 H           9.2236   -0.3322    0.1303 H       1  UNL1        0.0439
     58 H           8.0014   -4.0903    1.4203 H       1  UNL1        0.0391
     59 H           9.7478   -3.8823    1.0799 H       1  UNL1        0.0391
     60 H           8.5625   -3.9394   -0.2560 H       1  UNL1        0.0391
     61 H           6.8803   -2.3723    1.9794 H       1  UNL1        0.0439
     62 H           7.4023   -0.6923    1.7482 H       1  UNL1        0.0439
     63 H           5.4700   -1.0880    0.3508 H       1  UNL1        0.0439
     64 H           6.0537   -2.6938   -0.1278 H       1  UNL1        0.0439
     65 H           2.3066    0.9070   -2.3885 H       1  UNL1        0.0631
     66 H          -1.5856    0.8721    0.3064 H       1  UNL1        0.0655
     67 H          -3.9510    1.6592    2.1999 H       1  UNL1        0.1551
     68 H          -5.2916    0.5385    3.1822 H       1  UNL1        0.0625
     69 H          -6.9658   -0.8281    4.2541 H       1  UNL1        0.0618
     70 H          -8.6335   -2.1013    2.9517 H       1  UNL1        0.0624
     71 H          -9.9391   -3.1059    1.8282 H       1  UNL1        0.0639
     72 H         -11.4446   -4.2561    0.3260 H       1  UNL1        0.0619
     73 H         -11.2139   -3.9807   -2.1386 H       1  UNL1        0.0633
     74 H          -9.4399   -2.5305   -2.9794 H       1  UNL1        0.0830
     75 H          -6.8524   -0.5598   -0.6124 H       1  UNL1        0.0632
@<TRIPOS>BOND
     1     1     2    1
     2     2     3   ar
     3     3     4   ar
     4     4     5   ar
     5     5     6    1
     6     6     7   am
     7     7     8    2
     8     7     9    1
     9     9    10   ar
    10    10    11   ar
    11    11    12   ar
    12    12    13    1
    13    13    14    1
    14    14    15    1
    15    15    16    1
    16    16    17    1
    17    17    18    1
    18    17    19    1
    19    19    20    1
    20    12    21   ar
    21    21    22    1
    22    22    23    1
    23    22    24    1
    24    22    25    1
    25    21    26   ar
    26     5    27   ar
    27    27    28   ar
    28    28    29    1
    29    29    30   am
    30    30    31    2
    31    30    32    1
    32    32    33   ar
    33    33    34   ar
    34    34    35   ar
    35    35    36   ar
    36    36    37    1
    37    37    38   ar
    38    38    39   ar
    39    39    40   ar
    40    40    41   ar
    41    41    42   ar
    42    36    43   ar
    43    28     2   ar
    44    43    32   ar
    45    26     9   ar
    46    42    37   ar
    47    20    14    1
    48     1    44    1
    49     1    45    1
    50     1    46    1
    51     3    47    1
    52     4    48    1
    53     6    49    1
    54    10    50    1
    55    11    51    1
    56    13    52    1
    57    13    53    1
    58    15    54    1
    59    15    55    1
    60    16    56    1
    61    16    57    1
    62    18    58    1
    63    18    59    1
    64    18    60    1
    65    19    61    1
    66    19    62    1
    67    20    63    1
    68    20    64    1
    69    26    65    1
    70    27    66    1
    71    29    67    1
    72    33    68    1
    73    34    69    1
    74    35    70    1
    75    38    71    1
    76    39    72    1
    77    40    73    1
    78    41    74    1
    79    43    75    1
