
     RDKit          3D

 59 61  0  0  0  0  0  0  0  0999 V2000
   -3.1119   -1.2762   -3.9254 C   0  0  0  0  0  0  0  0  0  0  0  0
   -3.8283   -0.7056   -2.7533 C   0  0  0  0  0  0  0  0  0  0  0  0
   -4.5155    0.3485   -2.8729 O   0  0  0  0  0  0  0  0  0  0  0  0
   -3.7815   -1.2982   -1.4662 N   0  0  0  0  0  0  0  0  0  0  0  0
   -4.4864   -0.7139   -0.3689 C   0  0  1  0  0  0  0  0  0  0  0  0
   -5.5432   -1.7164    0.0520 C   0  0  0  0  0  0  0  0  0  0  0  0
   -6.3444   -1.2178    1.1918 C   0  0  0  0  0  0  0  0  0  0  0  0
   -5.9725   -1.3718    2.3840 O   0  0  0  0  0  0  0  0  0  0  0  0
   -7.5370   -0.5641    0.9167 O   0  0  0  0  0  0  0  0  0  0  0  0
   -3.5912   -0.3121    0.7425 C   0  0  0  0  0  0  0  0  0  0  0  0
   -3.9898    0.2336    1.8003 O   0  0  0  0  0  0  0  0  0  0  0  0
   -2.1838   -0.5306    0.6678 N   0  0  0  0  0  0  0  0  0  0  0  0
   -1.2362   -0.1799    1.6817 C   0  0  1  0  0  0  0  0  0  0  0  0
   -0.4620   -1.3208    2.2454 C   0  0  0  0  0  0  0  0  0  0  0  0
    0.2065   -0.8877    3.5379 C   0  0  0  0  0  0  0  0  0  0  0  0
    1.5885   -0.3265    3.3047 C   0  0  0  0  0  0  0  0  0  0  0  0
    1.4620    1.0877    2.8763 C   0  0  1  0  0  0  0  0  0  0  0  0
    3.0189    2.0048    2.8852 S   0  0  0  0  0  0  0  0  0  0  0  0
    2.7149    2.8847    1.2961 C   0  0  0  0  0  0  0  0  0  0  0  0
    1.8593    1.8662    0.6221 C   0  0  1  0  0  0  0  0  0  0  0  0
    2.6347    0.8717   -0.1660 C   0  0  0  0  0  0  0  0  0  0  0  0
    2.4512   -0.3570    0.0175 O   0  0  0  0  0  0  0  0  0  0  0  0
    3.5856    1.2632   -1.1293 N   0  0  0  0  0  0  0  0  0  0  0  0
    4.3114    0.2471   -1.8672 C   0  0  1  0  0  0  0  0  0  0  0  0
    4.2893    0.4660   -3.3600 C   0  0  0  0  0  0  0  0  0  0  0  0
    5.6823    0.1785   -3.7885 C   0  0  0  0  0  0  0  0  0  0  0  0
    6.1158    0.2545   -4.9675 O   0  0  0  0  0  0  0  0  0  0  0  0
    6.3953   -0.1828   -2.6554 O   0  0  0  0  0  0  0  0  0  0  0  0
    5.7982    0.4887   -1.5755 C   0  0  0  0  0  0  0  0  0  0  0  0
    6.1580    0.0092   -0.3399 O   0  0  0  0  0  0  0  0  0  0  0  0
    0.9565    1.2676    1.5335 N   0  0  0  0  0  0  0  0  0  0  0  0
   -0.3566    0.8793    1.1223 C   0  0  0  0  0  0  0  0  0  0  0  0
   -0.8448    1.5342    0.1345 O   0  0  0  0  0  0  0  0  0  0  0  0
   -3.7597   -1.9949   -4.4393 H   0  0  0  0  0  0  0  0  0  0  0  0
   -2.8573   -0.4303   -4.5988 H   0  0  0  0  0  0  0  0  0  0  0  0
   -2.1807   -1.7932   -3.5844 H   0  0  0  0  0  0  0  0  0  0  0  0
   -3.2108   -2.1780   -1.3552 H   0  0  0  0  0  0  0  0  0  0  0  0
   -5.0150    0.1935   -0.7230 H   0  0  0  0  0  0  0  0  0  0  0  0
   -6.2374   -1.8994   -0.7915 H   0  0  0  0  0  0  0  0  0  0  0  0
   -5.0879   -2.7079    0.2811 H   0  0  0  0  0  0  0  0  0  0  0  0
   -8.1601   -0.4011    1.6990 H   0  0  0  0  0  0  0  0  0  0  0  0
   -1.8081   -0.9829   -0.1947 H   0  0  0  0  0  0  0  0  0  0  0  0
   -1.8025    0.2923    2.5211 H   0  0  0  0  0  0  0  0  0  0  0  0
    0.2864   -1.7419    1.5577 H   0  0  0  0  0  0  0  0  0  0  0  0
   -1.2003   -2.1036    2.5562 H   0  0  0  0  0  0  0  0  0  0  0  0
    0.2478   -1.7157    4.2751 H   0  0  0  0  0  0  0  0  0  0  0  0
   -0.4154   -0.0845    3.9687 H   0  0  0  0  0  0  0  0  0  0  0  0
    2.2134   -0.9650    2.6845 H   0  0  0  0  0  0  0  0  0  0  0  0
    2.0816   -0.3078    4.3213 H   0  0  0  0  0  0  0  0  0  0  0  0
    0.7925    1.6020    3.6240 H   0  0  0  0  0  0  0  0  0  0  0  0
    3.6780    3.0250    0.8143 H   0  0  0  0  0  0  0  0  0  0  0  0
    2.1573    3.8230    1.4831 H   0  0  0  0  0  0  0  0  0  0  0  0
    1.2581    2.4291   -0.1531 H   0  0  0  0  0  0  0  0  0  0  0  0
    3.7814    2.2727   -1.3255 H   0  0  0  0  0  0  0  0  0  0  0  0
    4.0003   -0.7523   -1.5565 H   0  0  0  0  0  0  0  0  0  0  0  0
    3.6537   -0.3282   -3.8378 H   0  0  0  0  0  0  0  0  0  0  0  0
    3.9866    1.4806   -3.6305 H   0  0  0  0  0  0  0  0  0  0  0  0
    5.9638    1.5993   -1.6820 H   0  0  0  0  0  0  0  0  0  0  0  0
    6.1913    0.7448    0.3100 H   0  0  0  0  0  0  0  0  0  0  0  0
  1  2  1  0
  2  3  2  0
  2  4  1  0
  4  5  1  0
  5  6  1  0
  6  7  1  0
  7  8  2  0
  7  9  1  0
  5 10  1  0
 10 11  2  0
 10 12  1  0
 12 13  1  0
 13 14  1  0
 14 15  1  0
 15 16  1  0
 16 17  1  0
 17 18  1  0
 18 19  1  0
 19 20  1  0
 20 21  1  0
 21 22  2  0
 21 23  1  0
 23 24  1  0
 24 25  1  0
 25 26  1  0
 26 27  2  0
 26 28  1  0
 28 29  1  0
 29 30  1  0
 20 31  1  0
 31 32  1  0
 32 33  2  0
 32 13  1  0
 31 17  1  0
 29 24  1  0
  1 34  1  0
  1 35  1  0
  1 36  1  0
  4 37  1  0
  5 38  1  6
  6 39  1  0
  6 40  1  0
  9 41  1  0
 12 42  1  0
 13 43  1  1
 14 44  1  0
 14 45  1  0
 15 46  1  0
 15 47  1  0
 16 48  1  0
 16 49  1  0
 17 50  1  1
 19 51  1  0
 19 52  1  0
 20 53  1  6
 23 54  1  0
 24 55  1  6
 25 56  1  0
 25 57  1  0
 29 58  1  0
 30 59  1  0
M  END
$$$$
