@<TRIPOS>MOLECULE
*****
 59 61 0 0 0
SMALL
GASTEIGER

@<TRIPOS>ATOM
      1 C          -3.1119   -1.2762   -3.9254 C.3     1  UNL1        0.0122
      2 C          -3.8283   -0.7056   -2.7533 C.2     1  UNL1        0.2105
      3 O          -4.5155    0.3485   -2.8729 O.2     1  UNL1       -0.2761
      4 N          -3.7815   -1.2982   -1.4662 N.am    1  UNL1       -0.3037
      5 C          -4.4864   -0.7139   -0.3689 C.3     1  UNL1        0.1094
      6 C          -5.5432   -1.7164    0.0520 C.3     1  UNL1        0.0716
      7 C          -6.3444   -1.2178    1.1918 C.2     1  UNL1        0.3070
      8 O          -5.9725   -1.3718    2.3840 O.2     1  UNL1       -0.2509
      9 O          -7.5370   -0.5641    0.9167 O.3     1  UNL1       -0.4806
     10 C          -3.5912   -0.3121    0.7425 C.2     1  UNL1        0.2345
     11 O          -3.9898    0.2336    1.8003 O.2     1  UNL1       -0.2737
     12 N          -2.1838   -0.5306    0.6678 N.am    1  UNL1       -0.3025
     13 C          -1.2362   -0.1799    1.6817 C.3     1  UNL1        0.0997
     14 C          -0.4620   -1.3208    2.2454 C.3     1  UNL1       -0.0259
     15 C           0.2065   -0.8877    3.5379 C.3     1  UNL1       -0.0485
     16 C           1.5885   -0.3265    3.3047 C.3     1  UNL1       -0.0248
     17 C           1.4620    1.0877    2.8763 C.3     1  UNL1        0.0732
     18 S           3.0189    2.0048    2.8852 S.3     1  UNL1       -0.1360
     19 C           2.7149    2.8847    1.2961 C.3     1  UNL1        0.0226
     20 C           1.8593    1.8662    0.6221 C.3     1  UNL1        0.1122
     21 C           2.6347    0.8717   -0.1660 C.2     1  UNL1        0.2348
     22 O           2.4512   -0.3570    0.0175 O.2     1  UNL1       -0.2737
     23 N           3.5856    1.2632   -1.1293 N.am    1  UNL1       -0.3044
     24 C           4.3114    0.2471   -1.8672 C.3     1  UNL1        0.0954
     25 C           4.2893    0.4660   -3.3600 C.3     1  UNL1        0.0692
     26 C           5.6823    0.1785   -3.7885 C.2     1  UNL1        0.3113
     27 O           6.1158    0.2545   -4.9675 O.2     1  UNL1       -0.2507
     28 O           6.3953   -0.1828   -2.6554 O.3     1  UNL1       -0.4332
     29 C           5.7982    0.4887   -1.5755 C.3     1  UNL1        0.2213
     30 O           6.1580    0.0092   -0.3399 O.3     1  UNL1       -0.3563
     31 N           0.9565    1.2676    1.5335 N.am    1  UNL1       -0.2756
     32 C          -0.3566    0.8793    1.1223 C.2     1  UNL1        0.2374
     33 O          -0.8448    1.5342    0.1345 O.2     1  UNL1       -0.2735
     34 H          -3.7597   -1.9949   -4.4393 H       1  UNL1        0.0322
     35 H          -2.8573   -0.4303   -4.5988 H       1  UNL1        0.0322
     36 H          -2.1807   -1.7932   -3.5844 H       1  UNL1        0.0322
     37 H          -3.2108   -2.1780   -1.3552 H       1  UNL1        0.1495
     38 H          -5.0150    0.1935   -0.7230 H       1  UNL1        0.0600
     39 H          -6.2374   -1.8994   -0.7915 H       1  UNL1        0.0401
     40 H          -5.0879   -2.7079    0.2811 H       1  UNL1        0.0401
     41 H          -8.1601   -0.4011    1.6990 H       1  UNL1        0.2951
     42 H          -1.8081   -0.9829   -0.1947 H       1  UNL1        0.1495
     43 H          -1.8025    0.2923    2.5211 H       1  UNL1        0.0594
     44 H           0.2864   -1.7419    1.5577 H       1  UNL1        0.0288
     45 H          -1.2003   -2.1036    2.5562 H       1  UNL1        0.0288
     46 H           0.2478   -1.7157    4.2751 H       1  UNL1        0.0267
     47 H          -0.4154   -0.0845    3.9687 H       1  UNL1        0.0267
     48 H           2.2134   -0.9650    2.6845 H       1  UNL1        0.0291
     49 H           2.0816   -0.3078    4.3213 H       1  UNL1        0.0291
     50 H           0.7925    1.6020    3.6240 H       1  UNL1        0.0616
     51 H           3.6780    3.0250    0.8143 H       1  UNL1        0.0400
     52 H           2.1573    3.8230    1.4831 H       1  UNL1        0.0400
     53 H           1.2581    2.4291   -0.1531 H       1  UNL1        0.0605
     54 H           3.7814    2.2727   -1.3255 H       1  UNL1        0.1493
     55 H           4.0003   -0.7523   -1.5565 H       1  UNL1        0.0565
     56 H           3.6537   -0.3282   -3.8378 H       1  UNL1        0.0398
     57 H           3.9866    1.4806   -3.6305 H       1  UNL1        0.0398
     58 H           5.9638    1.5993   -1.6820 H       1  UNL1        0.1074
     59 H           6.1913    0.7448    0.3100 H       1  UNL1        0.2136
@<TRIPOS>BOND
     1     1     2    1
     2     2     3    2
     3     2     4   am
     4     4     5    1
     5     5     6    1
     6     6     7    1
     7     7     8    2
     8     7     9    1
     9     5    10    1
    10    10    11    2
    11    10    12   am
    12    12    13    1
    13    13    14    1
    14    14    15    1
    15    15    16    1
    16    16    17    1
    17    17    18    1
    18    18    19    1
    19    19    20    1
    20    20    21    1
    21    21    22    2
    22    21    23   am
    23    23    24    1
    24    24    25    1
    25    25    26    1
    26    26    27    2
    27    26    28    1
    28    28    29    1
    29    29    30    1
    30    20    31    1
    31    31    32   am
    32    32    33    2
    33    32    13    1
    34    31    17    1
    35    29    24    1
    36     1    34    1
    37     1    35    1
    38     1    36    1
    39     4    37    1
    40     5    38    1
    41     6    39    1
    42     6    40    1
    43     9    41    1
    44    12    42    1
    45    13    43    1
    46    14    44    1
    47    14    45    1
    48    15    46    1
    49    15    47    1
    50    16    48    1
    51    16    49    1
    52    17    50    1
    53    19    51    1
    54    19    52    1
    55    20    53    1
    56    23    54    1
    57    24    55    1
    58    25    56    1
    59    25    57    1
    60    29    58    1
    61    30    59    1
