@<TRIPOS>MOLECULE
*****
 59 62 0 0 0
SMALL
GASTEIGER

@<TRIPOS>ATOM
      1 C          -3.9038    3.8459    1.5349 C.3     1  UNL1       -0.0495
      2 C          -3.8944    2.6257    0.6617 C.3     1  UNL1        0.0102
      3 N          -2.5148    2.1813    0.4189 N.am    1  UNL1       -0.2991
      4 C          -2.2350    1.0581   -0.3636 C.2     1  UNL1        0.3105
      5 O          -3.2699    0.4583   -0.8357 O.2     1  UNL1       -0.2521
      6 N          -0.9427    0.5760   -0.6411 N.am    1  UNL1       -0.1973
      7 C           0.1866    1.2700   -0.1705 C.2     1  UNL1        0.3216
      8 O           0.1609    2.3797    0.4510 O.2     1  UNL1       -0.2512
      9 N           1.5404    0.7805   -0.3503 N.am    1  UNL1       -0.2271
     10 C           2.6780    1.4794    0.1189 C.ar    1  UNL1        0.0430
     11 C           3.2960    2.3553   -0.7755 C.ar    1  UNL1       -0.0399
     12 C           4.4107    3.0889   -0.3959 C.ar    1  UNL1       -0.0595
     13 C           4.9239    2.9680    0.8579 C.ar    1  UNL1       -0.0500
     14 C           4.3259    2.1009    1.7685 C.ar    1  UNL1        0.0566
     15 C           4.8912    1.9827    3.1241 C.3     1  UNL1        0.4175
     16 F           4.1066    1.1057    3.8500 F       1  UNL1       -0.1659
     17 F           4.9006    3.2237    3.7559 F       1  UNL1       -0.1659
     18 F           6.1736    1.4820    3.0461 F       1  UNL1       -0.1659
     19 C           3.2064    1.3724    1.3678 C.ar    1  UNL1       -0.0283
     20 C           1.6478   -0.4500   -1.0452 C.2     1  UNL1        0.0290
     21 C           0.6172   -1.1033   -1.5053 C.2     1  UNL1        0.0380
     22 C           1.1154   -2.3360   -2.1687 C.2     1  UNL1        0.1632
     23 O           0.3964   -3.2680   -2.5939 O.2     1  UNL1       -0.2923
     24 C           2.5822   -2.2964   -2.2484 C.3     1  UNL1        0.0154
     25 C           2.9372   -1.1765   -1.3469 C.3     1  UNL1       -0.0064
     26 C          -0.7698   -0.6219   -1.4292 C.3     1  UNL1        0.0932
     27 C          -1.7951   -1.6394   -1.3225 C.ar    1  UNL1        0.0029
     28 C          -2.7850   -1.7388   -2.3290 C.ar    1  UNL1       -0.0534
     29 C          -3.7203   -2.7305   -2.3785 C.ar    1  UNL1       -0.0439
     30 C          -3.7391   -3.7243   -1.4025 C.ar    1  UNL1        0.0536
     31 C          -4.6778   -4.7830   -1.4401 C.1     1  UNL1        0.0992
     32 N          -5.4822   -5.6803   -1.4521 N.1     1  UNL1       -0.1909
     33 C          -2.7793   -3.6266   -0.4229 C.ar    1  UNL1       -0.0192
     34 C          -1.8137   -2.6067   -0.3641 C.ar    1  UNL1        0.0944
     35 S          -0.7731   -2.6126    0.9935 S.O2    1  UNL1       -0.0055
     36 C          -1.0185   -1.2067    2.0934 C.3     1  UNL1        0.0596
     37 O           0.6632   -2.8556    0.7798 O.2     1  UNL1       -0.1696
     38 O          -1.1909   -3.8019    1.8956 O.2     1  UNL1       -0.1696
     39 H          -2.9672    3.9634    2.1330 H       1  UNL1        0.0245
     40 H          -4.7708    3.7705    2.2327 H       1  UNL1        0.0245
     41 H          -4.0270    4.7518    0.9155 H       1  UNL1        0.0245
     42 H          -4.4073    1.8026    1.2126 H       1  UNL1        0.0460
     43 H          -4.4481    2.7753   -0.2827 H       1  UNL1        0.0460
     44 H          -1.8021    2.7679    0.8827 H       1  UNL1        0.1502
     45 H           2.9119    2.4742   -1.7786 H       1  UNL1        0.0636
     46 H           4.9071    3.7802   -1.0898 H       1  UNL1        0.0618
     47 H           5.8060    3.5442    1.1685 H       1  UNL1        0.0623
     48 H           2.7327    0.6993    2.0614 H       1  UNL1        0.0642
     49 H           2.8454   -1.9890   -3.2962 H       1  UNL1        0.0349
     50 H           3.0579   -3.2642   -1.9797 H       1  UNL1        0.0349
     51 H           3.6344   -0.4355   -1.7820 H       1  UNL1        0.0330
     52 H           3.3771   -1.5779   -0.4103 H       1  UNL1        0.0330
     53 H          -0.9183   -0.1751   -2.5003 H       1  UNL1        0.0608
     54 H          -2.8122   -0.9923   -3.1102 H       1  UNL1        0.0622
     55 H          -4.4686   -2.7798   -3.1703 H       1  UNL1        0.0630
     56 H          -2.8201   -4.4233    0.3305 H       1  UNL1        0.0649
     57 H          -0.2065   -0.4724    1.9702 H       1  UNL1        0.0468
     58 H          -1.9781   -0.7503    1.7973 H       1  UNL1        0.0468
     59 H          -1.1006   -1.5460    3.1585 H       1  UNL1        0.0468
@<TRIPOS>BOND
     1     1     2    1
     2     2     3    1
     3     3     4   am
     4     4     5    2
     5     4     6   am
     6     6     7   am
     7     7     8    2
     8     7     9   am
     9     9    10    1
    10    10    11   ar
    11    11    12   ar
    12    12    13   ar
    13    13    14   ar
    14    14    15    1
    15    15    16    1
    16    15    17    1
    17    15    18    1
    18    14    19   ar
    19     9    20    1
    20    20    21    2
    21    21    22    1
    22    22    23    2
    23    22    24    1
    24    24    25    1
    25    21    26    1
    26    26    27    1
    27    27    28   ar
    28    28    29   ar
    29    29    30   ar
    30    30    31    1
    31    31    32    3
    32    30    33   ar
    33    33    34   ar
    34    34    35    1
    35    35    36    1
    36    35    37    2
    37    35    38    2
    38    26     6    1
    39    34    27   ar
    40    19    10   ar
    41    25    20    1
    42     1    39    1
    43     1    40    1
    44     1    41    1
    45     2    42    1
    46     2    43    1
    47     3    44    1
    48    11    45    1
    49    12    46    1
    50    13    47    1
    51    19    48    1
    52    24    49    1
    53    24    50    1
    54    25    51    1
    55    25    52    1
    56    26    53    1
    57    28    54    1
    58    29    55    1
    59    33    56    1
    60    36    57    1
    61    36    58    1
    62    36    59    1
