
     RDKit          3D

 59 62  0  0  0  0  0  0  0  0999 V2000
   -3.9038    3.8459    1.5349 C   0  0  0  0  0  0  0  0  0  0  0  0
   -3.8944    2.6257    0.6617 C   0  0  0  0  0  0  0  0  0  0  0  0
   -2.5148    2.1813    0.4189 N   0  0  0  0  0  0  0  0  0  0  0  0
   -2.2350    1.0581   -0.3636 C   0  0  0  0  0  0  0  0  0  0  0  0
   -3.2699    0.4583   -0.8357 O   0  0  0  0  0  0  0  0  0  0  0  0
   -0.9427    0.5760   -0.6411 N   0  0  0  0  0  0  0  0  0  0  0  0
    0.1866    1.2700   -0.1705 C   0  0  0  0  0  0  0  0  0  0  0  0
    0.1609    2.3797    0.4510 O   0  0  0  0  0  0  0  0  0  0  0  0
    1.5404    0.7805   -0.3503 N   0  0  0  0  0  0  0  0  0  0  0  0
    2.6780    1.4794    0.1189 C   0  0  0  0  0  0  0  0  0  0  0  0
    3.2960    2.3553   -0.7755 C   0  0  0  0  0  0  0  0  0  0  0  0
    4.4107    3.0889   -0.3959 C   0  0  0  0  0  0  0  0  0  0  0  0
    4.9239    2.9680    0.8579 C   0  0  0  0  0  0  0  0  0  0  0  0
    4.3259    2.1009    1.7685 C   0  0  0  0  0  0  0  0  0  0  0  0
    4.8912    1.9827    3.1241 C   0  0  0  0  0  0  0  0  0  0  0  0
    4.1066    1.1057    3.8500 F   0  0  0  0  0  0  0  0  0  0  0  0
    4.9006    3.2237    3.7559 F   0  0  0  0  0  0  0  0  0  0  0  0
    6.1736    1.4820    3.0461 F   0  0  0  0  0  0  0  0  0  0  0  0
    3.2064    1.3724    1.3678 C   0  0  0  0  0  0  0  0  0  0  0  0
    1.6478   -0.4500   -1.0452 C   0  0  0  0  0  0  0  0  0  0  0  0
    0.6172   -1.1033   -1.5053 C   0  0  0  0  0  0  0  0  0  0  0  0
    1.1154   -2.3360   -2.1687 C   0  0  0  0  0  0  0  0  0  0  0  0
    0.3964   -3.2680   -2.5939 O   0  0  0  0  0  0  0  0  0  0  0  0
    2.5822   -2.2964   -2.2484 C   0  0  0  0  0  0  0  0  0  0  0  0
    2.9372   -1.1765   -1.3469 C   0  0  0  0  0  0  0  0  0  0  0  0
   -0.7698   -0.6219   -1.4292 C   0  0  1  0  0  0  0  0  0  0  0  0
   -1.7951   -1.6394   -1.3225 C   0  0  0  0  0  0  0  0  0  0  0  0
   -2.7850   -1.7388   -2.3290 C   0  0  0  0  0  0  0  0  0  0  0  0
   -3.7203   -2.7305   -2.3785 C   0  0  0  0  0  0  0  0  0  0  0  0
   -3.7391   -3.7243   -1.4025 C   0  0  0  0  0  0  0  0  0  0  0  0
   -4.6778   -4.7830   -1.4401 C   0  0  0  0  0  0  0  0  0  0  0  0
   -5.4822   -5.6803   -1.4521 N   0  0  0  0  0  0  0  0  0  0  0  0
   -2.7793   -3.6266   -0.4229 C   0  0  0  0  0  0  0  0  0  0  0  0
   -1.8137   -2.6067   -0.3641 C   0  0  0  0  0  0  0  0  0  0  0  0
   -0.7731   -2.6126    0.9935 S   0  0  0  0  0  6  0  0  0  0  0  0
   -1.0185   -1.2067    2.0934 C   0  0  0  0  0  0  0  0  0  0  0  0
    0.6632   -2.8556    0.7798 O   0  0  0  0  0  0  0  0  0  0  0  0
   -1.1909   -3.8019    1.8956 O   0  0  0  0  0  0  0  0  0  0  0  0
   -2.9672    3.9634    2.1330 H   0  0  0  0  0  0  0  0  0  0  0  0
   -4.7708    3.7705    2.2327 H   0  0  0  0  0  0  0  0  0  0  0  0
   -4.0270    4.7518    0.9155 H   0  0  0  0  0  0  0  0  0  0  0  0
   -4.4073    1.8026    1.2126 H   0  0  0  0  0  0  0  0  0  0  0  0
   -4.4481    2.7753   -0.2827 H   0  0  0  0  0  0  0  0  0  0  0  0
   -1.8021    2.7679    0.8827 H   0  0  0  0  0  0  0  0  0  0  0  0
    2.9119    2.4742   -1.7786 H   0  0  0  0  0  0  0  0  0  0  0  0
    4.9071    3.7802   -1.0898 H   0  0  0  0  0  0  0  0  0  0  0  0
    5.8060    3.5442    1.1685 H   0  0  0  0  0  0  0  0  0  0  0  0
    2.7327    0.6993    2.0614 H   0  0  0  0  0  0  0  0  0  0  0  0
    2.8454   -1.9890   -3.2962 H   0  0  0  0  0  0  0  0  0  0  0  0
    3.0579   -3.2642   -1.9797 H   0  0  0  0  0  0  0  0  0  0  0  0
    3.6344   -0.4355   -1.7820 H   0  0  0  0  0  0  0  0  0  0  0  0
    3.3771   -1.5779   -0.4103 H   0  0  0  0  0  0  0  0  0  0  0  0
   -0.9183   -0.1751   -2.5003 H   0  0  0  0  0  0  0  0  0  0  0  0
   -2.8122   -0.9923   -3.1102 H   0  0  0  0  0  0  0  0  0  0  0  0
   -4.4686   -2.7798   -3.1703 H   0  0  0  0  0  0  0  0  0  0  0  0
   -2.8201   -4.4233    0.3305 H   0  0  0  0  0  0  0  0  0  0  0  0
   -0.2065   -0.4724    1.9702 H   0  0  0  0  0  0  0  0  0  0  0  0
   -1.9781   -0.7503    1.7973 H   0  0  0  0  0  0  0  0  0  0  0  0
   -1.1006   -1.5460    3.1585 H   0  0  0  0  0  0  0  0  0  0  0  0
  1  2  1  0
  2  3  1  0
  3  4  1  0
  4  5  2  0
  4  6  1  0
  6  7  1  0
  7  8  2  0
  7  9  1  0
  9 10  1  0
 10 11  2  0
 11 12  1  0
 12 13  2  0
 13 14  1  0
 14 15  1  0
 15 16  1  0
 15 17  1  0
 15 18  1  0
 14 19  2  0
  9 20  1  0
 20 21  2  0
 21 22  1  0
 22 23  2  0
 22 24  1  0
 24 25  1  0
 21 26  1  0
 26 27  1  0
 27 28  2  0
 28 29  1  0
 29 30  2  0
 30 31  1  0
 31 32  3  0
 30 33  1  0
 33 34  2  0
 34 35  1  0
 35 36  1  0
 35 37  2  0
 35 38  2  0
 26  6  1  0
 34 27  1  0
 19 10  1  0
 25 20  1  0
  1 39  1  0
  1 40  1  0
  1 41  1  0
  2 42  1  0
  2 43  1  0
  3 44  1  0
 11 45  1  0
 12 46  1  0
 13 47  1  0
 19 48  1  0
 24 49  1  0
 24 50  1  0
 25 51  1  0
 25 52  1  0
 26 53  1  6
 28 54  1  0
 29 55  1  0
 33 56  1  0
 36 57  1  0
 36 58  1  0
 36 59  1  0
M  END
$$$$
