@<TRIPOS>MOLECULE
*****
 31 31 0 0 0
SMALL
GASTEIGER

@<TRIPOS>ATOM
      1 C          -3.5315   -1.2910   -1.4746 C.3     1  UNL1       -0.0267
      2 C          -3.0563   -0.9206   -0.1045 C.3     1  UNL1        0.1483
      3 O          -3.2032   -2.0445    0.7243 O.3     1  UNL1       -0.3788
      4 C          -3.8634    0.2218    0.4454 C.3     1  UNL1        0.0405
      5 BR         -3.7354    1.7915   -0.6680 Br      1  UNL1       -0.0883
      6 C          -1.6399   -0.5276   -0.1683 C.2     1  UNL1        0.2495
      7 O          -1.7346   -1.5264    0.6269 O.2     1  UNL1       -0.2723
      8 N          -0.7313    0.3842   -0.7459 N.am    1  UNL1       -0.2831
      9 C           0.6497    0.2968   -0.4236 C.ar    1  UNL1        0.0344
     10 C           1.2637    0.9542    0.6128 C.ar    1  UNL1       -0.0222
     11 C           2.5988    0.8213    0.8574 C.ar    1  UNL1        0.1333
     12 C           3.2928   -0.0007    0.0162 C.ar    1  UNL1        0.2849
     13 C           2.7211   -0.6835   -1.0392 C.ar    1  UNL1        0.0179
     14 C           1.3765   -0.5434   -1.2776 C.ar    1  UNL1       -0.0340
     15 N           4.7050   -0.2334    0.1469 N.pl3   1  UNL1        0.0802
     16 O           5.5879   -0.2066    1.1912 O.co2   1  UNL1       -0.5760
     17 O           5.4388   -0.5410   -0.8070 O.2     1  UNL1        0.0415
     18 C           3.2880    1.5177    1.9731 C.3     1  UNL1        0.4237
     19 F           4.2954    2.3466    1.5093 F       1  UNL1       -0.1656
     20 F           2.3274    2.2482    2.6457 F       1  UNL1       -0.1656
     21 F           3.7678    0.5625    2.8570 F       1  UNL1       -0.1656
     22 H          -3.5964   -0.3874   -2.1153 H       1  UNL1        0.0262
     23 H          -2.7793   -2.0208   -1.8908 H       1  UNL1        0.0262
     24 H          -4.4969   -1.8209   -1.4444 H       1  UNL1        0.0262
     25 H          -3.9964   -2.5329    0.4500 H       1  UNL1        0.2108
     26 H          -3.5237    0.5280    1.4557 H       1  UNL1        0.0415
     27 H          -4.9192   -0.1215    0.5352 H       1  UNL1        0.0415
     28 H          -1.3567    0.9527   -1.3262 H       1  UNL1        0.1549
     29 H           0.6452    1.5963    1.2457 H       1  UNL1        0.0644
     30 H           3.2816   -1.3346   -1.7017 H       1  UNL1        0.0686
     31 H           0.9243   -1.0778   -2.1056 H       1  UNL1        0.0638
@<TRIPOS>UNITY_ATOM_ATTR
15 1
charge 1
16 1
charge -1
@<TRIPOS>BOND
     1     1     2    1
     2     2     3    1
     3     2     4    1
     4     4     5    1
     5     2     6    1
     6     6     7    2
     7     6     8   am
     8     8     9    1
     9     9    10   ar
    10    10    11   ar
    11    11    12   ar
    12    12    13   ar
    13    13    14   ar
    14    12    15    1
    15    15    16    1
    16    15    17    2
    17    11    18    1
    18    18    19    1
    19    18    20    1
    20    18    21    1
    21    14     9   ar
    22     1    22    1
    23     1    23    1
    24     1    24    1
    25     3    25    1
    26     4    26    1
    27     4    27    1
    28     8    28    1
    29    10    29    1
    30    13    30    1
    31    14    31    1
