
     RDKit          3D

 31 31  0  0  0  0  0  0  0  0999 V2000
   -3.5315   -1.2910   -1.4746 C   0  0  0  0  0  0  0  0  0  0  0  0
   -3.0563   -0.9206   -0.1045 C   0  0  2  0  0  0  0  0  0  0  0  0
   -3.2032   -2.0445    0.7243 O   0  0  0  0  0  0  0  0  0  0  0  0
   -3.8634    0.2218    0.4454 C   0  0  0  0  0  0  0  0  0  0  0  0
   -3.7354    1.7915   -0.6680 Br  0  0  0  0  0  0  0  0  0  0  0  0
   -1.6399   -0.5276   -0.1683 C   0  0  0  0  0  0  0  0  0  0  0  0
   -1.7346   -1.5264    0.6269 O   0  0  0  0  0  0  0  0  0  0  0  0
   -0.7313    0.3842   -0.7459 N   0  0  0  0  0  0  0  0  0  0  0  0
    0.6497    0.2968   -0.4236 C   0  0  0  0  0  0  0  0  0  0  0  0
    1.2637    0.9542    0.6128 C   0  0  0  0  0  0  0  0  0  0  0  0
    2.5988    0.8213    0.8574 C   0  0  0  0  0  0  0  0  0  0  0  0
    3.2928   -0.0007    0.0162 C   0  0  0  0  0  0  0  0  0  0  0  0
    2.7211   -0.6835   -1.0392 C   0  0  0  0  0  0  0  0  0  0  0  0
    1.3765   -0.5434   -1.2776 C   0  0  0  0  0  0  0  0  0  0  0  0
    4.7050   -0.2334    0.1469 N   0  0  0  0  0  4  0  0  0  0  0  0
    5.5879   -0.2066    1.1912 O   0  0  0  0  0  1  0  0  0  0  0  0
    5.4388   -0.5410   -0.8070 O   0  0  0  0  0  0  0  0  0  0  0  0
    3.2880    1.5177    1.9731 C   0  0  0  0  0  0  0  0  0  0  0  0
    4.2954    2.3466    1.5093 F   0  0  0  0  0  0  0  0  0  0  0  0
    2.3274    2.2482    2.6457 F   0  0  0  0  0  0  0  0  0  0  0  0
    3.7678    0.5625    2.8570 F   0  0  0  0  0  0  0  0  0  0  0  0
   -3.5964   -0.3874   -2.1153 H   0  0  0  0  0  0  0  0  0  0  0  0
   -2.7793   -2.0208   -1.8908 H   0  0  0  0  0  0  0  0  0  0  0  0
   -4.4969   -1.8209   -1.4444 H   0  0  0  0  0  0  0  0  0  0  0  0
   -3.9964   -2.5329    0.4500 H   0  0  0  0  0  0  0  0  0  0  0  0
   -3.5237    0.5280    1.4557 H   0  0  0  0  0  0  0  0  0  0  0  0
   -4.9192   -0.1215    0.5352 H   0  0  0  0  0  0  0  0  0  0  0  0
   -1.3567    0.9527   -1.3262 H   0  0  0  0  0  0  0  0  0  0  0  0
    0.6452    1.5963    1.2457 H   0  0  0  0  0  0  0  0  0  0  0  0
    3.2816   -1.3346   -1.7017 H   0  0  0  0  0  0  0  0  0  0  0  0
    0.9243   -1.0778   -2.1056 H   0  0  0  0  0  0  0  0  0  0  0  0
  1  2  1  0
  2  3  1  1
  2  4  1  0
  4  5  1  0
  2  6  1  0
  6  7  2  0
  6  8  1  0
  8  9  1  0
  9 10  2  0
 10 11  1  0
 11 12  2  0
 12 13  1  0
 13 14  2  0
 12 15  1  0
 15 16  1  0
 15 17  2  0
 11 18  1  0
 18 19  1  0
 18 20  1  0
 18 21  1  0
 14  9  1  0
  1 22  1  0
  1 23  1  0
  1 24  1  0
  3 25  1  0
  4 26  1  0
  4 27  1  0
  8 28  1  0
 10 29  1  0
 13 30  1  0
 14 31  1  0
M  CHG  2  15   1  16  -1
M  END
$$$$
