@<TRIPOS>MOLECULE
*****
 40 43 0 0 0
SMALL
GASTEIGER

@<TRIPOS>ATOM
      1 C           6.2674    2.5439   -0.2061 C.3     1  UNL1       -0.0039
      2 C           5.6422    1.2262   -0.5915 C.ar    1  UNL1        0.1359
      3 N           6.5451    0.1786   -0.9522 N.ar    1  UNL1       -0.1939
      4 S           5.3740   -1.2102   -1.3320 S.2     1  UNL1        0.0369
      5 C           3.9191   -0.1781   -0.9513 C.ar    1  UNL1        0.1652
      6 C           2.5419   -0.7658   -1.0736 C.ar    1  UNL1        0.1910
      7 N           2.1695   -1.6618   -2.0138 N.ar    1  UNL1       -0.1269
      8 N           0.8979   -1.9439   -1.8039 N.ar    1  UNL1       -0.1320
      9 C           0.4458   -1.2478   -0.7489 C.ar    1  UNL1        0.1542
     10 N           1.4756   -0.5171   -0.3013 N.ar    1  UNL1       -0.3062
     11 C           1.3587    0.3775    0.8488 C.3     1  UNL1        0.0423
     12 C           0.2975   -0.2315    1.7764 C.3     1  UNL1        0.0338
     13 N          -0.9007   -0.3155    0.9822 N.am    1  UNL1       -0.2860
     14 C          -2.0126    0.4807    1.2822 C.2     1  UNL1        0.2473
     15 O          -1.9551    1.2844    2.2711 O.2     1  UNL1       -0.2700
     16 C          -3.2590    0.4792    0.5556 C.ar    1  UNL1        0.0385
     17 C          -3.6333    1.6486   -0.1182 C.ar    1  UNL1       -0.0468
     18 C          -4.8193    1.6559   -0.8040 C.ar    1  UNL1       -0.0243
     19 C          -5.6646    0.5621   -0.8620 C.ar    1  UNL1        0.1417
     20 F          -6.8422    0.6140   -1.5568 F       1  UNL1       -0.2040
     21 C          -5.2596   -0.5610   -0.1888 C.ar    1  UNL1        0.0768
     22 CL         -6.2729   -1.9860   -0.2163 Cl      1  UNL1       -0.0806
     23 C          -4.0715   -0.6308    0.5230 C.ar    1  UNL1       -0.0285
     24 C          -0.9181   -1.2364   -0.1203 C.3     1  UNL1        0.0834
     25 C          -1.2690   -2.6638    0.3323 C.3     1  UNL1       -0.0393
     26 N           4.4139    0.8637   -0.6513 N.ar    1  UNL1       -0.2199
     27 H           6.4317    2.5331    0.8739 H       1  UNL1        0.0308
     28 H           5.5161    3.3110   -0.5454 H       1  UNL1        0.0308
     29 H           7.1685    2.7039   -0.8200 H       1  UNL1        0.0308
     30 H           2.3161    0.5399    1.3460 H       1  UNL1        0.0508
     31 H           0.9364    1.3410    0.5312 H       1  UNL1        0.0508
     32 H           0.6058   -1.2174    2.1489 H       1  UNL1        0.0482
     33 H           0.1692    0.5140    2.5918 H       1  UNL1        0.0482
     34 H          -2.9716    2.4933   -0.0691 H       1  UNL1        0.0626
     35 H          -5.1306    2.5601   -1.3404 H       1  UNL1        0.0647
     36 H          -3.7961   -1.5349    1.0412 H       1  UNL1        0.0640
     37 H          -1.6572   -0.9558   -0.8962 H       1  UNL1        0.0579
     38 H          -1.6955   -2.6484    1.3614 H       1  UNL1        0.0252
     39 H          -2.0080   -3.1032   -0.3538 H       1  UNL1        0.0252
     40 H          -0.3555   -3.3018    0.2744 H       1  UNL1        0.0252
@<TRIPOS>BOND
     1     1     2    1
     2     2     3   ar
     3     3     4   ar
     4     4     5   ar
     5     5     6    1
     6     6     7   ar
     7     7     8   ar
     8     8     9   ar
     9     9    10   ar
    10    10    11    1
    11    11    12    1
    12    12    13    1
    13    13    14   am
    14    14    15    2
    15    14    16    1
    16    16    17   ar
    17    17    18   ar
    18    18    19   ar
    19    19    20    1
    20    19    21   ar
    21    21    22    1
    22    21    23   ar
    23    13    24    1
    24    24    25    1
    25     5    26   ar
    26    26     2   ar
    27    10     6   ar
    28    23    16   ar
    29    24     9    1
    30     1    27    1
    31     1    28    1
    32     1    29    1
    33    11    30    1
    34    11    31    1
    35    12    32    1
    36    12    33    1
    37    17    34    1
    38    18    35    1
    39    23    36    1
    40    24    37    1
    41    25    38    1
    42    25    39    1
    43    25    40    1
