@<TRIPOS>MOLECULE
*****
 49 51 0 0 0
SMALL
GASTEIGER

@<TRIPOS>ATOM
      1 C          -4.9628   -1.4384   -1.8918 C.3     1  UNL1       -0.0487
      2 C          -4.2382   -0.4002   -1.0854 C.3     1  UNL1        0.0367
      3 C          -5.0985   -0.0194    0.0980 C.3     1  UNL1       -0.0487
      4 S          -3.9634    1.1244   -2.0512 S.3     1  UNL1       -0.1511
      5 C          -3.0353    2.2538   -0.9433 C.3     1  UNL1        0.0087
      6 C          -2.0726    1.3873   -0.1680 C.3     1  UNL1        0.0304
      7 N          -1.8668    0.0993   -0.6787 N.3     1  UNL1       -0.1626
      8 S          -0.5016   -0.2125   -1.5927 S.O2    1  UNL1        0.0616
      9 O          -0.4356    0.7860   -2.7339 O.2     1  UNL1       -0.1528
     10 O          -0.4078   -1.5603   -2.1830 O.2     1  UNL1       -0.1528
     11 C           0.9354    0.0672   -0.6072 C.ar    1  UNL1        0.1057
     12 C           1.4848   -0.9503    0.1438 C.ar    1  UNL1       -0.0319
     13 C           2.6075   -0.7611    0.9241 C.ar    1  UNL1       -0.0175
     14 C           3.2313    0.4724    0.9824 C.ar    1  UNL1        0.1286
     15 O           4.3558    0.7106    1.7478 O.3     1  UNL1       -0.4559
     16 C           5.6482    0.5603    1.3331 C.ar    1  UNL1        0.1313
     17 C           6.3096    1.6186    0.7537 C.ar    1  UNL1       -0.0012
     18 C           7.6367    1.4894    0.3197 C.ar    1  UNL1        0.0310
     19 N           8.2765    0.3129    0.4707 N.ar    1  UNL1       -0.2630
     20 C           7.6610   -0.7423    1.0326 C.ar    1  UNL1        0.0310
     21 C           6.3356   -0.6243    1.4697 C.ar    1  UNL1       -0.0012
     22 C           2.6821    1.4904    0.2314 C.ar    1  UNL1       -0.0175
     23 C           1.5532    1.2983   -0.5526 C.ar    1  UNL1       -0.0319
     24 C          -2.8851   -0.8637   -0.5983 C.3     1  UNL1        0.1237
     25 C          -2.9364   -1.4635    0.7607 C.2     1  UNL1        0.2557
     26 O          -2.1770   -1.1273    1.7030 O.2     1  UNL1       -0.2719
     27 N          -3.8969   -2.4756    1.0148 N.am    1  UNL1       -0.1961
     28 O          -3.9447   -3.0217    2.2506 O.3     1  UNL1       -0.2951
     29 H          -5.9155   -1.7433   -1.4097 H       1  UNL1        0.0244
     30 H          -4.3848   -2.3488   -2.0823 H       1  UNL1        0.0244
     31 H          -5.1642   -0.9890   -2.9040 H       1  UNL1        0.0244
     32 H          -4.4634    0.1813    0.9855 H       1  UNL1        0.0244
     33 H          -5.6380    0.9176   -0.1291 H       1  UNL1        0.0244
     34 H          -5.8596   -0.7928    0.3300 H       1  UNL1        0.0244
     35 H          -2.5562    3.0654   -1.4927 H       1  UNL1        0.0389
     36 H          -3.7989    2.7177   -0.2800 H       1  UNL1        0.0389
     37 H          -1.0754    1.9185   -0.1627 H       1  UNL1        0.0452
     38 H          -2.3959    1.3910    0.8892 H       1  UNL1        0.0452
     39 H           0.9923   -1.9122    0.0936 H       1  UNL1        0.0638
     40 H           3.0451   -1.5484    1.5146 H       1  UNL1        0.0655
     41 H           5.8451    2.5808    0.6092 H       1  UNL1        0.0669
     42 H           8.1681    2.3095   -0.1362 H       1  UNL1        0.0830
     43 H           8.2275   -1.6575    1.1249 H       1  UNL1        0.0830
     44 H           5.8714   -1.4874    1.9154 H       1  UNL1        0.0669
     45 H           3.1532    2.4781    0.2567 H       1  UNL1        0.0655
     46 H           1.1269    2.1106   -1.1427 H       1  UNL1        0.0638
     47 H          -2.6036   -1.7180   -1.2817 H       1  UNL1        0.0590
     48 H          -4.5714   -2.8110    0.2642 H       1  UNL1        0.1822
     49 H          -4.2977   -2.3345    2.8877 H       1  UNL1        0.2414
@<TRIPOS>BOND
     1     1     2    1
     2     2     3    1
     3     2     4    1
     4     4     5    1
     5     5     6    1
     6     6     7    1
     7     7     8    1
     8     8     9    2
     9     8    10    2
    10     8    11    1
    11    11    12   ar
    12    12    13   ar
    13    13    14   ar
    14    14    15    1
    15    15    16    1
    16    16    17   ar
    17    17    18   ar
    18    18    19   ar
    19    19    20   ar
    20    20    21   ar
    21    14    22   ar
    22    22    23   ar
    23     7    24    1
    24    24    25    1
    25    25    26    2
    26    25    27   am
    27    27    28    1
    28    24     2    1
    29    23    11   ar
    30    21    16   ar
    31     1    29    1
    32     1    30    1
    33     1    31    1
    34     3    32    1
    35     3    33    1
    36     3    34    1
    37     5    35    1
    38     5    36    1
    39     6    37    1
    40     6    38    1
    41    12    39    1
    42    13    40    1
    43    17    41    1
    44    18    42    1
    45    20    43    1
    46    21    44    1
    47    22    45    1
    48    23    46    1
    49    24    47    1
    50    27    48    1
    51    28    49    1
