
     RDKit          3D

 49 51  0  0  0  0  0  0  0  0999 V2000
   -4.9628   -1.4384   -1.8918 C   0  0  0  0  0  0  0  0  0  0  0  0
   -4.2382   -0.4002   -1.0854 C   0  0  0  0  0  0  0  0  0  0  0  0
   -5.0985   -0.0194    0.0980 C   0  0  0  0  0  0  0  0  0  0  0  0
   -3.9634    1.1244   -2.0512 S   0  0  0  0  0  0  0  0  0  0  0  0
   -3.0353    2.2538   -0.9433 C   0  0  0  0  0  0  0  0  0  0  0  0
   -2.0726    1.3873   -0.1680 C   0  0  0  0  0  0  0  0  0  0  0  0
   -1.8668    0.0993   -0.6787 N   0  0  0  0  0  0  0  0  0  0  0  0
   -0.5016   -0.2125   -1.5927 S   0  0  0  0  0  6  0  0  0  0  0  0
   -0.4356    0.7860   -2.7339 O   0  0  0  0  0  0  0  0  0  0  0  0
   -0.4078   -1.5603   -2.1830 O   0  0  0  0  0  0  0  0  0  0  0  0
    0.9354    0.0672   -0.6072 C   0  0  0  0  0  0  0  0  0  0  0  0
    1.4848   -0.9503    0.1438 C   0  0  0  0  0  0  0  0  0  0  0  0
    2.6075   -0.7611    0.9241 C   0  0  0  0  0  0  0  0  0  0  0  0
    3.2313    0.4724    0.9824 C   0  0  0  0  0  0  0  0  0  0  0  0
    4.3558    0.7106    1.7478 O   0  0  0  0  0  0  0  0  0  0  0  0
    5.6482    0.5603    1.3331 C   0  0  0  0  0  0  0  0  0  0  0  0
    6.3096    1.6186    0.7537 C   0  0  0  0  0  0  0  0  0  0  0  0
    7.6367    1.4894    0.3197 C   0  0  0  0  0  0  0  0  0  0  0  0
    8.2765    0.3129    0.4707 N   0  0  0  0  0  0  0  0  0  0  0  0
    7.6610   -0.7423    1.0326 C   0  0  0  0  0  0  0  0  0  0  0  0
    6.3356   -0.6243    1.4697 C   0  0  0  0  0  0  0  0  0  0  0  0
    2.6821    1.4904    0.2314 C   0  0  0  0  0  0  0  0  0  0  0  0
    1.5532    1.2983   -0.5526 C   0  0  0  0  0  0  0  0  0  0  0  0
   -2.8851   -0.8637   -0.5983 C   0  0  1  0  0  0  0  0  0  0  0  0
   -2.9364   -1.4635    0.7607 C   0  0  0  0  0  0  0  0  0  0  0  0
   -2.1770   -1.1273    1.7030 O   0  0  0  0  0  0  0  0  0  0  0  0
   -3.8969   -2.4756    1.0148 N   0  0  0  0  0  0  0  0  0  0  0  0
   -3.9447   -3.0217    2.2506 O   0  0  0  0  0  0  0  0  0  0  0  0
   -5.9155   -1.7433   -1.4097 H   0  0  0  0  0  0  0  0  0  0  0  0
   -4.3848   -2.3488   -2.0823 H   0  0  0  0  0  0  0  0  0  0  0  0
   -5.1642   -0.9890   -2.9040 H   0  0  0  0  0  0  0  0  0  0  0  0
   -4.4634    0.1813    0.9855 H   0  0  0  0  0  0  0  0  0  0  0  0
   -5.6380    0.9176   -0.1291 H   0  0  0  0  0  0  0  0  0  0  0  0
   -5.8596   -0.7928    0.3300 H   0  0  0  0  0  0  0  0  0  0  0  0
   -2.5562    3.0654   -1.4927 H   0  0  0  0  0  0  0  0  0  0  0  0
   -3.7989    2.7177   -0.2800 H   0  0  0  0  0  0  0  0  0  0  0  0
   -1.0754    1.9185   -0.1627 H   0  0  0  0  0  0  0  0  0  0  0  0
   -2.3959    1.3910    0.8892 H   0  0  0  0  0  0  0  0  0  0  0  0
    0.9923   -1.9122    0.0936 H   0  0  0  0  0  0  0  0  0  0  0  0
    3.0451   -1.5484    1.5146 H   0  0  0  0  0  0  0  0  0  0  0  0
    5.8451    2.5808    0.6092 H   0  0  0  0  0  0  0  0  0  0  0  0
    8.1681    2.3095   -0.1362 H   0  0  0  0  0  0  0  0  0  0  0  0
    8.2275   -1.6575    1.1249 H   0  0  0  0  0  0  0  0  0  0  0  0
    5.8714   -1.4874    1.9154 H   0  0  0  0  0  0  0  0  0  0  0  0
    3.1532    2.4781    0.2567 H   0  0  0  0  0  0  0  0  0  0  0  0
    1.1269    2.1106   -1.1427 H   0  0  0  0  0  0  0  0  0  0  0  0
   -2.6036   -1.7180   -1.2817 H   0  0  0  0  0  0  0  0  0  0  0  0
   -4.5714   -2.8110    0.2642 H   0  0  0  0  0  0  0  0  0  0  0  0
   -4.2977   -2.3345    2.8877 H   0  0  0  0  0  0  0  0  0  0  0  0
  1  2  1  0
  2  3  1  0
  2  4  1  0
  4  5  1  0
  5  6  1  0
  6  7  1  0
  7  8  1  0
  8  9  2  0
  8 10  2  0
  8 11  1  0
 11 12  2  0
 12 13  1  0
 13 14  2  0
 14 15  1  0
 15 16  1  0
 16 17  2  0
 17 18  1  0
 18 19  2  0
 19 20  1  0
 20 21  2  0
 14 22  1  0
 22 23  2  0
  7 24  1  0
 24 25  1  0
 25 26  2  0
 25 27  1  0
 27 28  1  0
 24  2  1  0
 23 11  1  0
 21 16  1  0
  1 29  1  0
  1 30  1  0
  1 31  1  0
  3 32  1  0
  3 33  1  0
  3 34  1  0
  5 35  1  0
  5 36  1  0
  6 37  1  0
  6 38  1  0
 12 39  1  0
 13 40  1  0
 17 41  1  0
 18 42  1  0
 20 43  1  0
 21 44  1  0
 22 45  1  0
 23 46  1  0
 24 47  1  6
 27 48  1  0
 28 49  1  0
M  END
$$$$
