
     RDKit          3D

 80 85  0  0  0  0  0  0  0  0999 V2000
   12.0484    0.8201   -0.3393 C   0  0  0  0  0  0  0  0  0  0  0  0
   10.5809    0.6182   -0.4326 C   0  0  0  0  0  0  0  0  0  0  0  0
    9.9383   -0.4414    0.1696 C   0  0  0  0  0  0  0  0  0  0  0  0
   10.7115   -1.4432    0.9493 C   0  0  0  0  0  0  0  0  0  0  0  0
    8.5724   -0.5383    0.0240 C   0  0  0  0  0  0  0  0  0  0  0  0
    7.8777   -1.5787    0.6063 C   0  0  0  0  0  0  0  0  0  0  0  0
    6.4984   -1.6909    0.4688 C   0  0  0  0  0  0  0  0  0  0  0  0
    5.7714   -0.7606   -0.2588 C   0  0  0  0  0  0  0  0  0  0  0  0
    4.4083   -0.9413   -0.3482 O   0  0  0  0  0  0  0  0  0  0  0  0
    3.5506   -0.0720   -1.0586 C   0  0  0  0  0  0  0  0  0  0  0  0
    2.1234   -0.5087   -0.9876 C   0  0  0  0  0  0  0  0  0  0  0  0
    1.1895    0.2808   -1.6635 N   0  0  0  0  0  0  0  0  0  0  0  0
    0.8918    1.5817   -1.2260 C   0  0  0  0  0  0  0  0  0  0  0  0
   -0.4118    1.7059   -0.4553 C   0  0  0  0  0  0  0  0  0  0  0  0
   -0.7857    0.3688   -0.0265 N   0  0  0  0  0  0  0  0  0  0  0  0
   -1.6791    0.3342    1.0707 C   0  0  0  0  0  0  0  0  0  0  0  0
   -3.0794    0.8539    0.7723 C   0  0  0  0  0  0  0  0  0  0  0  0
   -3.9525    0.7862    1.9871 C   0  0  0  0  0  0  0  0  0  0  0  0
   -5.2935    1.2305    1.7366 N   0  0  0  0  0  0  0  0  0  0  0  0
   -6.0989    0.5685    0.7935 C   0  0  0  0  0  0  0  0  0  0  0  0
   -6.7651   -0.5561    1.2546 C   0  0  0  0  0  0  0  0  0  0  0  0
   -7.5738   -1.2497    0.3944 C   0  0  0  0  0  0  0  0  0  0  0  0
   -7.7089   -0.8347   -0.8703 N   0  0  0  0  0  0  0  0  0  0  0  0
   -7.0666    0.2556   -1.3221 C   0  0  0  0  0  0  0  0  0  0  0  0
   -7.2275    0.6837   -2.6196 C   0  0  0  0  0  0  0  0  0  0  0  0
   -6.6036    1.8052   -3.1170 C   0  0  0  0  0  0  0  0  0  0  0  0
   -5.7935    2.5148   -2.2764 C   0  0  0  0  0  0  0  0  0  0  0  0
   -5.5980    2.1397   -0.9897 C   0  0  0  0  0  0  0  0  0  0  0  0
   -6.2234    1.0164   -0.5012 C   0  0  0  0  0  0  0  0  0  0  0  0
   -8.2685   -2.4580    0.9509 C   0  0  0  0  0  0  0  0  0  0  0  0
   -8.9036   -2.0749    2.2670 C   0  0  0  0  0  0  0  0  0  0  0  0
   -8.0381   -1.2649    3.1649 C   0  0  0  0  0  0  0  0  0  0  0  0
   -6.6322   -1.0381    2.6537 C   0  0  0  0  0  0  0  0  0  0  0  0
   -1.1540   -0.3650   -1.1928 C   0  0  0  0  0  0  0  0  0  0  0  0
    0.0486   -0.4384   -2.1066 C   0  0  0  0  0  0  0  0  0  0  0  0
    6.4549    0.2708   -0.8364 C   0  0  0  0  0  0  0  0  0  0  0  0
    7.8384    0.3851   -0.6997 C   0  0  0  0  0  0  0  0  0  0  0  0
    8.4993    1.3745   -1.2529 O   0  0  0  0  0  0  0  0  0  0  0  0
    9.8117    1.5145   -1.1438 C   0  0  0  0  0  0  0  0  0  0  0  0
   10.3549    2.4978   -1.7108 O   0  0  0  0  0  0  0  0  0  0  0  0
   12.3356    1.6798   -0.9770 H   0  0  0  0  0  0  0  0  0  0  0  0
   12.3638    1.1065    0.6988 H   0  0  0  0  0  0  0  0  0  0  0  0
   12.6239   -0.0541   -0.7094 H   0  0  0  0  0  0  0  0  0  0  0  0
   10.7399   -2.4406    0.4587 H   0  0  0  0  0  0  0  0  0  0  0  0
   10.2104   -1.5833    1.9380 H   0  0  0  0  0  0  0  0  0  0  0  0
   11.7275   -1.0591    1.1767 H   0  0  0  0  0  0  0  0  0  0  0  0
    8.4595   -2.2905    1.1679 H   0  0  0  0  0  0  0  0  0  0  0  0
    6.0211   -2.5261    0.9489 H   0  0  0  0  0  0  0  0  0  0  0  0
    3.9487    0.0325   -2.0689 H   0  0  0  0  0  0  0  0  0  0  0  0
    3.6204    0.9252   -0.5672 H   0  0  0  0  0  0  0  0  0  0  0  0
    2.0760   -1.5512   -1.4056 H   0  0  0  0  0  0  0  0  0  0  0  0
    1.8523   -0.6192    0.0886 H   0  0  0  0  0  0  0  0  0  0  0  0
    1.7317    2.0767   -0.6575 H   0  0  0  0  0  0  0  0  0  0  0  0
    0.7681    2.2371   -2.1346 H   0  0  0  0  0  0  0  0  0  0  0  0
   -1.2282    2.0688   -1.1104 H   0  0  0  0  0  0  0  0  0  0  0  0
   -0.3384    2.4268    0.3727 H   0  0  0  0  0  0  0  0  0  0  0  0
   -1.2770    0.9950    1.8643 H   0  0  0  0  0  0  0  0  0  0  0  0
   -1.7413   -0.7050    1.4583 H   0  0  0  0  0  0  0  0  0  0  0  0
   -3.5184    0.3261   -0.0905 H   0  0  0  0  0  0  0  0  0  0  0  0
   -2.9834    1.9304    0.5065 H   0  0  0  0  0  0  0  0  0  0  0  0
   -3.4637    1.4264    2.7632 H   0  0  0  0  0  0  0  0  0  0  0  0
   -3.9554   -0.2841    2.3279 H   0  0  0  0  0  0  0  0  0  0  0  0
   -5.7278    2.0589    2.2401 H   0  0  0  0  0  0  0  0  0  0  0  0
   -7.8753    0.1030   -3.2634 H   0  0  0  0  0  0  0  0  0  0  0  0
   -6.7596    2.1124   -4.1635 H   0  0  0  0  0  0  0  0  0  0  0  0
   -5.3087    3.3908   -2.6679 H   0  0  0  0  0  0  0  0  0  0  0  0
   -4.9856    2.6874   -0.2834 H   0  0  0  0  0  0  0  0  0  0  0  0
   -9.0114   -2.8106    0.2330 H   0  0  0  0  0  0  0  0  0  0  0  0
   -7.4675   -3.1932    1.1692 H   0  0  0  0  0  0  0  0  0  0  0  0
   -9.7997   -1.4436    2.0000 H   0  0  0  0  0  0  0  0  0  0  0  0
   -9.3176   -2.9602    2.7942 H   0  0  0  0  0  0  0  0  0  0  0  0
   -7.9206   -1.7601    4.1681 H   0  0  0  0  0  0  0  0  0  0  0  0
   -8.4760   -0.2678    3.3975 H   0  0  0  0  0  0  0  0  0  0  0  0
   -6.1691   -0.2704    3.3087 H   0  0  0  0  0  0  0  0  0  0  0  0
   -6.0163   -1.9607    2.7143 H   0  0  0  0  0  0  0  0  0  0  0  0
   -1.5074   -1.4014   -0.9610 H   0  0  0  0  0  0  0  0  0  0  0  0
   -1.9530    0.1875   -1.7724 H   0  0  0  0  0  0  0  0  0  0  0  0
   -0.2027   -0.0367   -3.1337 H   0  0  0  0  0  0  0  0  0  0  0  0
    0.3063   -1.5178   -2.2593 H   0  0  0  0  0  0  0  0  0  0  0  0
    5.9062    0.9925   -1.3983 H   0  0  0  0  0  0  0  0  0  0  0  0
  1  2  1  0
  2  3  2  0
  3  4  1  0
  3  5  1  0
  5  6  2  0
  6  7  1  0
  7  8  2  0
  8  9  1  0
  9 10  1  0
 10 11  1  0
 11 12  1  0
 12 13  1  0
 13 14  1  0
 14 15  1  0
 15 16  1  0
 16 17  1  0
 17 18  1  0
 18 19  1  0
 19 20  1  0
 20 21  2  0
 21 22  1  0
 22 23  2  0
 23 24  1  0
 24 25  2  0
 25 26  1  0
 26 27  2  0
 27 28  1  0
 28 29  2  0
 22 30  1  0
 30 31  1  0
 31 32  1  0
 32 33  1  0
 15 34  1  0
 34 35  1  0
  8 36  1  0
 36 37  2  0
 37 38  1  0
 38 39  1  0
 39 40  2  0
 39  2  1  0
 37  5  1  0
 35 12  1  0
 29 20  1  0
 33 21  1  0
 29 24  1  0
  1 41  1  0
  1 42  1  0
  1 43  1  0
  4 44  1  0
  4 45  1  0
  4 46  1  0
  6 47  1  0
  7 48  1  0
 10 49  1  0
 10 50  1  0
 11 51  1  0
 11 52  1  0
 13 53  1  0
 13 54  1  0
 14 55  1  0
 14 56  1  0
 16 57  1  0
 16 58  1  0
 17 59  1  0
 17 60  1  0
 18 61  1  0
 18 62  1  0
 19 63  1  0
 25 64  1  0
 26 65  1  0
 27 66  1  0
 28 67  1  0
 30 68  1  0
 30 69  1  0
 31 70  1  0
 31 71  1  0
 32 72  1  0
 32 73  1  0
 33 74  1  0
 33 75  1  0
 34 76  1  0
 34 77  1  0
 35 78  1  0
 35 79  1  0
 36 80  1  0
M  END
$$$$
