@<TRIPOS>MOLECULE
*****
 80 85 0 0 0
SMALL
GASTEIGER

@<TRIPOS>ATOM
      1 C          12.0484    0.8201   -0.3393 C.3     1  UNL1       -0.0327
      2 C          10.5809    0.6182   -0.4326 C.ar    1  UNL1        0.0375
      3 C           9.9383   -0.4414    0.1696 C.ar    1  UNL1       -0.0301
      4 C          10.7115   -1.4432    0.9493 C.3     1  UNL1       -0.0386
      5 C           8.5724   -0.5383    0.0240 C.ar    1  UNL1        0.0210
      6 C           7.8777   -1.5787    0.6063 C.ar    1  UNL1       -0.0474
      7 C           6.4984   -1.6909    0.4688 C.ar    1  UNL1       -0.0191
      8 C           5.7714   -0.7606   -0.2588 C.ar    1  UNL1        0.1241
      9 O           4.4083   -0.9413   -0.3482 O.3     1  UNL1       -0.4906
     10 C           3.5506   -0.0720   -1.0586 C.3     1  UNL1        0.1022
     11 C           2.1234   -0.5087   -0.9876 C.3     1  UNL1        0.0332
     12 N           1.1895    0.2808   -1.6635 N.3     1  UNL1       -0.2967
     13 C           0.8918    1.5817   -1.2260 C.3     1  UNL1        0.0118
     14 C          -0.4118    1.7059   -0.4553 C.3     1  UNL1        0.0117
     15 N          -0.7857    0.3688   -0.0265 N.3     1  UNL1       -0.2999
     16 C          -1.6791    0.3342    1.0707 C.3     1  UNL1        0.0004
     17 C          -3.0794    0.8539    0.7723 C.3     1  UNL1       -0.0246
     18 C          -3.9525    0.7862    1.9871 C.3     1  UNL1        0.0103
     19 N          -5.2935    1.2305    1.7366 N.pl3   1  UNL1       -0.3430
     20 C          -6.0989    0.5685    0.7935 C.ar    1  UNL1        0.0413
     21 C          -6.7651   -0.5561    1.2546 C.ar    1  UNL1       -0.0047
     22 C          -7.5738   -1.2497    0.3944 C.ar    1  UNL1        0.0469
     23 N          -7.7089   -0.8347   -0.8703 N.ar    1  UNL1       -0.2512
     24 C          -7.0666    0.2556   -1.3221 C.ar    1  UNL1        0.0731
     25 C          -7.2275    0.6837   -2.6196 C.ar    1  UNL1       -0.0357
     26 C          -6.6036    1.8052   -3.1170 C.ar    1  UNL1       -0.0597
     27 C          -5.7935    2.5148   -2.2764 C.ar    1  UNL1       -0.0610
     28 C          -5.5980    2.1397   -0.9897 C.ar    1  UNL1       -0.0508
     29 C          -6.2234    1.0164   -0.5012 C.ar    1  UNL1        0.0215
     30 C          -8.2685   -2.4580    0.9509 C.3     1  UNL1       -0.0101
     31 C          -8.9036   -2.0749    2.2670 C.3     1  UNL1       -0.0473
     32 C          -8.0381   -1.2649    3.1649 C.3     1  UNL1       -0.0486
     33 C          -6.6322   -1.0381    2.6537 C.3     1  UNL1       -0.0242
     34 C          -1.1540   -0.3650   -1.1928 C.3     1  UNL1        0.0117
     35 C           0.0486   -0.4384   -2.1066 C.3     1  UNL1        0.0118
     36 C           6.4549    0.2708   -0.8364 C.ar    1  UNL1        0.0231
     37 C           7.8384    0.3851   -0.6997 C.ar    1  UNL1        0.1428
     38 O           8.4993    1.3745   -1.2529 O.2     1  UNL1       -0.4218
     39 C           9.8117    1.5145   -1.1438 C.ar    1  UNL1        0.3404
     40 O          10.3549    2.4978   -1.7108 O.2     1  UNL1       -0.2449
     41 H          12.3356    1.6798   -0.9770 H       1  UNL1        0.0280
     42 H          12.3638    1.1065    0.6988 H       1  UNL1        0.0280
     43 H          12.6239   -0.0541   -0.7094 H       1  UNL1        0.0280
     44 H          10.7399   -2.4406    0.4587 H       1  UNL1        0.0278
     45 H          10.2104   -1.5833    1.9380 H       1  UNL1        0.0278
     46 H          11.7275   -1.0591    1.1767 H       1  UNL1        0.0278
     47 H           8.4595   -2.2905    1.1679 H       1  UNL1        0.0626
     48 H           6.0211   -2.5261    0.9489 H       1  UNL1        0.0654
     49 H           3.9487    0.0325   -2.0689 H       1  UNL1        0.0709
     50 H           3.6204    0.9252   -0.5672 H       1  UNL1        0.0709
     51 H           2.0760   -1.5512   -1.4056 H       1  UNL1        0.0460
     52 H           1.8523   -0.6192    0.0886 H       1  UNL1        0.0460
     53 H           1.7317    2.0767   -0.6575 H       1  UNL1        0.0439
     54 H           0.7681    2.2371   -2.1346 H       1  UNL1        0.0439
     55 H          -1.2282    2.0688   -1.1104 H       1  UNL1        0.0439
     56 H          -0.3384    2.4268    0.3727 H       1  UNL1        0.0439
     57 H          -1.2770    0.9950    1.8643 H       1  UNL1        0.0427
     58 H          -1.7413   -0.7050    1.4583 H       1  UNL1        0.0427
     59 H          -3.5184    0.3261   -0.0905 H       1  UNL1        0.0293
     60 H          -2.9834    1.9304    0.5065 H       1  UNL1        0.0293
     61 H          -3.4637    1.4264    2.7632 H       1  UNL1        0.0461
     62 H          -3.9554   -0.2841    2.3279 H       1  UNL1        0.0461
     63 H          -5.7278    2.0589    2.2401 H       1  UNL1        0.1461
     64 H          -7.8753    0.1030   -3.2634 H       1  UNL1        0.0639
     65 H          -6.7596    2.1124   -4.1635 H       1  UNL1        0.0618
     66 H          -5.3087    3.3908   -2.6679 H       1  UNL1        0.0618
     67 H          -4.9856    2.6874   -0.2834 H       1  UNL1        0.0625
     68 H          -9.0114   -2.8106    0.2330 H       1  UNL1        0.0328
     69 H          -7.4675   -3.1932    1.1692 H       1  UNL1        0.0328
     70 H          -9.7997   -1.4436    2.0000 H       1  UNL1        0.0269
     71 H          -9.3176   -2.9602    2.7942 H       1  UNL1        0.0269
     72 H          -7.9206   -1.7601    4.1681 H       1  UNL1        0.0269
     73 H          -8.4760   -0.2678    3.3975 H       1  UNL1        0.0269
     74 H          -6.1691   -0.2704    3.3087 H       1  UNL1        0.0314
     75 H          -6.0163   -1.9607    2.7143 H       1  UNL1        0.0314
     76 H          -1.5074   -1.4014   -0.9610 H       1  UNL1        0.0439
     77 H          -1.9530    0.1875   -1.7724 H       1  UNL1        0.0439
     78 H          -0.2027   -0.0367   -3.1337 H       1  UNL1        0.0439
     79 H           0.3063   -1.5178   -2.2593 H       1  UNL1        0.0439
     80 H           5.9062    0.9925   -1.3983 H       1  UNL1        0.0691
@<TRIPOS>BOND
     1     1     2    1
     2     2     3   ar
     3     3     4    1
     4     3     5   ar
     5     5     6   ar
     6     6     7   ar
     7     7     8   ar
     8     8     9    1
     9     9    10    1
    10    10    11    1
    11    11    12    1
    12    12    13    1
    13    13    14    1
    14    14    15    1
    15    15    16    1
    16    16    17    1
    17    17    18    1
    18    18    19    1
    19    19    20    1
    20    20    21   ar
    21    21    22   ar
    22    22    23   ar
    23    23    24   ar
    24    24    25   ar
    25    25    26   ar
    26    26    27   ar
    27    27    28   ar
    28    28    29   ar
    29    22    30    1
    30    30    31    1
    31    31    32    1
    32    32    33    1
    33    15    34    1
    34    34    35    1
    35     8    36   ar
    36    36    37   ar
    37    37    38   ar
    38    38    39   ar
    39    39    40    2
    40    39     2   ar
    41    37     5   ar
    42    35    12    1
    43    29    20   ar
    44    33    21    1
    45    29    24   ar
    46     1    41    1
    47     1    42    1
    48     1    43    1
    49     4    44    1
    50     4    45    1
    51     4    46    1
    52     6    47    1
    53     7    48    1
    54    10    49    1
    55    10    50    1
    56    11    51    1
    57    11    52    1
    58    13    53    1
    59    13    54    1
    60    14    55    1
    61    14    56    1
    62    16    57    1
    63    16    58    1
    64    17    59    1
    65    17    60    1
    66    18    61    1
    67    18    62    1
    68    19    63    1
    69    25    64    1
    70    26    65    1
    71    27    66    1
    72    28    67    1
    73    30    68    1
    74    30    69    1
    75    31    70    1
    76    31    71    1
    77    32    72    1
    78    32    73    1
    79    33    74    1
    80    33    75    1
    81    34    76    1
    82    34    77    1
    83    35    78    1
    84    35    79    1
    85    36    80    1
