@<TRIPOS>MOLECULE
*****
 47 48 0 0 0
SMALL
GASTEIGER

@<TRIPOS>ATOM
      1 C           6.8729    1.8649   -0.9758 C.3     1  UNL1       -0.0332
      2 C           5.7698    1.2177   -0.2093 C.ar    1  UNL1        0.0302
      3 C           4.5913    0.8550   -0.8318 C.ar    1  UNL1        0.0199
      4 N           3.6047    0.2704   -0.1208 N.ar    1  UNL1       -0.2737
      5 C           2.3806   -0.1119   -0.7430 C.3     1  UNL1        0.1420
      6 C           2.0182   -1.5517   -0.5762 C.3     1  UNL1        0.0244
      7 C           0.5356   -1.4679   -0.2205 C.3     1  UNL1        0.1617
      8 N          -0.2323   -2.5213   -0.8014 N.2     1  UNL1        0.0825
      9 N          -0.7571   -3.3397   -0.0192 N.2     1  UNL1       -0.0144
     10 N          -1.0084   -4.3013    0.7353 N.2     1  UNL1       -0.3282
     11 C           0.2237   -0.1032   -0.8151 C.3     1  UNL1        0.1139
     12 C          -1.1174    0.4114   -0.3742 C.3     1  UNL1        0.0876
     13 O          -1.2218    0.3614    0.9937 O.3     1  UNL1       -0.2837
     14 P          -2.7163    0.9310    1.5320 P.3     1  UNL1        0.4835
     15 O          -2.5376    2.4259    1.8019 O.2     1  UNL1       -0.2269
     16 O          -3.1387    0.1979    2.9989 O.3     1  UNL1       -0.3022
     17 O          -3.9078    0.7619    0.3652 O.3     1  UNL1       -0.1858
     18 P          -5.2734   -0.0377    0.9213 P.3     1  UNL1        0.4918
     19 O          -6.4502    0.9137    1.0498 O.2     1  UNL1       -0.2265
     20 O          -5.0162   -0.7419    2.4511 O.3     1  UNL1       -0.3019
     21 O          -5.6580   -1.2469   -0.1964 O.3     1  UNL1       -0.1859
     22 P          -6.7255   -0.6489   -1.3466 P.3     1  UNL1        0.4808
     23 O          -7.7794   -1.7055   -1.6016 O.2     1  UNL1       -0.2271
     24 O          -5.9072   -0.3654   -2.8199 O.3     1  UNL1       -0.3023
     25 O          -7.4877    0.7717   -0.8507 O.3     1  UNL1       -0.3023
     26 O           1.2771    0.6412   -0.2874 O.3     1  UNL1       -0.3485
     27 C           3.8027    0.0557    1.1927 C.ar    1  UNL1        0.3313
     28 O           2.8596   -0.4937    1.8308 O.2     1  UNL1       -0.2464
     29 N           4.9559    0.4085    1.8111 N.ar    1  UNL1       -0.2747
     30 C           5.9645    0.9937    1.1388 C.ar    1  UNL1        0.2568
     31 O           7.0338    1.3153    1.7362 O.2     1  UNL1       -0.2674
     32 H           6.4720    2.3626   -1.8878 H       1  UNL1        0.0280
     33 H           7.3072    2.6650   -0.3501 H       1  UNL1        0.0280
     34 H           7.6476    1.1094   -1.2094 H       1  UNL1        0.0280
     35 H           4.4444    1.0357   -1.9000 H       1  UNL1        0.0816
     36 H           2.4317    0.0918   -1.8439 H       1  UNL1        0.0840
     37 H           2.5989   -2.1029    0.1549 H       1  UNL1        0.0332
     38 H           2.0790   -2.1223   -1.5440 H       1  UNL1        0.0332
     39 H           0.4290   -1.3972    0.8886 H       1  UNL1        0.0643
     40 H           0.3362   -0.1520   -1.9048 H       1  UNL1        0.0644
     41 H          -1.9565   -0.0553   -0.9248 H       1  UNL1        0.0592
     42 H          -1.1461    1.4998   -0.6716 H       1  UNL1        0.0592
     43 H          -2.7269   -0.6874    3.1176 H       1  UNL1        0.2220
     44 H          -5.5016   -0.2198    3.1591 H       1  UNL1        0.2220
     45 H          -5.3396    0.4429   -2.7375 H       1  UNL1        0.2220
     46 H          -7.0726    1.5570   -1.2993 H       1  UNL1        0.2220
     47 H           5.0419    0.2124    2.8321 H       1  UNL1        0.1734
@<TRIPOS>UNITY_ATOM_ATTR
9 1
charge 1
10 1
charge -1
@<TRIPOS>BOND
     1     1     2    1
     2     2     3   ar
     3     3     4   ar
     4     4     5    1
     5     5     6    1
     6     6     7    1
     7     7     8    1
     8     8     9    2
     9     9    10    2
    10     7    11    1
    11    11    12    1
    12    12    13    1
    13    14    13    1
    14    14    15    2
    15    14    16    1
    16    14    17    1
    17    18    17    1
    18    18    19    2
    19    18    20    1
    20    18    21    1
    21    21    22    1
    22    22    23    2
    23    22    24    1
    24    22    25    1
    25    11    26    1
    26     4    27   ar
    27    27    28    2
    28    27    29   ar
    29    29    30   ar
    30    30    31    2
    31    30     2   ar
    32    26     5    1
    33     1    32    1
    34     1    33    1
    35     1    34    1
    36     3    35    1
    37     5    36    1
    38     6    37    1
    39     6    38    1
    40     7    39    1
    41    11    40    1
    42    12    41    1
    43    12    42    1
    44    16    43    1
    45    20    44    1
    46    24    45    1
    47    25    46    1
    48    29    47    1
