@<TRIPOS>MOLECULE
*****
 55 58 0 0 0
SMALL
GASTEIGER

@<TRIPOS>ATOM
      1 C          -2.3825   -1.5886   -1.9641 C.3     1  UNL1       -0.0383
      2 C          -2.1437   -1.3464   -0.4381 C.3     1  UNL1        0.0929
      3 C          -2.9372   -2.4106    0.2630 C.3     1  UNL1       -0.0383
      4 C          -0.6624   -1.5055   -0.2664 C.2     1  UNL1        0.2331
      5 O          -0.2310   -2.6776   -0.1613 O.2     1  UNL1       -0.2738
      6 N           0.2386   -0.4480   -0.2218 N.am    1  UNL1       -0.3104
      7 C           1.6560   -0.5208   -0.0551 C.3     1  UNL1        0.0290
      8 C           2.3158   -0.0342   -1.3248 C.3     1  UNL1       -0.0195
      9 C           2.2675    1.4690   -1.4494 C.3     1  UNL1       -0.0455
     10 C           3.0564    2.0577   -0.3114 C.3     1  UNL1       -0.0378
     11 C           2.3485    1.6676    0.9680 C.3     1  UNL1       -0.0455
     12 C           2.2436    0.1882    1.1021 C.3     1  UNL1       -0.0195
     13 C           3.7029   -0.3089    1.1739 C.3     1  UNL1       -0.0195
     14 C           4.4253    0.0293   -0.1045 C.3     1  UNL1        0.0670
     15 O           5.7048   -0.4835   -0.0186 O.3     1  UNL1       -0.3885
     16 C           3.7432   -0.5251   -1.3285 C.3     1  UNL1       -0.0195
     17 C           4.4660    1.5357   -0.2475 C.3     1  UNL1       -0.0211
     18 N          -2.6175   -0.0682   -0.0725 N.3     1  UNL1       -0.2894
     19 C          -3.8973    0.2748   -0.5180 C.3     1  UNL1       -0.0002
     20 C          -4.9744    0.1466    0.5303 C.3     1  UNL1       -0.0401
     21 C          -4.5430    1.0675    1.6665 C.3     1  UNL1       -0.0507
     22 C          -3.2033    0.6524    2.1612 C.3     1  UNL1       -0.0401
     23 C          -2.1643    0.5649    1.0766 C.3     1  UNL1       -0.0002
     24 H          -1.6202   -2.3210   -2.3013 H       1  UNL1        0.0252
     25 H          -3.3575   -2.0554   -2.1275 H       1  UNL1        0.0252
     26 H          -2.2047   -0.6568   -2.5239 H       1  UNL1        0.0252
     27 H          -3.8954   -2.6388   -0.2531 H       1  UNL1        0.0252
     28 H          -3.1426   -2.2293    1.3217 H       1  UNL1        0.0252
     29 H          -2.2879   -3.3430    0.2539 H       1  UNL1        0.0252
     30 H          -0.1319    0.5238   -0.3382 H       1  UNL1        0.1490
     31 H           1.9242   -1.5966    0.0356 H       1  UNL1        0.0504
     32 H           1.7283   -0.4506   -2.1779 H       1  UNL1        0.0320
     33 H           2.6535    1.7380   -2.4455 H       1  UNL1        0.0271
     34 H           1.2032    1.7858   -1.2986 H       1  UNL1        0.0271
     35 H           3.1019    3.1624   -0.3381 H       1  UNL1        0.0302
     36 H           3.0043    2.0344    1.8090 H       1  UNL1        0.0271
     37 H           1.3986    2.2103    1.0012 H       1  UNL1        0.0271
     38 H           1.8315   -0.0836    2.0801 H       1  UNL1        0.0320
     39 H           4.2259    0.1777    1.9985 H       1  UNL1        0.0296
     40 H           3.6323   -1.4073    1.3055 H       1  UNL1        0.0296
     41 H           5.7818   -1.2835    0.5402 H       1  UNL1        0.2102
     42 H           4.2368   -0.0454   -2.2104 H       1  UNL1        0.0296
     43 H           3.7741   -1.6195   -1.3863 H       1  UNL1        0.0296
     44 H           5.0117    1.7792   -1.1775 H       1  UNL1        0.0296
     45 H           4.9443    1.9431    0.6567 H       1  UNL1        0.0296
     46 H          -3.9803    1.3602   -0.8584 H       1  UNL1        0.0427
     47 H          -4.1835   -0.3265   -1.4435 H       1  UNL1        0.0427
     48 H          -5.9374    0.5749    0.1589 H       1  UNL1        0.0278
     49 H          -5.0606   -0.8825    0.8591 H       1  UNL1        0.0278
     50 H          -4.4942    2.1008    1.2634 H       1  UNL1        0.0266
     51 H          -5.2879    0.9801    2.4651 H       1  UNL1        0.0266
     52 H          -3.2668   -0.3163    2.7059 H       1  UNL1        0.0278
     53 H          -2.8496    1.4633    2.8687 H       1  UNL1        0.0278
     54 H          -1.8676    1.6418    0.8730 H       1  UNL1        0.0427
     55 H          -1.2964    0.0444    1.5845 H       1  UNL1        0.0427
@<TRIPOS>BOND
     1     1     2    1
     2     2     3    1
     3     2     4    1
     4     4     5    2
     5     4     6   am
     6     6     7    1
     7     7     8    1
     8     8     9    1
     9     9    10    1
    10    10    11    1
    11    11    12    1
    12    12    13    1
    13    13    14    1
    14    14    15    1
    15    14    16    1
    16    14    17    1
    17     2    18    1
    18    18    19    1
    19    19    20    1
    20    20    21    1
    21    21    22    1
    22    22    23    1
    23    12     7    1
    24    23    18    1
    25    16     8    1
    26    17    10    1
    27     1    24    1
    28     1    25    1
    29     1    26    1
    30     3    27    1
    31     3    28    1
    32     3    29    1
    33     6    30    1
    34     7    31    1
    35     8    32    1
    36     9    33    1
    37     9    34    1
    38    10    35    1
    39    11    36    1
    40    11    37    1
    41    12    38    1
    42    13    39    1
    43    13    40    1
    44    15    41    1
    45    16    42    1
    46    16    43    1
    47    17    44    1
    48    17    45    1
    49    19    46    1
    50    19    47    1
    51    20    48    1
    52    20    49    1
    53    21    50    1
    54    21    51    1
    55    22    52    1
    56    22    53    1
    57    23    54    1
    58    23    55    1
