
     RDKit          3D

 55 58  0  0  0  0  0  0  0  0999 V2000
   -2.3825   -1.5886   -1.9641 C   0  0  0  0  0  0  0  0  0  0  0  0
   -2.1437   -1.3464   -0.4381 C   0  0  0  0  0  0  0  0  0  0  0  0
   -2.9372   -2.4106    0.2630 C   0  0  0  0  0  0  0  0  0  0  0  0
   -0.6624   -1.5055   -0.2664 C   0  0  0  0  0  0  0  0  0  0  0  0
   -0.2310   -2.6776   -0.1613 O   0  0  0  0  0  0  0  0  0  0  0  0
    0.2386   -0.4480   -0.2218 N   0  0  0  0  0  0  0  0  0  0  0  0
    1.6560   -0.5208   -0.0551 C   0  0  1  0  0  0  0  0  0  0  0  0
    2.3158   -0.0342   -1.3248 C   0  0  0  0  0  0  0  0  0  0  0  0
    2.2675    1.4690   -1.4494 C   0  0  0  0  0  0  0  0  0  0  0  0
    3.0564    2.0577   -0.3114 C   0  0  1  0  0  0  0  0  0  0  0  0
    2.3485    1.6676    0.9680 C   0  0  0  0  0  0  0  0  0  0  0  0
    2.2436    0.1882    1.1021 C   0  0  0  0  0  0  0  0  0  0  0  0
    3.7029   -0.3089    1.1739 C   0  0  0  0  0  0  0  0  0  0  0  0
    4.4253    0.0293   -0.1045 C   0  0  1  0  0  0  0  0  0  0  0  0
    5.7048   -0.4835   -0.0186 O   0  0  0  0  0  0  0  0  0  0  0  0
    3.7432   -0.5251   -1.3285 C   0  0  0  0  0  0  0  0  0  0  0  0
    4.4660    1.5357   -0.2475 C   0  0  0  0  0  0  0  0  0  0  0  0
   -2.6175   -0.0682   -0.0725 N   0  0  0  0  0  0  0  0  0  0  0  0
   -3.8973    0.2748   -0.5180 C   0  0  0  0  0  0  0  0  0  0  0  0
   -4.9744    0.1466    0.5303 C   0  0  0  0  0  0  0  0  0  0  0  0
   -4.5430    1.0675    1.6665 C   0  0  0  0  0  0  0  0  0  0  0  0
   -3.2033    0.6524    2.1612 C   0  0  0  0  0  0  0  0  0  0  0  0
   -2.1643    0.5649    1.0766 C   0  0  0  0  0  0  0  0  0  0  0  0
   -1.6202   -2.3210   -2.3013 H   0  0  0  0  0  0  0  0  0  0  0  0
   -3.3575   -2.0554   -2.1275 H   0  0  0  0  0  0  0  0  0  0  0  0
   -2.2047   -0.6568   -2.5239 H   0  0  0  0  0  0  0  0  0  0  0  0
   -3.8954   -2.6388   -0.2531 H   0  0  0  0  0  0  0  0  0  0  0  0
   -3.1426   -2.2293    1.3217 H   0  0  0  0  0  0  0  0  0  0  0  0
   -2.2879   -3.3430    0.2539 H   0  0  0  0  0  0  0  0  0  0  0  0
   -0.1319    0.5238   -0.3382 H   0  0  0  0  0  0  0  0  0  0  0  0
    1.9242   -1.5966    0.0356 H   0  0  0  0  0  0  0  0  0  0  0  0
    1.7283   -0.4506   -2.1779 H   0  0  0  0  0  0  0  0  0  0  0  0
    2.6535    1.7380   -2.4455 H   0  0  0  0  0  0  0  0  0  0  0  0
    1.2032    1.7858   -1.2986 H   0  0  0  0  0  0  0  0  0  0  0  0
    3.1019    3.1624   -0.3381 H   0  0  0  0  0  0  0  0  0  0  0  0
    3.0043    2.0344    1.8090 H   0  0  0  0  0  0  0  0  0  0  0  0
    1.3986    2.2103    1.0012 H   0  0  0  0  0  0  0  0  0  0  0  0
    1.8315   -0.0836    2.0801 H   0  0  0  0  0  0  0  0  0  0  0  0
    4.2259    0.1777    1.9985 H   0  0  0  0  0  0  0  0  0  0  0  0
    3.6323   -1.4073    1.3055 H   0  0  0  0  0  0  0  0  0  0  0  0
    5.7818   -1.2835    0.5402 H   0  0  0  0  0  0  0  0  0  0  0  0
    4.2368   -0.0454   -2.2104 H   0  0  0  0  0  0  0  0  0  0  0  0
    3.7741   -1.6195   -1.3863 H   0  0  0  0  0  0  0  0  0  0  0  0
    5.0117    1.7792   -1.1775 H   0  0  0  0  0  0  0  0  0  0  0  0
    4.9443    1.9431    0.6567 H   0  0  0  0  0  0  0  0  0  0  0  0
   -3.9803    1.3602   -0.8584 H   0  0  0  0  0  0  0  0  0  0  0  0
   -4.1835   -0.3265   -1.4435 H   0  0  0  0  0  0  0  0  0  0  0  0
   -5.9374    0.5749    0.1589 H   0  0  0  0  0  0  0  0  0  0  0  0
   -5.0606   -0.8825    0.8591 H   0  0  0  0  0  0  0  0  0  0  0  0
   -4.4942    2.1008    1.2634 H   0  0  0  0  0  0  0  0  0  0  0  0
   -5.2879    0.9801    2.4651 H   0  0  0  0  0  0  0  0  0  0  0  0
   -3.2668   -0.3163    2.7059 H   0  0  0  0  0  0  0  0  0  0  0  0
   -2.8496    1.4633    2.8687 H   0  0  0  0  0  0  0  0  0  0  0  0
   -1.8676    1.6418    0.8730 H   0  0  0  0  0  0  0  0  0  0  0  0
   -1.2964    0.0444    1.5845 H   0  0  0  0  0  0  0  0  0  0  0  0
  1  2  1  0
  2  3  1  0
  2  4  1  0
  4  5  2  0
  4  6  1  0
  6  7  1  0
  7  8  1  0
  8  9  1  0
  9 10  1  0
 10 11  1  0
 11 12  1  0
 12 13  1  0
 13 14  1  0
 14 15  1  1
 14 16  1  0
 14 17  1  0
  2 18  1  0
 18 19  1  0
 19 20  1  0
 20 21  1  0
 21 22  1  0
 22 23  1  0
 12  7  1  0
 23 18  1  0
 16  8  1  0
 17 10  1  0
  1 24  1  0
  1 25  1  0
  1 26  1  0
  3 27  1  0
  3 28  1  0
  3 29  1  0
  6 30  1  0
  7 31  1  1
  8 32  1  0
  9 33  1  0
  9 34  1  0
 10 35  1  6
 11 36  1  0
 11 37  1  0
 12 38  1  0
 13 39  1  0
 13 40  1  0
 15 41  1  0
 16 42  1  0
 16 43  1  0
 17 44  1  0
 17 45  1  0
 19 46  1  0
 19 47  1  0
 20 48  1  0
 20 49  1  0
 21 50  1  0
 21 51  1  0
 22 52  1  0
 22 53  1  0
 23 54  1  0
 23 55  1  0
M  END
$$$$
