
     RDKit          3D

 42 45  0  0  0  0  0  0  0  0999 V2000
   -4.5079   -1.9939   -1.1317 O   0  0  0  0  0  0  0  0  0  0  0  0
   -4.7169   -0.6276   -1.1690 C   0  0  0  0  0  0  0  0  0  0  0  0
   -4.1513    0.0010    0.0740 C   0  0  0  0  0  0  0  0  0  0  0  0
   -2.7424   -0.2443    0.1719 N   0  0  0  0  0  0  0  0  0  0  0  0
   -2.0338   -1.4482    0.3967 C   0  0  0  0  0  0  0  0  0  0  0  0
   -2.6642   -2.6133    0.5937 N   0  0  0  0  0  0  0  0  0  0  0  0
   -1.9515   -3.7208    0.8241 C   0  0  0  0  0  0  0  0  0  0  0  0
   -0.6054   -3.7712    0.8777 N   0  0  0  0  0  0  0  0  0  0  0  0
    0.0685   -2.6105    0.6827 C   0  0  0  0  0  0  0  0  0  0  0  0
   -0.6671   -1.4744    0.4461 C   0  0  0  0  0  0  0  0  0  0  0  0
    0.2603   -0.4706    0.2881 C   0  0  0  0  0  0  0  0  0  0  0  0
    1.5282   -1.0305    0.4347 C   0  0  0  0  0  0  0  0  0  0  0  0
    1.3285   -2.3263    0.6709 O   0  0  0  0  0  0  0  0  0  0  0  0
    2.8737   -0.4705    0.3741 C   0  0  0  0  0  0  0  0  0  0  0  0
    3.4191    0.4820    1.2100 C   0  0  0  0  0  0  0  0  0  0  0  0
    4.7137    0.9251    1.0369 C   0  0  0  0  0  0  0  0  0  0  0  0
    5.4926    0.4198    0.0167 C   0  0  0  0  0  0  0  0  0  0  0  0
    5.0003   -0.5417   -0.8586 C   0  0  0  0  0  0  0  0  0  0  0  0
    3.6879   -0.9622   -0.6491 C   0  0  0  0  0  0  0  0  0  0  0  0
    0.1897    0.9360    0.0209 C   0  0  0  0  0  0  0  0  0  0  0  0
    0.1873    1.8074    1.1183 C   0  0  0  0  0  0  0  0  0  0  0  0
    0.1398    3.1637    1.0590 C   0  0  0  0  0  0  0  0  0  0  0  0
    0.0887    3.7701   -0.1718 C   0  0  0  0  0  0  0  0  0  0  0  0
    0.0882    2.9679   -1.2891 C   0  0  0  0  0  0  0  0  0  0  0  0
    0.1366    1.5965   -1.2159 C   0  0  0  0  0  0  0  0  0  0  0  0
   -5.3222   -2.5395   -1.0856 H   0  0  0  0  0  0  0  0  0  0  0  0
   -5.7943   -0.3885   -1.2920 H   0  0  0  0  0  0  0  0  0  0  0  0
   -4.1494   -0.2446   -2.0652 H   0  0  0  0  0  0  0  0  0  0  0  0
   -4.4267    1.0675    0.1765 H   0  0  0  0  0  0  0  0  0  0  0  0
   -4.7121   -0.4936    0.9321 H   0  0  0  0  0  0  0  0  0  0  0  0
   -2.2127    0.6402    0.0519 H   0  0  0  0  0  0  0  0  0  0  0  0
   -2.4247   -4.6944    0.9905 H   0  0  0  0  0  0  0  0  0  0  0  0
    2.7800    0.8397    1.9802 H   0  0  0  0  0  0  0  0  0  0  0  0
    5.0798    1.6777    1.7324 H   0  0  0  0  0  0  0  0  0  0  0  0
    6.5086    0.7642   -0.1232 H   0  0  0  0  0  0  0  0  0  0  0  0
    5.5874   -0.9531   -1.6637 H   0  0  0  0  0  0  0  0  0  0  0  0
    3.3177   -1.7195   -1.3479 H   0  0  0  0  0  0  0  0  0  0  0  0
    0.2273    1.3753    2.1315 H   0  0  0  0  0  0  0  0  0  0  0  0
    0.1412    3.7686    1.9506 H   0  0  0  0  0  0  0  0  0  0  0  0
    0.0500    4.8336   -0.2750 H   0  0  0  0  0  0  0  0  0  0  0  0
    0.0489    3.3937   -2.2918 H   0  0  0  0  0  0  0  0  0  0  0  0
    0.1389    0.9094   -2.0648 H   0  0  0  0  0  0  0  0  0  0  0  0
  1  2  1  0
  2  3  1  0
  3  4  1  0
  4  5  1  0
  5  6  2  0
  6  7  1  0
  7  8  2  0
  8  9  1  0
  9 10  2  0
 10 11  1  0
 11 12  2  0
 12 13  1  0
 12 14  1  0
 14 15  2  0
 15 16  1  0
 16 17  2  0
 17 18  1  0
 18 19  2  0
 11 20  1  0
 20 21  2  0
 21 22  1  0
 22 23  2  0
 23 24  1  0
 24 25  2  0
 10  5  1  0
 19 14  1  0
 25 20  1  0
 13  9  1  0
  1 26  1  0
  2 27  1  0
  2 28  1  0
  3 29  1  0
  3 30  1  0
  4 31  1  0
  7 32  1  0
 15 33  1  0
 16 34  1  0
 17 35  1  0
 18 36  1  0
 19 37  1  0
 21 38  1  0
 22 39  1  0
 23 40  1  0
 24 41  1  0
 25 42  1  0
M  END
$$$$
