@<TRIPOS>MOLECULE
*****
 109 113 0 0 0
SMALL
GASTEIGER

@<TRIPOS>ATOM
      1 C          12.1530    2.6074   -1.9502 C.3     1  UNL1        0.0365
      2 O          11.7499    1.6347   -2.8009 O.3     1  UNL1       -0.3807
      3 C          11.5801    0.3635   -2.3081 C.3     1  UNL1        0.0706
      4 C          12.8525   -0.1786   -1.7692 C.3     1  UNL1        0.0711
      5 O          12.9385   -1.3874   -1.2670 O.3     1  UNL1       -0.3752
      6 C          12.4113   -1.9844   -0.2520 C.3     1  UNL1        0.0711
      7 C          10.8779   -2.0799   -0.2681 C.3     1  UNL1        0.0711
      8 O          10.5321   -2.7352   -1.3825 O.3     1  UNL1       -0.3742
      9 C           9.2270   -2.9537   -1.7121 C.3     1  UNL1        0.0818
     10 C           8.5321   -3.7968   -0.6901 C.3     1  UNL1        0.1128
     11 O           8.4744   -3.2709    0.5490 O.3     1  UNL1       -0.4895
     12 C           7.8261   -2.1927    1.0434 C.ar    1  UNL1        0.1258
     13 C           7.0064   -1.3995    0.2698 C.ar    1  UNL1        0.0015
     14 C           6.3370   -0.2898    0.7678 C.ar    1  UNL1        0.0393
     15 N           5.5288    0.4992   -0.0803 N.pl3   1  UNL1       -0.2992
     16 C           4.3428    1.0703    0.4488 C.ar    1  UNL1        0.1264
     17 C           3.1706    0.4195    0.1482 C.ar    1  UNL1        0.0208
     18 C           1.9184    0.8664    0.6142 C.ar    1  UNL1        0.1332
     19 O           0.7835    0.1934    0.2936 O.3     1  UNL1       -0.4553
     20 C          -0.5078    0.4810    0.5738 C.ar    1  UNL1        0.1362
     21 C          -1.2099   -0.4343    1.3722 C.ar    1  UNL1       -0.0170
     22 C          -2.5241   -0.2432    1.7145 C.ar    1  UNL1       -0.0364
     23 C          -3.2035    0.8858    1.2694 C.ar    1  UNL1        0.0427
     24 N          -4.5646    1.0047    1.6361 N.am    1  UNL1       -0.2686
     25 C          -5.6051    0.5216    0.7559 C.2     1  UNL1        0.3082
     26 O          -5.1902    0.0398   -0.3107 O.2     1  UNL1       -0.2521
     27 N          -6.9635    0.5987    1.0949 N.am    1  UNL1       -0.2660
     28 C          -8.0626    0.1552    0.3548 C.ar    1  UNL1        0.0789
     29 C          -9.3114    0.7817    0.5275 C.ar    1  UNL1       -0.0330
     30 C         -10.4471    0.4301   -0.1213 C.ar    1  UNL1       -0.0382
     31 C         -11.7607    1.0948    0.0806 C.3     1  UNL1       -0.0126
     32 C         -11.6648    2.1641    1.1324 C.3     1  UNL1       -0.0560
     33 C         -12.8076    0.0656    0.5011 C.3     1  UNL1       -0.0560
     34 C         -12.2139    1.7429   -1.2132 C.3     1  UNL1       -0.0560
     35 C         -10.3580   -0.6272   -1.0190 C.ar    1  UNL1       -0.0320
     36 C          -9.1796   -1.2885   -1.2423 C.ar    1  UNL1        0.0913
     37 N          -9.0754   -2.3671   -2.1498 N.pl3   1  UNL1       -0.2173
     38 S         -10.3712   -2.6870   -3.2346 S.O2    1  UNL1        0.0404
     39 C         -10.6937   -1.3453   -4.3459 C.3     1  UNL1        0.0736
     40 O         -11.6515   -2.9759   -2.4684 O.2     1  UNL1       -0.1555
     41 O         -10.0355   -3.9090   -4.0938 O.2     1  UNL1       -0.1555
     42 C          -8.0300   -0.8858   -0.5423 C.ar    1  UNL1        0.1634
     43 O          -6.8945   -1.6271   -0.8357 O.3     1  UNL1       -0.4914
     44 C          -6.5724   -2.8159   -0.1272 C.3     1  UNL1        0.0790
     45 C          -2.5429    1.7865    0.4950 C.ar    1  UNL1        0.0069
     46 C          -3.2245    2.8969    0.0490 C.ar    1  UNL1       -0.0521
     47 C          -2.5575    3.7913   -0.7402 C.ar    1  UNL1       -0.0611
     48 C          -1.2337    3.6199   -1.1013 C.ar    1  UNL1       -0.0611
     49 C          -0.5625    2.4964   -0.6427 C.ar    1  UNL1       -0.0505
     50 C          -1.2078    1.5919    0.1460 C.ar    1  UNL1        0.0262
     51 C           1.9798    1.9989    1.3878 C.ar    1  UNL1       -0.0011
     52 C           3.1469    2.6674    1.7013 C.ar    1  UNL1        0.0332
     53 N           4.3167    2.1662    1.2078 N.ar    1  UNL1       -0.2400
     54 C           6.5129    0.0128    2.0909 C.ar    1  UNL1        0.0015
     55 C           7.3317   -0.7616    2.9077 C.ar    1  UNL1        0.1253
     56 O           7.4631   -0.3880    4.2553 O.3     1  UNL1       -0.4949
     57 C           6.7923    0.7392    4.7793 C.3     1  UNL1        0.0788
     58 C           7.9814   -1.8461    2.4069 C.ar    1  UNL1        0.0219
     59 H          12.2189    3.6082   -2.4736 H       1  UNL1        0.0524
     60 H          13.1893    2.4675   -1.5536 H       1  UNL1        0.0524
     61 H          11.5087    2.7785   -1.0632 H       1  UNL1        0.0524
     62 H          10.7430    0.4416   -1.5766 H       1  UNL1        0.0582
     63 H          11.2314   -0.3449   -3.1077 H       1  UNL1        0.0582
     64 H          13.2558    0.6160   -1.0393 H       1  UNL1        0.0583
     65 H          13.5911   -0.1185   -2.6525 H       1  UNL1        0.0583
     66 H          12.7124   -1.5628    0.7677 H       1  UNL1        0.0583
     67 H          12.8197   -3.0473   -0.1688 H       1  UNL1        0.0583
     68 H          10.6122   -2.7159    0.6548 H       1  UNL1        0.0583
     69 H          10.3904   -1.1432   -0.0904 H       1  UNL1        0.0583
     70 H           9.2286   -3.4747   -2.7202 H       1  UNL1        0.0594
     71 H           8.7050   -1.9607   -1.8351 H       1  UNL1        0.0594
     72 H           7.4682   -4.0276   -1.0507 H       1  UNL1        0.0720
     73 H           9.0721   -4.7956   -0.6228 H       1  UNL1        0.0720
     74 H           6.7999   -1.6030   -0.7862 H       1  UNL1        0.0673
     75 H           5.7896    0.6673   -1.0846 H       1  UNL1        0.1536
     76 H           3.1714   -0.4684   -0.4646 H       1  UNL1        0.0689
     77 H          -0.7067   -1.3159    1.7315 H       1  UNL1        0.0655
     78 H          -3.0501   -0.9617    2.3326 H       1  UNL1        0.0637
     79 H          -4.8242    1.4364    2.5347 H       1  UNL1        0.1564
     80 H          -7.1763    1.0493    2.0408 H       1  UNL1        0.1565
     81 H          -9.3653    1.6029    1.2268 H       1  UNL1        0.0640
     82 H         -11.3687    1.7992    2.1182 H       1  UNL1        0.0238
     83 H         -12.6700    2.6354    1.2333 H       1  UNL1        0.0238
     84 H         -10.9972    2.9715    0.7286 H       1  UNL1        0.0238
     85 H         -13.1603   -0.4747   -0.4233 H       1  UNL1        0.0238
     86 H         -12.3015   -0.6685    1.1662 H       1  UNL1        0.0238
     87 H         -13.6282    0.6114    0.9626 H       1  UNL1        0.0238
     88 H         -12.7716    0.9505   -1.7883 H       1  UNL1        0.0238
     89 H         -12.8928    2.6090   -1.0426 H       1  UNL1        0.0238
     90 H         -11.3525    2.0407   -1.8532 H       1  UNL1        0.0238
     91 H         -11.2662   -0.9097   -1.5335 H       1  UNL1        0.0641
     92 H          -8.2374   -2.9766   -2.1812 H       1  UNL1        0.1734
     93 H          -9.7097   -0.9652   -4.7351 H       1  UNL1        0.0482
     94 H         -11.2536   -1.7531   -5.2145 H       1  UNL1        0.0482
     95 H         -11.2032   -0.5119   -3.8564 H       1  UNL1        0.0482
     96 H          -5.6487   -2.6213    0.4498 H       1  UNL1        0.0660
     97 H          -6.3283   -3.6111   -0.8806 H       1  UNL1        0.0660
     98 H          -7.3410   -3.1381    0.5726 H       1  UNL1        0.0660
     99 H          -4.2783    3.0350    0.3366 H       1  UNL1        0.0624
    100 H          -3.0899    4.6674   -1.0933 H       1  UNL1        0.0618
    101 H          -0.7036    4.3313   -1.7289 H       1  UNL1        0.0618
    102 H           0.4732    2.3508   -0.9372 H       1  UNL1        0.0625
    103 H           1.0283    2.3930    1.7802 H       1  UNL1        0.0669
    104 H           3.1311    3.5520    2.3141 H       1  UNL1        0.0831
    105 H           6.0218    0.8663    2.5503 H       1  UNL1        0.0673
    106 H           5.7036    0.6421    4.7356 H       1  UNL1        0.0660
    107 H           7.1438    1.6105    4.1602 H       1  UNL1        0.0660
    108 H           7.1565    0.9848    5.8082 H       1  UNL1        0.0660
    109 H           8.6200   -2.4649    2.9966 H       1  UNL1        0.0691
@<TRIPOS>BOND
     1     1     2    1
     2     2     3    1
     3     3     4    1
     4     4     5    1
     5     5     6    1
     6     6     7    1
     7     7     8    1
     8     8     9    1
     9     9    10    1
    10    10    11    1
    11    11    12    1
    12    12    13   ar
    13    13    14   ar
    14    14    15    1
    15    15    16    1
    16    16    17   ar
    17    17    18   ar
    18    18    19    1
    19    19    20    1
    20    20    21   ar
    21    21    22   ar
    22    22    23   ar
    23    23    24    1
    24    24    25   am
    25    25    26    2
    26    25    27   am
    27    27    28    1
    28    28    29   ar
    29    29    30   ar
    30    30    31    1
    31    31    32    1
    32    31    33    1
    33    31    34    1
    34    30    35   ar
    35    35    36   ar
    36    36    37    1
    37    37    38    1
    38    38    39    1
    39    38    40    2
    40    38    41    2
    41    36    42   ar
    42    42    43    1
    43    43    44    1
    44    23    45   ar
    45    45    46   ar
    46    46    47   ar
    47    47    48   ar
    48    48    49   ar
    49    49    50   ar
    50    18    51   ar
    51    51    52   ar
    52    52    53   ar
    53    14    54   ar
    54    54    55   ar
    55    55    56    1
    56    56    57    1
    57    55    58   ar
    58    58    12   ar
    59    53    16   ar
    60    50    20   ar
    61    42    28   ar
    62    50    45   ar
    63     1    59    1
    64     1    60    1
    65     1    61    1
    66     3    62    1
    67     3    63    1
    68     4    64    1
    69     4    65    1
    70     6    66    1
    71     6    67    1
    72     7    68    1
    73     7    69    1
    74     9    70    1
    75     9    71    1
    76    10    72    1
    77    10    73    1
    78    13    74    1
    79    15    75    1
    80    17    76    1
    81    21    77    1
    82    22    78    1
    83    24    79    1
    84    27    80    1
    85    29    81    1
    86    32    82    1
    87    32    83    1
    88    32    84    1
    89    33    85    1
    90    33    86    1
    91    33    87    1
    92    34    88    1
    93    34    89    1
    94    34    90    1
    95    35    91    1
    96    37    92    1
    97    39    93    1
    98    39    94    1
    99    39    95    1
   100    44    96    1
   101    44    97    1
   102    44    98    1
   103    46    99    1
   104    47   100    1
   105    48   101    1
   106    49   102    1
   107    51   103    1
   108    52   104    1
   109    54   105    1
   110    57   106    1
   111    57   107    1
   112    57   108    1
   113    58   109    1
