@<TRIPOS>MOLECULE
*****
 51 55 0 0 0
SMALL
GASTEIGER

@<TRIPOS>ATOM
      1 C          -6.6871   -0.1504   -0.8808 C.3     1  UNL1        0.0788
      2 O          -6.4631    0.2572    0.4394 O.3     1  UNL1       -0.4950
      3 C          -5.2109    0.3139    1.0132 C.ar    1  UNL1        0.1234
      4 C          -5.1617    0.7435    2.3445 C.ar    1  UNL1        0.0190
      5 C          -3.9575    0.8328    3.0020 C.ar    1  UNL1        0.1692
      6 F          -3.8469    1.2404    4.2855 F       1  UNL1       -0.2015
      7 C          -2.7922    0.4939    2.3360 C.ar    1  UNL1        0.1695
      8 C          -2.8263    0.0771    1.0504 C.ar    1  UNL1        0.0331
      9 C          -4.0470   -0.0206    0.3606 C.ar    1  UNL1       -0.0105
     10 C          -1.6237   -0.3189    0.2535 C.3     1  UNL1        0.1217
     11 C          -1.8791   -1.7255   -0.1786 C.3     1  UNL1       -0.0096
     12 C          -1.2540   -2.2299   -1.4076 C.3     1  UNL1        0.0037
     13 S          -1.1221   -1.0121   -2.7427 S.3     1  UNL1       -0.0910
     14 C          -1.3932    0.5729   -2.0128 C.2     1  UNL1        0.1478
     15 N          -1.3871    1.7146   -2.8940 N.pl3   1  UNL1       -0.3380
     16 N          -1.5793    0.6711   -0.7838 N.2     1  UNL1       -0.2472
     17 C          -0.4041   -0.1680    1.0590 C.ar    1  UNL1        0.0285
     18 C           0.8294   -0.4732    0.5033 C.ar    1  UNL1       -0.0312
     19 C           2.0165   -0.3681    1.1899 C.ar    1  UNL1        0.0343
     20 N           3.2715   -0.6856    0.6034 N.am    1  UNL1       -0.2802
     21 C           4.0059    0.3205   -0.0649 C.2     1  UNL1        0.2666
     22 O           3.4744    1.4839   -0.0972 O.2     1  UNL1       -0.2682
     23 C           5.2967    0.0746   -0.6901 C.ar    1  UNL1        0.1257
     24 C           6.0026    1.0578   -1.3370 C.ar    1  UNL1       -0.0298
     25 C           7.2263    0.7939   -1.9213 C.ar    1  UNL1       -0.0397
     26 C           7.7186   -0.4857   -1.8362 C.ar    1  UNL1        0.0591
     27 CL          9.2544   -0.9214   -2.5410 Cl      1  UNL1       -0.0820
     28 C           7.0023   -1.4503   -1.1889 C.ar    1  UNL1        0.0467
     29 N           5.8240   -1.1552   -0.6374 N.ar    1  UNL1       -0.2489
     30 C           1.9824    0.0632    2.4997 C.ar    1  UNL1       -0.0370
     31 C           0.7828    0.3769    3.0909 C.ar    1  UNL1       -0.0172
     32 C          -0.4118    0.2568    2.3556 C.ar    1  UNL1        0.1345
     33 O          -1.5770    0.5792    2.9783 O.3     1  UNL1       -0.4524
     34 H          -6.0217   -0.9573   -1.2279 H       1  UNL1        0.0660
     35 H          -7.7271   -0.5671   -0.9344 H       1  UNL1        0.0660
     36 H          -6.6569    0.7464   -1.5313 H       1  UNL1        0.0660
     37 H          -6.0429    1.0131    2.8891 H       1  UNL1        0.0684
     38 H          -4.1153   -0.3459   -0.6671 H       1  UNL1        0.0659
     39 H          -2.9671   -1.9367   -0.1856 H       1  UNL1        0.0303
     40 H          -1.4973   -2.3724    0.6725 H       1  UNL1        0.0303
     41 H          -0.2810   -2.7683   -1.2493 H       1  UNL1        0.0381
     42 H          -1.9157   -3.0475   -1.8334 H       1  UNL1        0.0381
     43 H          -0.6649    2.4582   -2.8278 H       1  UNL1        0.1442
     44 H          -2.1166    1.8309   -3.6346 H       1  UNL1        0.1442
     45 H           0.8494   -0.8020   -0.5025 H       1  UNL1        0.0641
     46 H           3.6826   -1.6515    0.6465 H       1  UNL1        0.1552
     47 H           5.5851    2.0722   -1.3898 H       1  UNL1        0.0641
     48 H           7.7752    1.5744   -2.4286 H       1  UNL1        0.0633
     49 H           7.3513   -2.4749   -1.0965 H       1  UNL1        0.0844
     50 H           2.9375    0.1416    3.0338 H       1  UNL1        0.0637
     51 H           0.7616    0.7139    4.1160 H       1  UNL1        0.0655
@<TRIPOS>BOND
     1     1     2    1
     2     2     3    1
     3     3     4   ar
     4     4     5   ar
     5     5     6    1
     6     5     7   ar
     7     7     8   ar
     8     8     9   ar
     9     8    10    1
    10    10    11    1
    11    11    12    1
    12    12    13    1
    13    13    14    1
    14    14    15    1
    15    14    16    2
    16    10    17    1
    17    17    18   ar
    18    18    19   ar
    19    19    20    1
    20    20    21   am
    21    21    22    2
    22    21    23    1
    23    23    24   ar
    24    24    25   ar
    25    25    26   ar
    26    26    27    1
    27    26    28   ar
    28    28    29   ar
    29    19    30   ar
    30    30    31   ar
    31    31    32   ar
    32    32    33    1
    33     9     3   ar
    34    16    10    1
    35    32    17   ar
    36    33     7    1
    37    29    23   ar
    38     1    34    1
    39     1    35    1
    40     1    36    1
    41     4    37    1
    42     9    38    1
    43    11    39    1
    44    11    40    1
    45    12    41    1
    46    12    42    1
    47    15    43    1
    48    15    44    1
    49    18    45    1
    50    20    46    1
    51    24    47    1
    52    25    48    1
    53    28    49    1
    54    30    50    1
    55    31    51    1
