
     RDKit          3D

 51 55  0  0  0  0  0  0  0  0999 V2000
   -6.6871   -0.1504   -0.8808 C   0  0  0  0  0  0  0  0  0  0  0  0
   -6.4631    0.2572    0.4394 O   0  0  0  0  0  0  0  0  0  0  0  0
   -5.2109    0.3139    1.0132 C   0  0  0  0  0  0  0  0  0  0  0  0
   -5.1617    0.7435    2.3445 C   0  0  0  0  0  0  0  0  0  0  0  0
   -3.9575    0.8328    3.0020 C   0  0  0  0  0  0  0  0  0  0  0  0
   -3.8469    1.2404    4.2855 F   0  0  0  0  0  0  0  0  0  0  0  0
   -2.7922    0.4939    2.3360 C   0  0  0  0  0  0  0  0  0  0  0  0
   -2.8263    0.0771    1.0504 C   0  0  0  0  0  0  0  0  0  0  0  0
   -4.0470   -0.0206    0.3606 C   0  0  0  0  0  0  0  0  0  0  0  0
   -1.6237   -0.3189    0.2535 C   0  0  0  0  0  0  0  0  0  0  0  0
   -1.8791   -1.7255   -0.1786 C   0  0  0  0  0  0  0  0  0  0  0  0
   -1.2540   -2.2299   -1.4076 C   0  0  0  0  0  0  0  0  0  0  0  0
   -1.1221   -1.0121   -2.7427 S   0  0  0  0  0  0  0  0  0  0  0  0
   -1.3932    0.5729   -2.0128 C   0  0  0  0  0  0  0  0  0  0  0  0
   -1.3871    1.7146   -2.8940 N   0  0  0  0  0  0  0  0  0  0  0  0
   -1.5793    0.6711   -0.7838 N   0  0  0  0  0  0  0  0  0  0  0  0
   -0.4041   -0.1680    1.0590 C   0  0  0  0  0  0  0  0  0  0  0  0
    0.8294   -0.4732    0.5033 C   0  0  0  0  0  0  0  0  0  0  0  0
    2.0165   -0.3681    1.1899 C   0  0  0  0  0  0  0  0  0  0  0  0
    3.2715   -0.6856    0.6034 N   0  0  0  0  0  0  0  0  0  0  0  0
    4.0059    0.3205   -0.0649 C   0  0  0  0  0  0  0  0  0  0  0  0
    3.4744    1.4839   -0.0972 O   0  0  0  0  0  0  0  0  0  0  0  0
    5.2967    0.0746   -0.6901 C   0  0  0  0  0  0  0  0  0  0  0  0
    6.0026    1.0578   -1.3370 C   0  0  0  0  0  0  0  0  0  0  0  0
    7.2263    0.7939   -1.9213 C   0  0  0  0  0  0  0  0  0  0  0  0
    7.7186   -0.4857   -1.8362 C   0  0  0  0  0  0  0  0  0  0  0  0
    9.2544   -0.9214   -2.5410 Cl  0  0  0  0  0  0  0  0  0  0  0  0
    7.0023   -1.4503   -1.1889 C   0  0  0  0  0  0  0  0  0  0  0  0
    5.8240   -1.1552   -0.6374 N   0  0  0  0  0  0  0  0  0  0  0  0
    1.9824    0.0632    2.4997 C   0  0  0  0  0  0  0  0  0  0  0  0
    0.7828    0.3769    3.0909 C   0  0  0  0  0  0  0  0  0  0  0  0
   -0.4118    0.2568    2.3556 C   0  0  0  0  0  0  0  0  0  0  0  0
   -1.5770    0.5792    2.9783 O   0  0  0  0  0  0  0  0  0  0  0  0
   -6.0217   -0.9573   -1.2279 H   0  0  0  0  0  0  0  0  0  0  0  0
   -7.7271   -0.5671   -0.9344 H   0  0  0  0  0  0  0  0  0  0  0  0
   -6.6569    0.7464   -1.5313 H   0  0  0  0  0  0  0  0  0  0  0  0
   -6.0429    1.0131    2.8891 H   0  0  0  0  0  0  0  0  0  0  0  0
   -4.1153   -0.3459   -0.6671 H   0  0  0  0  0  0  0  0  0  0  0  0
   -2.9671   -1.9367   -0.1856 H   0  0  0  0  0  0  0  0  0  0  0  0
   -1.4973   -2.3724    0.6725 H   0  0  0  0  0  0  0  0  0  0  0  0
   -0.2810   -2.7683   -1.2493 H   0  0  0  0  0  0  0  0  0  0  0  0
   -1.9157   -3.0475   -1.8334 H   0  0  0  0  0  0  0  0  0  0  0  0
   -0.6649    2.4582   -2.8278 H   0  0  0  0  0  0  0  0  0  0  0  0
   -2.1166    1.8309   -3.6346 H   0  0  0  0  0  0  0  0  0  0  0  0
    0.8494   -0.8020   -0.5025 H   0  0  0  0  0  0  0  0  0  0  0  0
    3.6826   -1.6515    0.6465 H   0  0  0  0  0  0  0  0  0  0  0  0
    5.5851    2.0722   -1.3898 H   0  0  0  0  0  0  0  0  0  0  0  0
    7.7752    1.5744   -2.4286 H   0  0  0  0  0  0  0  0  0  0  0  0
    7.3513   -2.4749   -1.0965 H   0  0  0  0  0  0  0  0  0  0  0  0
    2.9375    0.1416    3.0338 H   0  0  0  0  0  0  0  0  0  0  0  0
    0.7616    0.7139    4.1160 H   0  0  0  0  0  0  0  0  0  0  0  0
  1  2  1  0
  2  3  1  0
  3  4  2  0
  4  5  1  0
  5  6  1  0
  5  7  2  0
  7  8  1  0
  8  9  2  0
  8 10  1  0
 10 11  1  0
 11 12  1  0
 12 13  1  0
 13 14  1  0
 14 15  1  0
 14 16  2  0
 10 17  1  0
 17 18  2  0
 18 19  1  0
 19 20  1  0
 20 21  1  0
 21 22  2  0
 21 23  1  0
 23 24  2  0
 24 25  1  0
 25 26  2  0
 26 27  1  0
 26 28  1  0
 28 29  2  0
 19 30  2  0
 30 31  1  0
 31 32  2  0
 32 33  1  0
  9  3  1  0
 16 10  1  0
 32 17  1  0
 33  7  1  0
 29 23  1  0
  1 34  1  0
  1 35  1  0
  1 36  1  0
  4 37  1  0
  9 38  1  0
 11 39  1  0
 11 40  1  0
 12 41  1  0
 12 42  1  0
 15 43  1  0
 15 44  1  0
 18 45  1  0
 20 46  1  0
 24 47  1  0
 25 48  1  0
 28 49  1  0
 30 50  1  0
 31 51  1  0
M  END
$$$$
