
     RDKit          3D

 53 55  0  0  0  0  0  0  0  0999 V2000
    7.1660    0.8114    1.3402 C   0  0  0  0  0  0  0  0  0  0  0  0
    6.6640    0.2523    0.0503 C   0  0  0  0  0  0  0  0  0  0  0  0
    5.4635    0.9124   -0.4356 N   0  0  0  0  0  0  0  0  0  0  0  0
    5.0819    0.3010   -1.6590 C   0  0  0  0  0  0  0  0  0  0  0  0
    3.6337    0.4686   -2.0417 C   0  0  0  0  0  0  0  0  0  0  0  0
    2.7035    0.2552   -0.8727 C   0  0  0  0  0  0  0  0  0  0  0  0
    1.4422   -0.9158   -1.2063 S   0  0  0  0  0  6  0  0  0  0  0  0
    2.1140   -2.2752   -1.3478 O   0  0  0  0  0  0  0  0  0  0  0  0
    0.7169   -0.6179   -2.4772 O   0  0  0  0  0  0  0  0  0  0  0  0
    0.3525   -1.0467    0.1490 C   0  0  0  0  0  0  0  0  0  0  0  0
    0.5305   -1.9610    1.1661 C   0  0  0  0  0  0  0  0  0  0  0  0
    1.9033   -3.0633    1.1111 Cl  0  0  0  0  0  0  0  0  0  0  0  0
   -0.3471   -2.0538    2.2505 C   0  0  0  0  0  0  0  0  0  0  0  0
   -1.4347   -1.2089    2.3216 C   0  0  0  0  0  0  0  0  0  0  0  0
   -1.6011   -0.2997    1.2981 C   0  0  0  0  0  0  0  0  0  0  0  0
   -2.7512    0.5624    1.4146 N   0  0  0  0  0  0  0  0  0  0  0  0
   -4.0077    0.1886    0.8610 C   0  0  0  0  0  0  0  0  0  0  0  0
   -4.0404   -0.9357    0.2697 O   0  0  0  0  0  0  0  0  0  0  0  0
   -5.1692    1.0157    0.9561 N   0  0  0  0  0  0  0  0  0  0  0  0
   -6.4029    0.5978    0.3862 C   0  0  0  0  0  0  0  0  0  0  0  0
   -6.6852    0.9389   -0.9192 C   0  0  0  0  0  0  0  0  0  0  0  0
   -7.8766    0.5575   -1.5292 C   0  0  0  0  0  0  0  0  0  0  0  0
   -8.8078   -0.1785   -0.8277 C   0  0  0  0  0  0  0  0  0  0  0  0
   -8.5109   -0.5121    0.4777 C   0  0  0  0  0  0  0  0  0  0  0  0
   -9.4341   -1.2352    1.1553 F   0  0  0  0  0  0  0  0  0  0  0  0
   -7.3301   -0.1358    1.0867 C   0  0  0  0  0  0  0  0  0  0  0  0
   -7.0080   -0.5943    2.7628 Cl  0  0  0  0  0  0  0  0  0  0  0  0
   -0.7442   -0.2047    0.2336 C   0  0  0  0  0  0  0  0  0  0  0  0
   -0.9737    0.7380   -0.7652 O   0  0  0  0  0  0  0  0  0  0  0  0
    3.4652   -0.1378    0.3700 C   0  0  0  0  0  0  0  0  0  0  0  0
    4.4760    0.9984    0.5845 C   0  0  0  0  0  0  0  0  0  0  0  0
    6.9897    1.8845    1.4738 H   0  0  0  0  0  0  0  0  0  0  0  0
    8.2808    0.6521    1.3543 H   0  0  0  0  0  0  0  0  0  0  0  0
    6.7525    0.2167    2.1815 H   0  0  0  0  0  0  0  0  0  0  0  0
    7.4150    0.3007   -0.7758 H   0  0  0  0  0  0  0  0  0  0  0  0
    6.4566   -0.8482    0.1951 H   0  0  0  0  0  0  0  0  0  0  0  0
    5.6828    0.7758   -2.4854 H   0  0  0  0  0  0  0  0  0  0  0  0
    5.3361   -0.7924   -1.7155 H   0  0  0  0  0  0  0  0  0  0  0  0
    3.4005   -0.3176   -2.7910 H   0  0  0  0  0  0  0  0  0  0  0  0
    3.4874    1.4457   -2.5402 H   0  0  0  0  0  0  0  0  0  0  0  0
    2.2193    1.2401   -0.6815 H   0  0  0  0  0  0  0  0  0  0  0  0
   -0.1923   -2.7820    3.0466 H   0  0  0  0  0  0  0  0  0  0  0  0
   -2.1072   -1.2895    3.1650 H   0  0  0  0  0  0  0  0  0  0  0  0
   -2.6677    1.4762    1.9114 H   0  0  0  0  0  0  0  0  0  0  0  0
   -5.0716    1.9328    1.4588 H   0  0  0  0  0  0  0  0  0  0  0  0
   -6.0007    1.5141   -1.5268 H   0  0  0  0  0  0  0  0  0  0  0  0
   -8.1127    0.8172   -2.5520 H   0  0  0  0  0  0  0  0  0  0  0  0
   -9.7391   -0.4751   -1.3085 H   0  0  0  0  0  0  0  0  0  0  0  0
   -0.2964    1.4618   -0.9766 H   0  0  0  0  0  0  0  0  0  0  0  0
    3.9892   -1.1040    0.2514 H   0  0  0  0  0  0  0  0  0  0  0  0
    2.7610   -0.1947    1.2106 H   0  0  0  0  0  0  0  0  0  0  0  0
    3.8913    1.9375    0.5111 H   0  0  0  0  0  0  0  0  0  0  0  0
    4.9370    0.9263    1.5799 H   0  0  0  0  0  0  0  0  0  0  0  0
  1  2  1  0
  2  3  1  0
  3  4  1  0
  4  5  1  0
  5  6  1  0
  6  7  1  0
  7  8  2  0
  7  9  2  0
  7 10  1  0
 10 11  2  0
 11 12  1  0
 11 13  1  0
 13 14  2  0
 14 15  1  0
 15 16  1  0
 16 17  1  0
 17 18  2  0
 17 19  1  0
 19 20  1  0
 20 21  2  0
 21 22  1  0
 22 23  2  0
 23 24  1  0
 24 25  1  0
 24 26  2  0
 26 27  1  0
 15 28  2  0
 28 29  1  0
  6 30  1  0
 30 31  1  0
 31  3  1  0
 28 10  1  0
 26 20  1  0
  1 32  1  0
  1 33  1  0
  1 34  1  0
  2 35  1  0
  2 36  1  0
  4 37  1  0
  4 38  1  0
  5 39  1  0
  5 40  1  0
  6 41  1  0
 13 42  1  0
 14 43  1  0
 16 44  1  0
 19 45  1  0
 21 46  1  0
 22 47  1  0
 23 48  1  0
 29 49  1  0
 30 50  1  0
 30 51  1  0
 31 52  1  0
 31 53  1  0
M  END
$$$$
