@<TRIPOS>MOLECULE
*****
 53 55 0 0 0
SMALL
GASTEIGER

@<TRIPOS>ATOM
      1 C           7.1660    0.8114    1.3402 C.3     1  UNL1       -0.0524
      2 C           6.6640    0.2523    0.0503 C.3     1  UNL1       -0.0039
      3 N           5.4635    0.9124   -0.4356 N.3     1  UNL1       -0.3025
      4 C           5.0819    0.3010   -1.6590 C.3     1  UNL1        0.0006
      5 C           3.6337    0.4686   -2.0417 C.3     1  UNL1       -0.0175
      6 C           2.7035    0.2552   -0.8727 C.3     1  UNL1        0.0845
      7 S           1.4422   -0.9158   -1.2063 S.O2    1  UNL1        0.0047
      8 O           2.1140   -2.2752   -1.3478 O.2     1  UNL1       -0.1689
      9 O           0.7169   -0.6179   -2.4772 O.2     1  UNL1       -0.1689
     10 C           0.3525   -1.0467    0.1490 C.ar    1  UNL1        0.1497
     11 C           0.5305   -1.9610    1.1661 C.ar    1  UNL1        0.0694
     12 CL          1.9033   -3.0633    1.1111 Cl      1  UNL1       -0.0815
     13 C          -0.3471   -2.0538    2.2505 C.ar    1  UNL1       -0.0395
     14 C          -1.4347   -1.2089    2.3216 C.ar    1  UNL1       -0.0354
     15 C          -1.6011   -0.2997    1.2981 C.ar    1  UNL1        0.0785
     16 N          -2.7512    0.5624    1.4146 N.am    1  UNL1       -0.2661
     17 C          -4.0077    0.1886    0.8610 C.2     1  UNL1        0.3082
     18 O          -4.0404   -0.9357    0.2697 O.2     1  UNL1       -0.2521
     19 N          -5.1692    1.0157    0.9561 N.am    1  UNL1       -0.2678
     20 C          -6.4029    0.5978    0.3862 C.ar    1  UNL1        0.0559
     21 C          -6.6852    0.9389   -0.9192 C.ar    1  UNL1       -0.0388
     22 C          -7.8766    0.5575   -1.5292 C.ar    1  UNL1       -0.0572
     23 C          -8.8078   -0.1785   -0.8277 C.ar    1  UNL1       -0.0249
     24 C          -8.5109   -0.5121    0.4777 C.ar    1  UNL1        0.1434
     25 F          -9.4341   -1.2352    1.1553 F       1  UNL1       -0.2039
     26 C          -7.3301   -0.1358    1.0867 C.ar    1  UNL1        0.0972
     27 CL         -7.0080   -0.5943    2.7628 Cl      1  UNL1       -0.0786
     28 C          -0.7442   -0.2047    0.2336 C.ar    1  UNL1        0.1644
     29 O          -0.9737    0.7380   -0.7652 O.3     1  UNL1       -0.5032
     30 C           3.4652   -0.1378    0.3700 C.3     1  UNL1       -0.0175
     31 C           4.4760    0.9984    0.5845 C.3     1  UNL1        0.0006
     32 H           6.9897    1.8845    1.4738 H       1  UNL1        0.0242
     33 H           8.2808    0.6521    1.3543 H       1  UNL1        0.0242
     34 H           6.7525    0.2167    2.1815 H       1  UNL1        0.0242
     35 H           7.4150    0.3007   -0.7758 H       1  UNL1        0.0424
     36 H           6.4566   -0.8482    0.1951 H       1  UNL1        0.0424
     37 H           5.6828    0.7758   -2.4854 H       1  UNL1        0.0427
     38 H           5.3361   -0.7924   -1.7155 H       1  UNL1        0.0427
     39 H           3.4005   -0.3176   -2.7910 H       1  UNL1        0.0296
     40 H           3.4874    1.4457   -2.5402 H       1  UNL1        0.0296
     41 H           2.2193    1.2401   -0.6815 H       1  UNL1        0.0541
     42 H          -0.1923   -2.7820    3.0466 H       1  UNL1        0.0633
     43 H          -2.1072   -1.2895    3.1650 H       1  UNL1        0.0638
     44 H          -2.6677    1.4762    1.9114 H       1  UNL1        0.1565
     45 H          -5.0716    1.9328    1.4588 H       1  UNL1        0.1564
     46 H          -6.0007    1.5141   -1.5268 H       1  UNL1        0.0637
     47 H          -8.1127    0.8172   -2.5520 H       1  UNL1        0.0619
     48 H          -9.7391   -0.4751   -1.3085 H       1  UNL1        0.0647
     49 H          -0.2964    1.4618   -0.9766 H       1  UNL1        0.2923
     50 H           3.9892   -1.1040    0.2514 H       1  UNL1        0.0296
     51 H           2.7610   -0.1947    1.2106 H       1  UNL1        0.0296
     52 H           3.8913    1.9375    0.5111 H       1  UNL1        0.0427
     53 H           4.9370    0.9263    1.5799 H       1  UNL1        0.0427
@<TRIPOS>BOND
     1     1     2    1
     2     2     3    1
     3     3     4    1
     4     4     5    1
     5     5     6    1
     6     6     7    1
     7     7     8    2
     8     7     9    2
     9     7    10    1
    10    10    11   ar
    11    11    12    1
    12    11    13   ar
    13    13    14   ar
    14    14    15   ar
    15    15    16    1
    16    16    17   am
    17    17    18    2
    18    17    19   am
    19    19    20    1
    20    20    21   ar
    21    21    22   ar
    22    22    23   ar
    23    23    24   ar
    24    24    25    1
    25    24    26   ar
    26    26    27    1
    27    15    28   ar
    28    28    29    1
    29     6    30    1
    30    30    31    1
    31    31     3    1
    32    28    10   ar
    33    26    20   ar
    34     1    32    1
    35     1    33    1
    36     1    34    1
    37     2    35    1
    38     2    36    1
    39     4    37    1
    40     4    38    1
    41     5    39    1
    42     5    40    1
    43     6    41    1
    44    13    42    1
    45    14    43    1
    46    16    44    1
    47    19    45    1
    48    21    46    1
    49    22    47    1
    50    23    48    1
    51    29    49    1
    52    30    50    1
    53    30    51    1
    54    31    52    1
    55    31    53    1
