@<TRIPOS>MOLECULE
*****
 29 31 0 0 0
SMALL
GASTEIGER

@<TRIPOS>ATOM
      1 O           0.5539   -1.4512   -1.0197 O.2     1  UNL1       -0.2659
      2 C           0.0801   -0.4318   -0.3634 C.ar    1  UNL1        0.2768
      3 C          -1.2310   -0.1269   -0.2746 C.ar    1  UNL1        0.1326
      4 C          -2.3236   -0.8227   -0.8466 C.ar    1  UNL1        0.2930
      5 N          -2.2398   -1.9773   -1.6292 N.pl3   1  UNL1        0.0807
      6 O          -3.2003   -2.8017   -1.5872 O.2     1  UNL1        0.0415
      7 O          -1.2047   -2.2965   -2.4312 O.co2   1  UNL1       -0.5760
      8 C          -3.6059   -0.3369   -0.6192 C.ar    1  UNL1        0.0935
      9 C          -3.9319    0.7581    0.1074 C.ar    1  UNL1        0.2808
     10 N          -5.2437    1.2214    0.3181 N.pl3   1  UNL1        0.0799
     11 O          -5.4426    2.2371    1.0028 O.2     1  UNL1        0.0414
     12 O          -6.2804    0.5144   -0.2557 O.co2   1  UNL1       -0.5760
     13 C          -2.8561    1.4483    0.6723 C.ar    1  UNL1        0.0319
     14 C          -1.5688    0.9728    0.4534 C.ar    1  UNL1        0.0547
     15 S           0.0379    1.5601    1.0057 S.2     1  UNL1       -0.0028
     16 N           0.9674    0.3382    0.2489 N.ar    1  UNL1       -0.2453
     17 C           2.4085    0.1960    0.2840 C.ar    1  UNL1        0.0568
     18 C           3.2388    1.2505   -0.0022 C.ar    1  UNL1       -0.0362
     19 C           4.6151    1.0738    0.0441 C.ar    1  UNL1       -0.0458
     20 C           5.1715   -0.1564    0.3763 C.ar    1  UNL1        0.0180
     21 BR          7.0436   -0.4475    0.4517 Br      1  UNL1       -0.0503
     22 C           4.3461   -1.2266    0.6669 C.ar    1  UNL1       -0.0458
     23 C           2.9894   -1.0089    0.6094 C.ar    1  UNL1       -0.0362
     24 H          -4.4540   -0.8841   -1.0683 H       1  UNL1        0.0754
     25 H          -3.0321    2.3354    1.2702 H       1  UNL1        0.0697
     26 H           2.7946    2.2154   -0.2613 H       1  UNL1        0.0639
     27 H           5.2700    1.8843   -0.1783 H       1  UNL1        0.0629
     28 H           4.7695   -2.2008    0.9305 H       1  UNL1        0.0629
     29 H           2.3283   -1.8362    0.8350 H       1  UNL1        0.0639
@<TRIPOS>UNITY_ATOM_ATTR
5 1
charge 1
7 1
charge -1
10 1
charge 1
12 1
charge -1
@<TRIPOS>BOND
     1     1     2    2
     2     2     3   ar
     3     3     4   ar
     4     4     5    1
     5     5     6    2
     6     5     7    1
     7     4     8   ar
     8     8     9   ar
     9     9    10    1
    10    10    11    2
    11    10    12    1
    12     9    13   ar
    13    13    14   ar
    14    14    15   ar
    15    15    16   ar
    16    16    17    1
    17    17    18   ar
    18    18    19   ar
    19    19    20   ar
    20    20    21    1
    21    20    22   ar
    22    22    23   ar
    23    16     2   ar
    24    23    17   ar
    25    14     3   ar
    26     8    24    1
    27    13    25    1
    28    18    26    1
    29    19    27    1
    30    22    28    1
    31    23    29    1
