
     RDKit          3D

 75 78  0  0  0  0  0  0  0  0999 V2000
   -3.8868   -1.6259    0.9917 C   0  0  0  0  0  0  0  0  0  0  0  0
   -2.9022   -0.8848    0.5811 C   0  0  0  0  0  0  0  0  0  0  0  0
   -3.1238    0.2919   -0.1700 N   0  0  0  0  0  0  0  0  0  0  0  0
   -3.4616    0.2843   -1.4042 C   0  0  0  0  0  0  0  0  0  0  0  0
   -3.6906   -0.8907   -2.3019 C   0  0  0  0  0  0  0  0  0  0  0  0
   -3.6332    1.5554   -1.9636 O   0  0  0  0  0  0  0  0  0  0  0  0
   -1.4468   -1.0601    0.7994 C   0  0  0  0  0  0  0  0  0  0  0  0
   -0.3689   -1.7293    1.3185 O   0  0  0  0  0  0  0  0  0  0  0  0
   -0.3686   -0.5126    0.5000 N   0  0  0  0  0  0  0  0  0  0  0  0
   -0.0906    0.6543   -0.2778 C   0  0  1  0  0  0  0  0  0  0  0  0
   -0.5965    1.9477    0.3121 C   0  0  0  0  0  0  0  0  0  0  0  0
    0.5447    2.9453    0.3355 C   0  0  0  0  0  0  0  0  0  0  0  0
    1.3826    2.8060    1.5696 C   0  0  0  0  0  0  0  0  0  0  0  0
    2.6297    2.0603    1.2391 C   0  0  0  0  0  0  0  0  0  0  0  0
    2.5189    1.4665   -0.0719 N   0  0  0  0  0  0  0  0  0  0  0  0
    3.6417    1.6415   -0.9433 C   0  0  0  0  0  0  0  0  0  0  0  0
    4.7625    0.7012   -0.7328 C   0  0  0  0  0  0  0  0  0  0  0  0
    5.0058   -0.5559   -1.2313 C   0  0  0  0  0  0  0  0  0  0  0  0
    6.1488   -1.2529   -0.9042 C   0  0  0  0  0  0  0  0  0  0  0  0
    7.0961   -0.7341   -0.0722 C   0  0  0  0  0  0  0  0  0  0  0  0
    6.9166    0.5228    0.4644 C   0  0  0  0  0  0  0  0  0  0  0  0
    5.7527    1.2098    0.1202 C   0  0  0  0  0  0  0  0  0  0  0  0
    8.3370   -1.4535    0.2933 C   0  0  0  0  0  0  0  0  0  0  0  0
    8.8964   -2.3117   -0.6286 C   0  0  0  0  0  0  0  0  0  0  0  0
   10.0544   -3.0116   -0.3766 C   0  0  0  0  0  0  0  0  0  0  0  0
   10.6972   -2.8618    0.8446 C   0  0  0  0  0  0  0  0  0  0  0  0
   10.1359   -2.0034    1.7669 C   0  0  0  0  0  0  0  0  0  0  0  0
    8.9582   -1.2792    1.5349 C   0  0  0  0  0  0  0  0  0  0  0  0
    1.3763    0.7214   -0.5224 C   0  0  0  0  0  0  0  0  0  0  0  0
    1.6829   -0.1501   -1.3951 O   0  0  0  0  0  0  0  0  0  0  0  0
   -5.2413   -1.2151    0.6613 C   0  0  0  0  0  0  0  0  0  0  0  0
   -6.2646   -1.9937    0.1970 C   0  0  0  0  0  0  0  0  0  0  0  0
   -7.5285   -1.5080   -0.0777 C   0  0  0  0  0  0  0  0  0  0  0  0
   -8.4827   -2.5090   -0.5681 C   0  0  0  0  0  0  0  0  0  0  0  0
   -8.3272   -3.7447   -0.7776 O   0  0  0  0  0  0  0  0  0  0  0  0
   -7.8053   -0.1480    0.1210 C   0  0  0  0  0  0  0  0  0  0  0  0
   -9.2100    0.1252   -0.2487 C   0  0  0  0  0  0  0  0  0  0  0  0
   -9.6145    1.5234   -0.0384 C   0  0  0  0  0  0  0  0  0  0  0  0
  -10.4879    2.5700   -0.0684 O   0  0  0  0  0  0  0  0  0  0  0  0
   -9.0662    2.5898    0.4019 O   0  0  0  0  0  0  0  0  0  0  0  0
   -6.7706    0.6190    0.5871 C   0  0  0  0  0  0  0  0  0  0  0  0
   -5.5141    0.1405    0.8612 C   0  0  0  0  0  0  0  0  0  0  0  0
   -3.5755   -2.5013    1.5546 H   0  0  0  0  0  0  0  0  0  0  0  0
   -3.7697   -1.8366   -1.7551 H   0  0  0  0  0  0  0  0  0  0  0  0
   -2.8189   -1.0008   -3.0001 H   0  0  0  0  0  0  0  0  0  0  0  0
   -4.5583   -0.6725   -2.9268 H   0  0  0  0  0  0  0  0  0  0  0  0
   -3.8532    2.3295   -1.3432 H   0  0  0  0  0  0  0  0  0  0  0  0
   -0.4229   -2.6408    1.7237 H   0  0  0  0  0  0  0  0  0  0  0  0
   -0.5785    0.5524   -1.3124 H   0  0  0  0  0  0  0  0  0  0  0  0
   -1.4004    2.4300   -0.3137 H   0  0  0  0  0  0  0  0  0  0  0  0
   -0.9468    1.8605    1.3521 H   0  0  0  0  0  0  0  0  0  0  0  0
    0.1629    3.9953    0.2835 H   0  0  0  0  0  0  0  0  0  0  0  0
    1.2002    2.8360   -0.5482 H   0  0  0  0  0  0  0  0  0  0  0  0
    1.6803    3.8280    1.9025 H   0  0  0  0  0  0  0  0  0  0  0  0
    0.8077    2.3566    2.4202 H   0  0  0  0  0  0  0  0  0  0  0  0
    2.7443    1.2610    2.0112 H   0  0  0  0  0  0  0  0  0  0  0  0
    3.5447    2.6843    1.3347 H   0  0  0  0  0  0  0  0  0  0  0  0
    3.2354    1.5188   -1.9913 H   0  0  0  0  0  0  0  0  0  0  0  0
    3.9859    2.7006   -0.9006 H   0  0  0  0  0  0  0  0  0  0  0  0
    4.2339   -0.9160   -1.8822 H   0  0  0  0  0  0  0  0  0  0  0  0
    6.2788   -2.2367   -1.3305 H   0  0  0  0  0  0  0  0  0  0  0  0
    7.6708    0.9165    1.1187 H   0  0  0  0  0  0  0  0  0  0  0  0
    5.7349    2.1993    0.6071 H   0  0  0  0  0  0  0  0  0  0  0  0
    8.4559   -2.4807   -1.5966 H   0  0  0  0  0  0  0  0  0  0  0  0
   10.5706   -3.7040   -1.0233 H   0  0  0  0  0  0  0  0  0  0  0  0
   11.6049   -3.3221    1.2168 H   0  0  0  0  0  0  0  0  0  0  0  0
   10.5331   -1.7905    2.7579 H   0  0  0  0  0  0  0  0  0  0  0  0
    8.5138   -0.6049    2.2487 H   0  0  0  0  0  0  0  0  0  0  0  0
   -6.0010   -3.0359    0.0611 H   0  0  0  0  0  0  0  0  0  0  0  0
   -9.5030   -2.3053   -0.8280 H   0  0  0  0  0  0  0  0  0  0  0  0
   -9.8548   -0.5225    0.3833 H   0  0  0  0  0  0  0  0  0  0  0  0
   -9.3327   -0.1956   -1.3116 H   0  0  0  0  0  0  0  0  0  0  0  0
  -11.0882    2.7915   -0.8710 H   0  0  0  0  0  0  0  0  0  0  0  0
   -7.0536    1.6345    0.7131 H   0  0  0  0  0  0  0  0  0  0  0  0
   -4.8562    0.9311    1.2303 H   0  0  0  0  0  0  0  0  0  0  0  0
  1  2  2  0
  2  3  1  0
  3  4  2  0
  4  5  1  0
  4  6  1  0
  2  7  1  0
  7  8  1  0
  7  9  2  3
  9 10  1  0
 10 11  1  0
 11 12  1  0
 12 13  1  0
 13 14  1  0
 14 15  1  0
 15 16  1  0
 16 17  1  0
 17 18  2  0
 18 19  1  0
 19 20  2  0
 20 21  1  0
 21 22  2  0
 20 23  1  0
 23 24  2  0
 24 25  1  0
 25 26  2  0
 26 27  1  0
 27 28  2  0
 15 29  1  0
 29 30  2  0
  1 31  1  0
 31 32  2  0
 32 33  1  0
 33 34  1  0
 34 35  2  0
 33 36  2  0
 36 37  1  0
 37 38  1  0
 38 39  1  0
 38 40  2  0
 36 41  1  0
 41 42  2  0
 29 10  1  0
 42 31  1  0
 22 17  1  0
 28 23  1  0
  1 43  1  0
  5 44  1  0
  5 45  1  0
  5 46  1  0
  6 47  1  0
  8 48  1  0
 10 49  1  6
 11 50  1  0
 11 51  1  0
 12 52  1  0
 12 53  1  0
 13 54  1  0
 13 55  1  0
 14 56  1  0
 14 57  1  0
 16 58  1  0
 16 59  1  0
 18 60  1  0
 19 61  1  0
 21 62  1  0
 22 63  1  0
 24 64  1  0
 25 65  1  0
 26 66  1  0
 27 67  1  0
 28 68  1  0
 32 69  1  0
 34 70  1  0
 37 71  1  0
 37 72  1  0
 39 73  1  0
 41 74  1  0
 42 75  1  0
M  END
$$$$
