@<TRIPOS>MOLECULE
*****
 75 78 0 0 0
SMALL
GASTEIGER

@<TRIPOS>ATOM
      1 C          -3.8868   -1.6259    0.9917 C.2     1  UNL1       -0.0238
      2 C          -2.9022   -0.8848    0.5811 C.2     1  UNL1        0.1287
      3 N          -3.1238    0.2919   -0.1700 N.2     1  UNL1       -0.2123
      4 C          -3.4616    0.2843   -1.4042 C.2     1  UNL1        0.1844
      5 C          -3.6906   -0.8907   -2.3019 C.3     1  UNL1        0.0116
      6 O          -3.6332    1.5554   -1.9636 O.2     1  UNL1       -0.4956
      7 C          -1.4468   -1.0601    0.7994 C.2     1  UNL1        0.2349
      8 O          -0.3689   -1.7293    1.3185 O.2     1  UNL1       -0.4912
      9 N          -0.3686   -0.5126    0.5000 N.2     1  UNL1       -0.2364
     10 C          -0.0906    0.6543   -0.2778 C.3     1  UNL1        0.1304
     11 C          -0.5965    1.9477    0.3121 C.3     1  UNL1       -0.0218
     12 C           0.5447    2.9453    0.3355 C.3     1  UNL1       -0.0492
     13 C           1.3826    2.8060    1.5696 C.3     1  UNL1       -0.0371
     14 C           2.6297    2.0603    1.2391 C.3     1  UNL1        0.0151
     15 N           2.5189    1.4665   -0.0719 N.am    1  UNL1       -0.2954
     16 C           3.6417    1.6415   -0.9433 C.3     1  UNL1        0.0398
     17 C           4.7625    0.7012   -0.7328 C.ar    1  UNL1       -0.0301
     18 C           5.0058   -0.5559   -1.2313 C.ar    1  UNL1       -0.0565
     19 C           6.1488   -1.2529   -0.9042 C.ar    1  UNL1       -0.0537
     20 C           7.0961   -0.7341   -0.0722 C.ar    1  UNL1       -0.0179
     21 C           6.9166    0.5228    0.4644 C.ar    1  UNL1       -0.0537
     22 C           5.7527    1.2098    0.1202 C.ar    1  UNL1       -0.0565
     23 C           8.3370   -1.4535    0.2933 C.ar    1  UNL1       -0.0179
     24 C           8.8964   -2.3117   -0.6286 C.ar    1  UNL1       -0.0540
     25 C          10.0544   -3.0116   -0.3766 C.ar    1  UNL1       -0.0612
     26 C          10.6972   -2.8618    0.8446 C.ar    1  UNL1       -0.0617
     27 C          10.1359   -2.0034    1.7669 C.ar    1  UNL1       -0.0612
     28 C           8.9582   -1.2792    1.5349 C.ar    1  UNL1       -0.0540
     29 C           1.3763    0.7214   -0.5224 C.2     1  UNL1        0.2405
     30 O           1.6829   -0.1501   -1.3951 O.2     1  UNL1       -0.2733
     31 C          -5.2413   -1.2151    0.6613 C.ar    1  UNL1       -0.0222
     32 C          -6.2646   -1.9937    0.1970 C.ar    1  UNL1       -0.0440
     33 C          -7.5285   -1.5080   -0.0777 C.ar    1  UNL1        0.0184
     34 C          -8.4827   -2.5090   -0.5681 C.2     1  UNL1        0.1505
     35 O          -8.3272   -3.7447   -0.7776 O.2     1  UNL1       -0.2957
     36 C          -7.8053   -0.1480    0.1210 C.ar    1  UNL1       -0.0265
     37 C          -9.2100    0.1252   -0.2487 C.3     1  UNL1        0.0705
     38 C          -9.6145    1.5234   -0.0384 C.2     1  UNL1        0.3091
     39 O         -10.4879    2.5700   -0.0684 O.3     1  UNL1       -0.4804
     40 O          -9.0662    2.5898    0.4019 O.2     1  UNL1       -0.2507
     41 C          -6.7706    0.6190    0.5871 C.ar    1  UNL1       -0.0568
     42 C          -5.5141    0.1405    0.8612 C.ar    1  UNL1       -0.0542
     43 H          -3.5755   -2.5013    1.5546 H       1  UNL1        0.0646
     44 H          -3.7697   -1.8366   -1.7551 H       1  UNL1        0.0324
     45 H          -2.8189   -1.0008   -3.0001 H       1  UNL1        0.0324
     46 H          -4.5583   -0.6725   -2.9268 H       1  UNL1        0.0324
     47 H          -3.8532    2.3295   -1.3432 H       1  UNL1        0.2934
     48 H          -0.4229   -2.6408    1.7237 H       1  UNL1        0.2938
     49 H          -0.5785    0.5524   -1.3124 H       1  UNL1        0.0642
     50 H          -1.4004    2.4300   -0.3137 H       1  UNL1        0.0290
     51 H          -0.9468    1.8605    1.3521 H       1  UNL1        0.0290
     52 H           0.1629    3.9953    0.2835 H       1  UNL1        0.0267
     53 H           1.2002    2.8360   -0.5482 H       1  UNL1        0.0267
     54 H           1.6803    3.8280    1.9025 H       1  UNL1        0.0280
     55 H           0.8077    2.3566    2.4202 H       1  UNL1        0.0280
     56 H           2.7443    1.2610    2.0112 H       1  UNL1        0.0465
     57 H           3.5447    2.6843    1.3347 H       1  UNL1        0.0465
     58 H           3.2354    1.5188   -1.9913 H       1  UNL1        0.0514
     59 H           3.9859    2.7006   -0.9006 H       1  UNL1        0.0514
     60 H           4.2339   -0.9160   -1.8822 H       1  UNL1        0.0621
     61 H           6.2788   -2.2367   -1.3305 H       1  UNL1        0.0624
     62 H           7.6708    0.9165    1.1187 H       1  UNL1        0.0624
     63 H           5.7349    2.1993    0.6071 H       1  UNL1        0.0621
     64 H           8.4559   -2.4807   -1.5966 H       1  UNL1        0.0624
     65 H          10.5706   -3.7040   -1.0233 H       1  UNL1        0.0618
     66 H          11.6049   -3.3221    1.2168 H       1  UNL1        0.0618
     67 H          10.5331   -1.7905    2.7579 H       1  UNL1        0.0618
     68 H           8.5138   -0.6049    2.2487 H       1  UNL1        0.0624
     69 H          -6.0010   -3.0359    0.0611 H       1  UNL1        0.0630
     70 H          -9.5030   -2.3053   -0.8280 H       1  UNL1        0.1081
     71 H          -9.8548   -0.5225    0.3833 H       1  UNL1        0.0426
     72 H          -9.3327   -0.1956   -1.3116 H       1  UNL1        0.0426
     73 H         -11.0882    2.7915   -0.8710 H       1  UNL1        0.2951
     74 H          -7.0536    1.6345    0.7131 H       1  UNL1        0.0621
     75 H          -4.8562    0.9311    1.2303 H       1  UNL1        0.0624
@<TRIPOS>BOND
     1     1     2    2
     2     2     3    1
     3     3     4    2
     4     4     5    1
     5     4     6    1
     6     2     7    1
     7     7     8    1
     8     7     9    2
     9     9    10    1
    10    10    11    1
    11    11    12    1
    12    12    13    1
    13    13    14    1
    14    14    15    1
    15    15    16    1
    16    16    17    1
    17    17    18   ar
    18    18    19   ar
    19    19    20   ar
    20    20    21   ar
    21    21    22   ar
    22    20    23    1
    23    23    24   ar
    24    24    25   ar
    25    25    26   ar
    26    26    27   ar
    27    27    28   ar
    28    15    29   am
    29    29    30    2
    30     1    31    1
    31    31    32   ar
    32    32    33   ar
    33    33    34    1
    34    34    35    2
    35    33    36   ar
    36    36    37    1
    37    37    38    1
    38    38    39    1
    39    38    40    2
    40    36    41   ar
    41    41    42   ar
    42    29    10    1
    43    42    31   ar
    44    22    17   ar
    45    28    23   ar
    46     1    43    1
    47     5    44    1
    48     5    45    1
    49     5    46    1
    50     6    47    1
    51     8    48    1
    52    10    49    1
    53    11    50    1
    54    11    51    1
    55    12    52    1
    56    12    53    1
    57    13    54    1
    58    13    55    1
    59    14    56    1
    60    14    57    1
    61    16    58    1
    62    16    59    1
    63    18    60    1
    64    19    61    1
    65    21    62    1
    66    22    63    1
    67    24    64    1
    68    25    65    1
    69    26    66    1
    70    27    67    1
    71    28    68    1
    72    32    69    1
    73    34    70    1
    74    37    71    1
    75    37    72    1
    76    39    73    1
    77    41    74    1
    78    42    75    1
