@<TRIPOS>MOLECULE
*****
 39 41 0 0 0
SMALL
GASTEIGER

@<TRIPOS>ATOM
      1 O           4.9447    0.4997   -2.9263 O.2     1  UNL1       -0.2451
      2 C           5.3717    0.3878   -1.7633 C.2     1  UNL1        0.3369
      3 O           6.6701    0.7234   -1.4752 O.3     1  UNL1       -0.4771
      4 C           4.4949   -0.0957   -0.7245 C.ar    1  UNL1        0.0607
      5 C           4.9693   -0.2201    0.5672 C.ar    1  UNL1       -0.0477
      6 C           4.1644   -0.6754    1.5763 C.ar    1  UNL1       -0.0591
      7 C           2.8594   -1.0123    1.2849 C.ar    1  UNL1       -0.0353
      8 C           2.3311   -0.9090    0.0160 C.ar    1  UNL1        0.1063
      9 S           0.6995   -1.3329   -0.3363 S.O2    1  UNL1        0.0612
     10 O           0.2742   -2.4766    0.5760 O.2     1  UNL1       -0.1528
     11 O           0.5881   -1.9029   -1.7448 O.2     1  UNL1       -0.1528
     12 N          -0.3592   -0.0706   -0.1763 N.3     1  UNL1       -0.1720
     13 C          -0.5229    0.5514    1.0726 C.3     1  UNL1        0.0251
     14 C          -1.9353    0.8786    1.4468 C.3     1  UNL1       -0.0065
     15 C          -2.9430    0.4935    0.4532 C.ar    1  UNL1        0.0354
     16 C          -2.6116    0.2087   -0.8495 C.ar    1  UNL1       -0.0220
     17 C          -3.5703   -0.1642   -1.7994 C.ar    1  UNL1       -0.0566
     18 C          -4.8738   -0.2342   -1.3680 C.ar    1  UNL1       -0.0550
     19 C          -5.2356    0.0459   -0.0684 C.ar    1  UNL1        0.0159
     20 C          -4.2517    0.4148    0.8517 C.ar    1  UNL1        0.2766
     21 N          -4.6771    0.6917    2.1674 N.pl3   1  UNL1        0.0799
     22 O          -4.0736    1.5430    2.8328 O.2     1  UNL1        0.0415
     23 O          -5.7466    0.0479    2.7292 O.co2   1  UNL1       -0.5760
     24 C          -1.1741    0.3115   -1.2379 C.3     1  UNL1        0.0460
     25 C           3.1686   -0.4475   -0.9753 C.ar    1  UNL1       -0.0214
     26 H           7.2253    1.3506   -2.0548 H       1  UNL1        0.2954
     27 H           6.0149    0.0579    0.7608 H       1  UNL1        0.0626
     28 H           4.5715   -0.7587    2.5719 H       1  UNL1        0.0618
     29 H           2.2353   -1.3702    2.0910 H       1  UNL1        0.0637
     30 H           0.0613    1.5182    1.1320 H       1  UNL1        0.0447
     31 H          -0.0615   -0.0856    1.8540 H       1  UNL1        0.0447
     32 H          -2.1820    0.2956    2.3800 H       1  UNL1        0.0328
     33 H          -2.0491    1.9470    1.7502 H       1  UNL1        0.0328
     34 H          -3.2918   -0.3805   -2.8028 H       1  UNL1        0.0621
     35 H          -5.6896   -0.5181   -2.0439 H       1  UNL1        0.0620
     36 H          -6.2733   -0.0208    0.2310 H       1  UNL1        0.0685
     37 H          -0.9697   -0.3299   -2.1222 H       1  UNL1        0.0493
     38 H          -0.9811    1.3783   -1.5561 H       1  UNL1        0.0493
     39 H           2.8286   -0.3404   -1.9865 H       1  UNL1        0.0645
@<TRIPOS>UNITY_ATOM_ATTR
21 1
charge 1
23 1
charge -1
@<TRIPOS>BOND
     1     1     2    2
     2     2     3    1
     3     2     4    1
     4     4     5   ar
     5     5     6   ar
     6     6     7   ar
     7     7     8   ar
     8     8     9    1
     9     9    10    2
    10     9    11    2
    11     9    12    1
    12    12    13    1
    13    13    14    1
    14    14    15    1
    15    15    16   ar
    16    16    17   ar
    17    17    18   ar
    18    18    19   ar
    19    19    20   ar
    20    20    21    1
    21    21    22    2
    22    21    23    1
    23    16    24    1
    24     8    25   ar
    25    25     4   ar
    26    24    12    1
    27    20    15   ar
    28     3    26    1
    29     5    27    1
    30     6    28    1
    31     7    29    1
    32    13    30    1
    33    13    31    1
    34    14    32    1
    35    14    33    1
    36    17    34    1
    37    18    35    1
    38    19    36    1
    39    24    37    1
    40    24    38    1
    41    25    39    1
