
     RDKit          3D

 39 41  0  0  0  0  0  0  0  0999 V2000
    4.9447    0.4997   -2.9263 O   0  0  0  0  0  0  0  0  0  0  0  0
    5.3717    0.3878   -1.7633 C   0  0  0  0  0  0  0  0  0  0  0  0
    6.6701    0.7234   -1.4752 O   0  0  0  0  0  0  0  0  0  0  0  0
    4.4949   -0.0957   -0.7245 C   0  0  0  0  0  0  0  0  0  0  0  0
    4.9693   -0.2201    0.5672 C   0  0  0  0  0  0  0  0  0  0  0  0
    4.1644   -0.6754    1.5763 C   0  0  0  0  0  0  0  0  0  0  0  0
    2.8594   -1.0123    1.2849 C   0  0  0  0  0  0  0  0  0  0  0  0
    2.3311   -0.9090    0.0160 C   0  0  0  0  0  0  0  0  0  0  0  0
    0.6995   -1.3329   -0.3363 S   0  0  0  0  0  6  0  0  0  0  0  0
    0.2742   -2.4766    0.5760 O   0  0  0  0  0  0  0  0  0  0  0  0
    0.5881   -1.9029   -1.7448 O   0  0  0  0  0  0  0  0  0  0  0  0
   -0.3592   -0.0706   -0.1763 N   0  0  0  0  0  0  0  0  0  0  0  0
   -0.5229    0.5514    1.0726 C   0  0  0  0  0  0  0  0  0  0  0  0
   -1.9353    0.8786    1.4468 C   0  0  0  0  0  0  0  0  0  0  0  0
   -2.9430    0.4935    0.4532 C   0  0  0  0  0  0  0  0  0  0  0  0
   -2.6116    0.2087   -0.8495 C   0  0  0  0  0  0  0  0  0  0  0  0
   -3.5703   -0.1642   -1.7994 C   0  0  0  0  0  0  0  0  0  0  0  0
   -4.8738   -0.2342   -1.3680 C   0  0  0  0  0  0  0  0  0  0  0  0
   -5.2356    0.0459   -0.0684 C   0  0  0  0  0  0  0  0  0  0  0  0
   -4.2517    0.4148    0.8517 C   0  0  0  0  0  0  0  0  0  0  0  0
   -4.6771    0.6917    2.1674 N   0  0  0  0  0  4  0  0  0  0  0  0
   -4.0736    1.5430    2.8328 O   0  0  0  0  0  0  0  0  0  0  0  0
   -5.7466    0.0479    2.7292 O   0  0  0  0  0  1  0  0  0  0  0  0
   -1.1741    0.3115   -1.2379 C   0  0  0  0  0  0  0  0  0  0  0  0
    3.1686   -0.4475   -0.9753 C   0  0  0  0  0  0  0  0  0  0  0  0
    7.2253    1.3506   -2.0548 H   0  0  0  0  0  0  0  0  0  0  0  0
    6.0149    0.0579    0.7608 H   0  0  0  0  0  0  0  0  0  0  0  0
    4.5715   -0.7587    2.5719 H   0  0  0  0  0  0  0  0  0  0  0  0
    2.2353   -1.3702    2.0910 H   0  0  0  0  0  0  0  0  0  0  0  0
    0.0613    1.5182    1.1320 H   0  0  0  0  0  0  0  0  0  0  0  0
   -0.0615   -0.0856    1.8540 H   0  0  0  0  0  0  0  0  0  0  0  0
   -2.1820    0.2956    2.3800 H   0  0  0  0  0  0  0  0  0  0  0  0
   -2.0491    1.9470    1.7502 H   0  0  0  0  0  0  0  0  0  0  0  0
   -3.2918   -0.3805   -2.8028 H   0  0  0  0  0  0  0  0  0  0  0  0
   -5.6896   -0.5181   -2.0439 H   0  0  0  0  0  0  0  0  0  0  0  0
   -6.2733   -0.0208    0.2310 H   0  0  0  0  0  0  0  0  0  0  0  0
   -0.9697   -0.3299   -2.1222 H   0  0  0  0  0  0  0  0  0  0  0  0
   -0.9811    1.3783   -1.5561 H   0  0  0  0  0  0  0  0  0  0  0  0
    2.8286   -0.3404   -1.9865 H   0  0  0  0  0  0  0  0  0  0  0  0
  1  2  2  0
  2  3  1  0
  2  4  1  0
  4  5  2  0
  5  6  1  0
  6  7  2  0
  7  8  1  0
  8  9  1  0
  9 10  2  0
  9 11  2  0
  9 12  1  0
 12 13  1  0
 13 14  1  0
 14 15  1  0
 15 16  2  0
 16 17  1  0
 17 18  2  0
 18 19  1  0
 19 20  2  0
 20 21  1  0
 21 22  2  0
 21 23  1  0
 16 24  1  0
  8 25  2  0
 25  4  1  0
 24 12  1  0
 20 15  1  0
  3 26  1  0
  5 27  1  0
  6 28  1  0
  7 29  1  0
 13 30  1  0
 13 31  1  0
 14 32  1  0
 14 33  1  0
 17 34  1  0
 18 35  1  0
 19 36  1  0
 24 37  1  0
 24 38  1  0
 25 39  1  0
M  CHG  2  21   1  23  -1
M  END
$$$$
