@<TRIPOS>MOLECULE
*****
 54 57 0 0 0
SMALL
GASTEIGER

@<TRIPOS>ATOM
      1 C           6.1705    3.7203    0.0259 C.3     1  UNL1        0.0788
      2 O           5.7908    2.8953    1.1176 O.3     1  UNL1       -0.4951
      3 C           5.0942    1.7315    0.8210 C.ar    1  UNL1        0.1202
      4 C           4.6852    0.8689    1.8254 C.ar    1  UNL1       -0.0182
      5 C           3.9914   -0.2937    1.5524 C.ar    1  UNL1       -0.0368
      6 C           3.6764   -0.6436    0.2580 C.ar    1  UNL1        0.0380
      7 N           2.9652   -1.8302   -0.0556 N.am    1  UNL1       -0.2531
      8 C           3.6811   -3.0504   -0.3086 C.3     1  UNL1        0.0444
      9 C           3.8873   -3.8414    0.9798 C.3     1  UNL1        0.0604
     10 O           4.5800   -5.0128    0.7064 O.3     1  UNL1       -0.3934
     11 C           1.5442   -1.7604   -0.1075 C.2     1  UNL1        0.3108
     12 O           0.8685   -2.7846   -0.3812 O.2     1  UNL1       -0.2519
     13 N           0.8358   -0.5545    0.1425 N.am    1  UNL1       -0.2690
     14 C          -0.5831   -0.4714    0.0939 C.ar    1  UNL1        0.0348
     15 C          -1.3181   -0.7063    1.2364 C.ar    1  UNL1       -0.0398
     16 C          -2.6996   -0.6458    1.2755 C.ar    1  UNL1       -0.0508
     17 C          -3.3594   -0.3274    0.0783 C.ar    1  UNL1        0.0012
     18 C          -4.8082   -0.3339    0.1086 C.ar    1  UNL1        0.0836
     19 N          -5.4549   -1.4650    0.5122 N.ar    1  UNL1       -0.2347
     20 C          -6.7783   -1.5838    0.5850 C.ar    1  UNL1        0.1189
     21 N          -7.5163   -0.5244    0.2398 N.ar    1  UNL1       -0.2179
     22 C          -6.9532    0.6185   -0.1640 C.ar    1  UNL1        0.1422
     23 N          -7.4747    1.7925   -0.5336 N.ar    1  UNL1       -0.3455
     24 C          -6.5156    2.6613   -0.8382 C.ar    1  UNL1        0.0071
     25 C          -5.2950    2.0228   -0.6592 C.ar    1  UNL1       -0.0218
     26 C          -3.9816    2.6684   -0.8602 C.3     1  UNL1       -0.0376
     27 C          -5.5705    0.7507   -0.2421 C.ar    1  UNL1        0.0475
     28 C          -2.6423   -0.0912   -1.0679 C.ar    1  UNL1       -0.0508
     29 C          -1.2715   -0.1601   -1.0686 C.ar    1  UNL1       -0.0398
     30 C           4.0772    0.2049   -0.7482 C.ar    1  UNL1       -0.0368
     31 C           4.7691    1.3630   -0.4678 C.ar    1  UNL1       -0.0182
     32 H           6.8636    3.1597   -0.6464 H       1  UNL1        0.0660
     33 H           6.7181    4.6226    0.3657 H       1  UNL1        0.0660
     34 H           5.2962    3.9971   -0.6015 H       1  UNL1        0.0660
     35 H           4.9273    1.1353    2.8371 H       1  UNL1        0.0655
     36 H           3.6796   -0.9592    2.3705 H       1  UNL1        0.0637
     37 H           4.6428   -2.9048   -0.8152 H       1  UNL1        0.0492
     38 H           3.0699   -3.7086   -0.9672 H       1  UNL1        0.0492
     39 H           4.5271   -3.2103    1.6285 H       1  UNL1        0.0573
     40 H           2.9348   -4.1084    1.4410 H       1  UNL1        0.0573
     41 H           3.9540   -5.7509    0.6095 H       1  UNL1        0.2095
     42 H           1.4333    0.2855    0.3691 H       1  UNL1        0.1564
     43 H          -0.8127   -0.9523    2.1619 H       1  UNL1        0.0636
     44 H          -3.2809   -0.8289    2.1675 H       1  UNL1        0.0625
     45 H          -7.2934   -2.4782    0.9040 H       1  UNL1        0.1048
     46 H          -8.5061    1.9819   -0.5712 H       1  UNL1        0.1668
     47 H          -6.6198    3.6807   -1.1670 H       1  UNL1        0.0810
     48 H          -3.2649    2.4194   -0.0666 H       1  UNL1        0.0278
     49 H          -4.1275    3.7813   -0.7418 H       1  UNL1        0.0278
     50 H          -3.6174    2.4546   -1.8768 H       1  UNL1        0.0278
     51 H          -3.1624    0.1412   -1.9815 H       1  UNL1        0.0625
     52 H          -0.6892    0.0232   -1.9619 H       1  UNL1        0.0636
     53 H           3.8523   -0.0255   -1.7999 H       1  UNL1        0.0637
     54 H           5.0808    2.0277   -1.2810 H       1  UNL1        0.0655
@<TRIPOS>BOND
     1     1     2    1
     2     2     3    1
     3     3     4   ar
     4     4     5   ar
     5     5     6   ar
     6     6     7    1
     7     7     8    1
     8     8     9    1
     9     9    10    1
    10     7    11   am
    11    11    12    2
    12    11    13   am
    13    13    14    1
    14    14    15   ar
    15    15    16   ar
    16    16    17   ar
    17    17    18    1
    18    18    19   ar
    19    19    20   ar
    20    20    21   ar
    21    21    22   ar
    22    22    23   ar
    23    23    24   ar
    24    24    25   ar
    25    25    26    1
    26    25    27   ar
    27    17    28   ar
    28    28    29   ar
    29     6    30   ar
    30    30    31   ar
    31    31     3   ar
    32    29    14   ar
    33    27    18   ar
    34    27    22   ar
    35     1    32    1
    36     1    33    1
    37     1    34    1
    38     4    35    1
    39     5    36    1
    40     8    37    1
    41     8    38    1
    42     9    39    1
    43     9    40    1
    44    10    41    1
    45    13    42    1
    46    15    43    1
    47    16    44    1
    48    20    45    1
    49    23    46    1
    50    24    47    1
    51    26    48    1
    52    26    49    1
    53    26    50    1
    54    28    51    1
    55    29    52    1
    56    30    53    1
    57    31    54    1
