@<TRIPOS>MOLECULE
*****
 56 58 0 0 0
SMALL
GASTEIGER

@<TRIPOS>ATOM
      1 C          -6.1500    2.3312   -0.2530 C.3     1  UNL1       -0.0108
      2 C          -6.1246    0.8249   -0.4500 C.3     1  UNL1        0.1651
      3 C          -7.4511    0.2343   -0.0185 C.3     1  UNL1       -0.0108
      4 O          -5.8544    0.4580   -1.7418 O.3     1  UNL1       -0.3465
      5 C          -4.5155    0.0821   -1.8151 C.3     1  UNL1        0.0791
      6 C          -3.9901    0.5475   -0.4777 C.3     1  UNL1        0.1076
      7 C          -2.7386   -0.2088   -0.0705 C.3     1  UNL1        0.1005
      8 C          -2.3916    0.2940    1.3072 C.3     1  UNL1        0.0942
      9 S          -0.9613   -0.4178    2.0181 S.O2    1  UNL1       -0.0012
     10 O          -0.7155    0.2877    3.3395 O.2     1  UNL1       -0.1693
     11 O          -1.0766   -1.8632    2.2997 O.2     1  UNL1       -0.1693
     12 C           0.4260   -0.0652    0.9962 C.ar    1  UNL1        0.0885
     13 C           0.7987   -0.9680    0.0515 C.ar    1  UNL1       -0.0334
     14 C           1.9002   -0.6584   -0.7481 C.ar    1  UNL1       -0.0175
     15 C           2.5676    0.5248   -0.5660 C.ar    1  UNL1        0.1285
     16 O           3.6574    0.7978   -1.3793 O.3     1  UNL1       -0.4560
     17 C           4.9139    0.3681   -0.9236 C.ar    1  UNL1        0.1287
     18 C           5.4007   -0.8719   -1.2384 C.ar    1  UNL1       -0.0159
     19 C           6.6380   -1.2950   -0.7897 C.ar    1  UNL1       -0.0162
     20 C           7.4148   -0.4735   -0.0105 C.ar    1  UNL1        0.1302
     21 O           8.6593   -0.8726    0.4529 O.3     1  UNL1       -0.4057
     22 C           9.8200   -0.6006   -0.3467 C.3     1  UNL1        0.5752
     23 F           9.7318   -1.2054   -1.5809 F       1  UNL1       -0.1328
     24 F           9.8391    0.7947   -0.4769 F       1  UNL1       -0.1328
     25 F          10.9662   -0.9342    0.3372 F       1  UNL1       -0.1328
     26 C           6.9106    0.7859    0.3040 C.ar    1  UNL1       -0.0162
     27 C           5.6861    1.2071   -0.1388 C.ar    1  UNL1       -0.0159
     28 C           2.1708    1.4115    0.3902 C.ar    1  UNL1       -0.0175
     29 C           1.0965    1.1281    1.1823 C.ar    1  UNL1       -0.0334
     30 N          -2.9735   -1.6424   -0.0739 N.am    1  UNL1       -0.1791
     31 O          -2.2696   -2.4671   -0.8818 O.3     1  UNL1       -0.2923
     32 C          -3.9551   -2.2242    0.7663 C.2     1  UNL1        0.2254
     33 O          -4.1526   -3.4615    0.7507 O.2     1  UNL1       -0.2772
     34 O          -5.0702    0.3361    0.3497 O.3     1  UNL1       -0.3417
     35 H          -5.7775    2.8757   -1.1449 H       1  UNL1        0.0281
     36 H          -7.1759    2.6856    0.0127 H       1  UNL1        0.0281
     37 H          -5.5002    2.6485    0.5990 H       1  UNL1        0.0281
     38 H          -7.6892   -0.6322   -0.6582 H       1  UNL1        0.0281
     39 H          -8.2216    1.0121   -0.2425 H       1  UNL1        0.0281
     40 H          -7.4345   -0.0185    1.0595 H       1  UNL1        0.0281
     41 H          -4.5147   -1.0382   -1.8430 H       1  UNL1        0.0587
     42 H          -3.9801    0.5231   -2.6655 H       1  UNL1        0.0587
     43 H          -3.8106    1.6308   -0.5591 H       1  UNL1        0.0640
     44 H          -1.9185    0.0027   -0.7867 H       1  UNL1        0.0568
     45 H          -3.3079    0.1438    1.9282 H       1  UNL1        0.0524
     46 H          -2.3154    1.4109    1.2123 H       1  UNL1        0.0524
     47 H           0.2645   -1.8843   -0.0687 H       1  UNL1        0.0638
     48 H           2.1791   -1.3976   -1.4978 H       1  UNL1        0.0655
     49 H           4.7922   -1.5349   -1.8577 H       1  UNL1        0.0655
     50 H           7.0302   -2.2843   -1.0388 H       1  UNL1        0.0655
     51 H           7.5457    1.4195    0.9237 H       1  UNL1        0.0655
     52 H           5.3140    2.1920    0.1187 H       1  UNL1        0.0655
     53 H           2.7022    2.3436    0.5285 H       1  UNL1        0.0655
     54 H           0.7714    1.8226    1.9444 H       1  UNL1        0.0638
     55 H          -2.5935   -2.4762   -1.8117 H       1  UNL1        0.2417
     56 H          -4.5672   -1.6290    1.4489 H       1  UNL1        0.1274
@<TRIPOS>BOND
     1     1     2    1
     2     2     3    1
     3     2     4    1
     4     4     5    1
     5     5     6    1
     6     6     7    1
     7     7     8    1
     8     8     9    1
     9     9    10    2
    10     9    11    2
    11     9    12    1
    12    12    13   ar
    13    13    14   ar
    14    14    15   ar
    15    15    16    1
    16    16    17    1
    17    17    18   ar
    18    18    19   ar
    19    19    20   ar
    20    20    21    1
    21    21    22    1
    22    22    23    1
    23    22    24    1
    24    22    25    1
    25    20    26   ar
    26    26    27   ar
    27    15    28   ar
    28    28    29   ar
    29     7    30    1
    30    30    31    1
    31    30    32   am
    32    32    33    2
    33     6    34    1
    34    34     2    1
    35    29    12   ar
    36    27    17   ar
    37     1    35    1
    38     1    36    1
    39     1    37    1
    40     3    38    1
    41     3    39    1
    42     3    40    1
    43     5    41    1
    44     5    42    1
    45     6    43    1
    46     7    44    1
    47     8    45    1
    48     8    46    1
    49    13    47    1
    50    14    48    1
    51    18    49    1
    52    19    50    1
    53    26    51    1
    54    27    52    1
    55    28    53    1
    56    29    54    1
    57    31    55    1
    58    32    56    1
