
     RDKit          3D

 56 58  0  0  0  0  0  0  0  0999 V2000
   -6.1500    2.3312   -0.2530 C   0  0  0  0  0  0  0  0  0  0  0  0
   -6.1246    0.8249   -0.4500 C   0  0  0  0  0  0  0  0  0  0  0  0
   -7.4511    0.2343   -0.0185 C   0  0  0  0  0  0  0  0  0  0  0  0
   -5.8544    0.4580   -1.7418 O   0  0  0  0  0  0  0  0  0  0  0  0
   -4.5155    0.0821   -1.8151 C   0  0  0  0  0  0  0  0  0  0  0  0
   -3.9901    0.5475   -0.4777 C   0  0  2  0  0  0  0  0  0  0  0  0
   -2.7386   -0.2088   -0.0705 C   0  0  1  0  0  0  0  0  0  0  0  0
   -2.3916    0.2940    1.3072 C   0  0  0  0  0  0  0  0  0  0  0  0
   -0.9613   -0.4178    2.0181 S   0  0  0  0  0  6  0  0  0  0  0  0
   -0.7155    0.2877    3.3395 O   0  0  0  0  0  0  0  0  0  0  0  0
   -1.0766   -1.8632    2.2997 O   0  0  0  0  0  0  0  0  0  0  0  0
    0.4260   -0.0652    0.9962 C   0  0  0  0  0  0  0  0  0  0  0  0
    0.7987   -0.9680    0.0515 C   0  0  0  0  0  0  0  0  0  0  0  0
    1.9002   -0.6584   -0.7481 C   0  0  0  0  0  0  0  0  0  0  0  0
    2.5676    0.5248   -0.5660 C   0  0  0  0  0  0  0  0  0  0  0  0
    3.6574    0.7978   -1.3793 O   0  0  0  0  0  0  0  0  0  0  0  0
    4.9139    0.3681   -0.9236 C   0  0  0  0  0  0  0  0  0  0  0  0
    5.4007   -0.8719   -1.2384 C   0  0  0  0  0  0  0  0  0  0  0  0
    6.6380   -1.2950   -0.7897 C   0  0  0  0  0  0  0  0  0  0  0  0
    7.4148   -0.4735   -0.0105 C   0  0  0  0  0  0  0  0  0  0  0  0
    8.6593   -0.8726    0.4529 O   0  0  0  0  0  0  0  0  0  0  0  0
    9.8200   -0.6006   -0.3467 C   0  0  0  0  0  0  0  0  0  0  0  0
    9.7318   -1.2054   -1.5809 F   0  0  0  0  0  0  0  0  0  0  0  0
    9.8391    0.7947   -0.4769 F   0  0  0  0  0  0  0  0  0  0  0  0
   10.9662   -0.9342    0.3372 F   0  0  0  0  0  0  0  0  0  0  0  0
    6.9106    0.7859    0.3040 C   0  0  0  0  0  0  0  0  0  0  0  0
    5.6861    1.2071   -0.1388 C   0  0  0  0  0  0  0  0  0  0  0  0
    2.1708    1.4115    0.3902 C   0  0  0  0  0  0  0  0  0  0  0  0
    1.0965    1.1281    1.1823 C   0  0  0  0  0  0  0  0  0  0  0  0
   -2.9735   -1.6424   -0.0739 N   0  0  0  0  0  0  0  0  0  0  0  0
   -2.2696   -2.4671   -0.8818 O   0  0  0  0  0  0  0  0  0  0  0  0
   -3.9551   -2.2242    0.7663 C   0  0  0  0  0  0  0  0  0  0  0  0
   -4.1526   -3.4615    0.7507 O   0  0  0  0  0  0  0  0  0  0  0  0
   -5.0702    0.3361    0.3497 O   0  0  0  0  0  0  0  0  0  0  0  0
   -5.7775    2.8757   -1.1449 H   0  0  0  0  0  0  0  0  0  0  0  0
   -7.1759    2.6856    0.0127 H   0  0  0  0  0  0  0  0  0  0  0  0
   -5.5002    2.6485    0.5990 H   0  0  0  0  0  0  0  0  0  0  0  0
   -7.6892   -0.6322   -0.6582 H   0  0  0  0  0  0  0  0  0  0  0  0
   -8.2216    1.0121   -0.2425 H   0  0  0  0  0  0  0  0  0  0  0  0
   -7.4345   -0.0185    1.0595 H   0  0  0  0  0  0  0  0  0  0  0  0
   -4.5147   -1.0382   -1.8430 H   0  0  0  0  0  0  0  0  0  0  0  0
   -3.9801    0.5231   -2.6655 H   0  0  0  0  0  0  0  0  0  0  0  0
   -3.8106    1.6308   -0.5591 H   0  0  0  0  0  0  0  0  0  0  0  0
   -1.9185    0.0027   -0.7867 H   0  0  0  0  0  0  0  0  0  0  0  0
   -3.3079    0.1438    1.9282 H   0  0  0  0  0  0  0  0  0  0  0  0
   -2.3154    1.4109    1.2123 H   0  0  0  0  0  0  0  0  0  0  0  0
    0.2645   -1.8843   -0.0687 H   0  0  0  0  0  0  0  0  0  0  0  0
    2.1791   -1.3976   -1.4978 H   0  0  0  0  0  0  0  0  0  0  0  0
    4.7922   -1.5349   -1.8577 H   0  0  0  0  0  0  0  0  0  0  0  0
    7.0302   -2.2843   -1.0388 H   0  0  0  0  0  0  0  0  0  0  0  0
    7.5457    1.4195    0.9237 H   0  0  0  0  0  0  0  0  0  0  0  0
    5.3140    2.1920    0.1187 H   0  0  0  0  0  0  0  0  0  0  0  0
    2.7022    2.3436    0.5285 H   0  0  0  0  0  0  0  0  0  0  0  0
    0.7714    1.8226    1.9444 H   0  0  0  0  0  0  0  0  0  0  0  0
   -2.5935   -2.4762   -1.8117 H   0  0  0  0  0  0  0  0  0  0  0  0
   -4.5672   -1.6290    1.4489 H   0  0  0  0  0  0  0  0  0  0  0  0
  1  2  1  0
  2  3  1  0
  2  4  1  0
  4  5  1  0
  5  6  1  0
  6  7  1  0
  7  8  1  0
  8  9  1  0
  9 10  2  0
  9 11  2  0
  9 12  1  0
 12 13  2  0
 13 14  1  0
 14 15  2  0
 15 16  1  0
 16 17  1  0
 17 18  2  0
 18 19  1  0
 19 20  2  0
 20 21  1  0
 21 22  1  0
 22 23  1  0
 22 24  1  0
 22 25  1  0
 20 26  1  0
 26 27  2  0
 15 28  1  0
 28 29  2  0
  7 30  1  0
 30 31  1  0
 30 32  1  0
 32 33  2  0
  6 34  1  0
 34  2  1  0
 29 12  1  0
 27 17  1  0
  1 35  1  0
  1 36  1  0
  1 37  1  0
  3 38  1  0
  3 39  1  0
  3 40  1  0
  5 41  1  0
  5 42  1  0
  6 43  1  6
  7 44  1  6
  8 45  1  0
  8 46  1  0
 13 47  1  0
 14 48  1  0
 18 49  1  0
 19 50  1  0
 26 51  1  0
 27 52  1  0
 28 53  1  0
 29 54  1  0
 31 55  1  0
 32 56  1  0
M  END
$$$$
