@<TRIPOS>MOLECULE
*****
 40 43 0 0 0
SMALL
GASTEIGER

@<TRIPOS>ATOM
      1 C          -0.9899    1.9557    1.8084 C.3     1  UNL1       -0.0239
      2 C          -1.4556    0.7036    1.1166 C.ar    1  UNL1        0.0209
      3 C          -0.8764   -0.5446    1.1910 C.ar    1  UNL1       -0.0129
      4 C           0.3317   -0.9423    1.9608 C.3     1  UNL1        0.0235
      5 C           1.5872   -0.5214    1.3426 C.ar    1  UNL1        0.0841
      6 N           2.3374   -1.0924    0.5155 N.ar    1  UNL1       -0.2406
      7 C           3.4392   -0.5989    0.0409 C.ar    1  UNL1        0.1192
      8 C           4.3250   -1.1824   -0.8863 C.ar    1  UNL1        0.1849
      9 F           4.0769   -2.4173   -1.4041 F       1  UNL1       -0.2002
     10 C           5.4442   -0.5302   -1.2854 C.ar    1  UNL1        0.1633
     11 F           6.3265   -1.0776   -2.1905 F       1  UNL1       -0.2023
     12 C           5.7982    0.7169   -0.8331 C.ar    1  UNL1        0.0129
     13 C           4.9470    1.3100    0.0756 C.ar    1  UNL1        0.1420
     14 F           5.1850    2.5517    0.6041 F       1  UNL1       -0.2042
     15 C           3.8158    0.6664    0.4879 C.ar    1  UNL1        0.0773
     16 S           2.4818    1.0294    1.5962 S.2     1  UNL1       -0.0688
     17 C          -1.6665   -1.3519    0.3863 C.ar    1  UNL1        0.0037
     18 C          -1.5593   -2.6912    0.0886 C.ar    1  UNL1       -0.0523
     19 C          -2.4842   -3.2757   -0.7533 C.ar    1  UNL1       -0.0611
     20 C          -3.5114   -2.5161   -1.2927 C.ar    1  UNL1       -0.0598
     21 C          -3.6465   -1.1736   -1.0144 C.ar    1  UNL1       -0.0376
     22 C          -2.6971   -0.6156   -0.1620 C.ar    1  UNL1        0.0500
     23 N          -2.5402    0.6420    0.3052 N.ar    1  UNL1       -0.3331
     24 C          -3.3945    1.7414   -0.0119 C.3     1  UNL1        0.1204
     25 C          -2.9665    2.4934   -1.2023 C.2     1  UNL1        0.3247
     26 O          -3.6866    3.4944   -1.5356 O.2     1  UNL1       -0.2490
     27 O          -1.8769    2.2310   -1.9888 O.3     1  UNL1       -0.4794
     28 H          -0.5375    2.6687    1.0799 H       1  UNL1        0.0292
     29 H          -0.2829    1.6702    2.6067 H       1  UNL1        0.0292
     30 H          -1.8831    2.4126    2.3183 H       1  UNL1        0.0292
     31 H           0.3771   -2.0246    2.1439 H       1  UNL1        0.0383
     32 H           0.2971   -0.4694    2.9868 H       1  UNL1        0.0383
     33 H           6.6891    1.2355   -1.1511 H       1  UNL1        0.0676
     34 H          -0.7384   -3.2415    0.5354 H       1  UNL1        0.0624
     35 H          -2.4245   -4.3130   -1.0013 H       1  UNL1        0.0618
     36 H          -4.2328   -2.9836   -1.9526 H       1  UNL1        0.0618
     37 H          -4.4276   -0.5429   -1.4094 H       1  UNL1        0.0638
     38 H          -4.4312    1.3521   -0.1468 H       1  UNL1        0.0607
     39 H          -3.4810    2.4691    0.8341 H       1  UNL1        0.0607
     40 H          -1.6684    2.7621   -2.8455 H       1  UNL1        0.2951
@<TRIPOS>BOND
     1     1     2    1
     2     2     3   ar
     3     3     4    1
     4     4     5    1
     5     5     6   ar
     6     6     7   ar
     7     7     8   ar
     8     8     9    1
     9     8    10   ar
    10    10    11    1
    11    10    12   ar
    12    12    13   ar
    13    13    14    1
    14    13    15   ar
    15    15    16   ar
    16     3    17   ar
    17    17    18   ar
    18    18    19   ar
    19    19    20   ar
    20    20    21   ar
    21    21    22   ar
    22    22    23   ar
    23    23    24    1
    24    24    25    1
    25    25    26    2
    26    25    27    1
    27    23     2   ar
    28    16     5   ar
    29    22    17   ar
    30    15     7   ar
    31     1    28    1
    32     1    29    1
    33     1    30    1
    34     4    31    1
    35     4    32    1
    36    12    33    1
    37    18    34    1
    38    19    35    1
    39    20    36    1
    40    21    37    1
    41    24    38    1
    42    24    39    1
    43    27    40    1
