
     RDKit          3D

 48 51  0  0  0  0  0  0  0  0999 V2000
   -2.5539   -5.3436   -1.9242 N   0  0  0  0  0  0  0  0  0  0  0  0
   -2.6385   -3.9717   -1.5893 C   0  0  0  0  0  0  0  0  0  0  0  0
   -3.6980   -3.3776   -1.8264 O   0  0  0  0  0  0  0  0  0  0  0  0
   -1.5100   -3.3049   -0.9897 C   0  0  0  0  0  0  0  0  0  0  0  0
   -0.3336   -4.0085   -0.7388 C   0  0  0  0  0  0  0  0  0  0  0  0
    0.6800   -3.3691   -0.1899 N   0  0  0  0  0  0  0  0  0  0  0  0
    0.6668   -2.0517    0.1569 C   0  0  0  0  0  0  0  0  0  0  0  0
    1.7974   -1.4603    0.7715 N   0  0  0  0  0  0  0  0  0  0  0  0
    1.8746   -0.0389    1.0814 C   0  0  1  0  0  0  0  0  0  0  0  0
    2.9830    0.2453    2.0578 C   0  0  0  0  0  0  0  0  0  0  0  0
    4.3185    0.5038    1.4639 C   0  0  0  0  0  0  0  0  0  0  0  0
    4.2750    1.5897    0.4036 C   0  0  2  0  0  0  0  0  0  0  0  0
    3.8573    2.8610    0.9250 N   0  0  0  0  0  0  0  0  0  0  0  0
    3.3227    1.1400   -0.6466 C   0  0  0  0  0  0  0  0  0  0  0  0
    1.9598    0.7587   -0.1931 C   0  0  0  0  0  0  0  0  0  0  0  0
   -0.5029   -1.3810   -0.0996 C   0  0  0  0  0  0  0  0  0  0  0  0
   -0.8688   -0.1067    0.1181 N   0  0  0  0  0  0  0  0  0  0  0  0
   -2.1198    0.1356   -0.2758 C   0  0  0  0  0  0  0  0  0  0  0  0
   -2.8440    1.3928   -0.1951 C   0  0  0  0  0  0  0  0  0  0  0  0
   -4.1337    1.4598   -0.6518 C   0  0  0  0  0  0  0  0  0  0  0  0
   -4.8289    2.6712   -0.5732 C   0  0  0  0  0  0  0  0  0  0  0  0
   -4.2128    3.7814   -0.0392 C   0  0  0  0  0  0  0  0  0  0  0  0
   -5.0930    5.2788    0.0503 Cl  0  0  0  0  0  0  0  0  0  0  0  0
   -2.9049    3.7133    0.4238 C   0  0  0  0  0  0  0  0  0  0  0  0
   -2.2307    2.4966    0.3359 C   0  0  0  0  0  0  0  0  0  0  0  0
   -2.5679   -1.0762   -0.7759 C   0  0  0  0  0  0  0  0  0  0  0  0
   -1.5886   -1.9809   -0.6648 N   0  0  0  0  0  0  0  0  0  0  0  0
   -2.5191   -6.0286   -1.1286 H   0  0  0  0  0  0  0  0  0  0  0  0
   -2.5249   -5.7029   -2.9067 H   0  0  0  0  0  0  0  0  0  0  0  0
   -0.3361   -5.0534   -1.0189 H   0  0  0  0  0  0  0  0  0  0  0  0
    2.6002   -2.0961    1.0035 H   0  0  0  0  0  0  0  0  0  0  0  0
    0.9304    0.2244    1.6044 H   0  0  0  0  0  0  0  0  0  0  0  0
    2.7097    1.1113    2.6968 H   0  0  0  0  0  0  0  0  0  0  0  0
    3.0659   -0.6241    2.7412 H   0  0  0  0  0  0  0  0  0  0  0  0
    4.7499   -0.3997    0.9642 H   0  0  0  0  0  0  0  0  0  0  0  0
    5.0095    0.8015    2.2495 H   0  0  0  0  0  0  0  0  0  0  0  0
    5.2802    1.6472   -0.0327 H   0  0  0  0  0  0  0  0  0  0  0  0
    3.1085    2.8090    1.6257 H   0  0  0  0  0  0  0  0  0  0  0  0
    4.6657    3.4538    1.2100 H   0  0  0  0  0  0  0  0  0  0  0  0
    3.7918    0.3374   -1.2628 H   0  0  0  0  0  0  0  0  0  0  0  0
    3.1986    2.0034   -1.3596 H   0  0  0  0  0  0  0  0  0  0  0  0
    1.2857    1.6418   -0.1606 H   0  0  0  0  0  0  0  0  0  0  0  0
    1.5579    0.0830   -1.0177 H   0  0  0  0  0  0  0  0  0  0  0  0
   -4.6663    0.6218   -1.0798 H   0  0  0  0  0  0  0  0  0  0  0  0
   -5.8423    2.7685   -0.9197 H   0  0  0  0  0  0  0  0  0  0  0  0
   -2.3988    4.5658    0.8460 H   0  0  0  0  0  0  0  0  0  0  0  0
   -1.2135    2.4764    0.7051 H   0  0  0  0  0  0  0  0  0  0  0  0
   -3.5579   -1.1974   -1.1744 H   0  0  0  0  0  0  0  0  0  0  0  0
  1  2  1  0
  2  3  2  0
  2  4  1  0
  4  5  2  0
  5  6  1  0
  6  7  2  0
  7  8  1  0
  8  9  1  0
  9 10  1  0
 10 11  1  0
 11 12  1  0
 12 13  1  0
 12 14  1  0
 14 15  1  0
  7 16  1  0
 16 17  2  0
 17 18  1  0
 18 19  1  0
 19 20  2  0
 20 21  1  0
 21 22  2  0
 22 23  1  0
 22 24  1  0
 24 25  2  0
 18 26  2  0
 26 27  1  0
 27  4  1  0
 15  9  1  0
 27 16  1  0
 25 19  1  0
  1 28  1  0
  1 29  1  0
  5 30  1  0
  8 31  1  0
  9 32  1  1
 10 33  1  0
 10 34  1  0
 11 35  1  0
 11 36  1  0
 12 37  1  6
 13 38  1  0
 13 39  1  0
 14 40  1  0
 14 41  1  0
 15 42  1  0
 15 43  1  0
 20 44  1  0
 21 45  1  0
 24 46  1  0
 25 47  1  0
 26 48  1  0
M  END
$$$$
