@<TRIPOS>MOLECULE
*****
 48 51 0 0 0
SMALL
GASTEIGER

@<TRIPOS>ATOM
      1 N          -2.5539   -5.3436   -1.9242 N.am    1  UNL1       -0.3241
      2 C          -2.6385   -3.9717   -1.5893 C.2     1  UNL1        0.2599
      3 O          -3.6980   -3.3776   -1.8264 O.2     1  UNL1       -0.2687
      4 C          -1.5100   -3.3049   -0.9897 C.ar    1  UNL1        0.1281
      5 C          -0.3336   -4.0085   -0.7388 C.ar    1  UNL1        0.0588
      6 N           0.6800   -3.3691   -0.1899 N.ar    1  UNL1       -0.2346
      7 C           0.6668   -2.0517    0.1569 C.ar    1  UNL1        0.1623
      8 N           1.7974   -1.4603    0.7715 N.pl3   1  UNL1       -0.3233
      9 C           1.8746   -0.0389    1.0814 C.3     1  UNL1        0.0222
     10 C           2.9830    0.2453    2.0578 C.3     1  UNL1       -0.0331
     11 C           4.3185    0.5038    1.4639 C.3     1  UNL1       -0.0361
     12 C           4.2750    1.5897    0.4036 C.3     1  UNL1        0.0050
     13 N           3.8573    2.8610    0.9250 N.3     1  UNL1       -0.3272
     14 C           3.3227    1.1400   -0.6466 C.3     1  UNL1       -0.0361
     15 C           1.9598    0.7587   -0.1931 C.3     1  UNL1       -0.0331
     16 C          -0.5029   -1.3810   -0.0996 C.ar    1  UNL1        0.1792
     17 N          -0.8688   -0.1067    0.1181 N.ar    1  UNL1       -0.2245
     18 C          -2.1198    0.1356   -0.2758 C.ar    1  UNL1        0.0899
     19 C          -2.8440    1.3928   -0.1951 C.ar    1  UNL1        0.0019
     20 C          -4.1337    1.4598   -0.6518 C.ar    1  UNL1       -0.0511
     21 C          -4.8289    2.6712   -0.5732 C.ar    1  UNL1       -0.0428
     22 C          -4.2128    3.7814   -0.0392 C.ar    1  UNL1        0.0410
     23 CL         -5.0930    5.2788    0.0503 Cl      1  UNL1       -0.0835
     24 C          -2.9049    3.7133    0.4238 C.ar    1  UNL1       -0.0428
     25 C          -2.2307    2.4966    0.3359 C.ar    1  UNL1       -0.0511
     26 C          -2.5679   -1.0762   -0.7759 C.ar    1  UNL1        0.0380
     27 N          -1.5886   -1.9809   -0.6648 N.ar    1  UNL1       -0.2907
     28 H          -2.5191   -6.0286   -1.1286 H       1  UNL1        0.1453
     29 H          -2.5249   -5.7029   -2.9067 H       1  UNL1        0.1453
     30 H          -0.3361   -5.0534   -1.0189 H       1  UNL1        0.0853
     31 H           2.6002   -2.0961    1.0035 H       1  UNL1        0.1478
     32 H           0.9304    0.2244    1.6044 H       1  UNL1        0.0498
     33 H           2.7097    1.1113    2.6968 H       1  UNL1        0.0284
     34 H           3.0659   -0.6241    2.7412 H       1  UNL1        0.0284
     35 H           4.7499   -0.3997    0.9642 H       1  UNL1        0.0281
     36 H           5.0095    0.8015    2.2495 H       1  UNL1        0.0281
     37 H           5.2802    1.6472   -0.0327 H       1  UNL1        0.0458
     38 H           3.1085    2.8090    1.6257 H       1  UNL1        0.1185
     39 H           4.6657    3.4538    1.2100 H       1  UNL1        0.1185
     40 H           3.7918    0.3374   -1.2628 H       1  UNL1        0.0281
     41 H           3.1986    2.0034   -1.3596 H       1  UNL1        0.0281
     42 H           1.2857    1.6418   -0.1606 H       1  UNL1        0.0284
     43 H           1.5579    0.0830   -1.0177 H       1  UNL1        0.0284
     44 H          -4.6663    0.6218   -1.0798 H       1  UNL1        0.0625
     45 H          -5.8423    2.7685   -0.9197 H       1  UNL1        0.0632
     46 H          -2.3988    4.5658    0.8460 H       1  UNL1        0.0632
     47 H          -1.2135    2.4764    0.7051 H       1  UNL1        0.0625
     48 H          -3.5579   -1.1974   -1.1744 H       1  UNL1        0.0835
@<TRIPOS>BOND
     1     1     2   am
     2     2     3    2
     3     2     4    1
     4     4     5   ar
     5     5     6   ar
     6     6     7   ar
     7     7     8    1
     8     8     9    1
     9     9    10    1
    10    10    11    1
    11    11    12    1
    12    12    13    1
    13    12    14    1
    14    14    15    1
    15     7    16   ar
    16    16    17   ar
    17    17    18   ar
    18    18    19    1
    19    19    20   ar
    20    20    21   ar
    21    21    22   ar
    22    22    23    1
    23    22    24   ar
    24    24    25   ar
    25    18    26   ar
    26    26    27   ar
    27    27     4   ar
    28    15     9    1
    29    27    16   ar
    30    25    19   ar
    31     1    28    1
    32     1    29    1
    33     5    30    1
    34     8    31    1
    35     9    32    1
    36    10    33    1
    37    10    34    1
    38    11    35    1
    39    11    36    1
    40    12    37    1
    41    13    38    1
    42    13    39    1
    43    14    40    1
    44    14    41    1
    45    15    42    1
    46    15    43    1
    47    20    44    1
    48    21    45    1
    49    24    46    1
    50    25    47    1
    51    26    48    1
