
     RDKit          3D

 34 35  0  0  0  0  0  0  0  0999 V2000
   -6.4466    0.2725   -0.4874 N   0  0  0  0  0  0  0  0  0  0  0  0
   -5.3529   -1.0022   -0.8814 S   0  0  0  0  0  0  0  0  0  0  0  0
   -5.6814   -2.2005   -0.0335 O   0  0  0  0  0  0  0  0  0  0  0  0
   -5.4440   -1.3253   -2.3357 O   0  0  0  0  0  0  0  0  0  0  0  0
   -3.7067   -0.5299   -0.4956 C   0  0  0  0  0  0  0  0  0  0  0  0
   -2.9381    0.1019   -1.4418 C   0  0  0  0  0  0  0  0  0  0  0  0
   -1.6252    0.4926   -1.1727 C   0  0  0  0  0  0  0  0  0  0  0  0
   -1.0599    0.2530    0.0605 C   0  0  0  0  0  0  0  0  0  0  0  0
   -1.8656   -0.3827    0.9799 C   0  0  0  0  0  0  0  0  0  0  0  0
   -3.1466   -0.7715    0.7377 C   0  0  0  0  0  0  0  0  0  0  0  0
    0.3155    0.6837    0.2834 C   0  0  0  0  0  0  0  0  0  0  0  0
    0.8895    1.2521   -0.6807 O   0  0  0  0  0  0  0  0  0  0  0  0
    1.0394    0.5084    1.4936 N   0  0  0  0  0  0  0  0  0  0  0  0
    2.3973    0.9445    1.6842 C   0  0  0  0  0  0  0  0  0  0  0  0
    3.3693    0.3430    0.7661 C   0  0  0  0  0  0  0  0  0  0  0  0
    3.8821   -0.9118    0.8103 C   0  0  0  0  0  0  0  0  0  0  0  0
    3.4568   -1.7102    1.8107 F   0  0  0  0  0  0  0  0  0  0  0  0
    4.7948   -1.3490   -0.1235 C   0  0  0  0  0  0  0  0  0  0  0  0
    5.2493   -0.5453   -1.1643 C   0  0  0  0  0  0  0  0  0  0  0  0
    6.1364   -0.9084   -2.1072 F   0  0  0  0  0  0  0  0  0  0  0  0
    4.7347    0.7396   -1.2230 C   0  0  0  0  0  0  0  0  0  0  0  0
    3.8190    1.1609   -0.2765 C   0  0  0  0  0  0  0  0  0  0  0  0
   -6.5203    0.3937    0.5439 H   0  0  0  0  0  0  0  0  0  0  0  0
   -5.9926    1.1578   -0.8400 H   0  0  0  0  0  0  0  0  0  0  0  0
   -3.3949    0.2841   -2.4066 H   0  0  0  0  0  0  0  0  0  0  0  0
   -1.1327    0.9737   -1.9888 H   0  0  0  0  0  0  0  0  0  0  0  0
   -1.4390   -0.5792    1.9535 H   0  0  0  0  0  0  0  0  0  0  0  0
   -3.7441   -1.2685    1.4898 H   0  0  0  0  0  0  0  0  0  0  0  0
    0.4836    0.0265    2.2419 H   0  0  0  0  0  0  0  0  0  0  0  0
    2.4925    2.0553    1.7175 H   0  0  0  0  0  0  0  0  0  0  0  0
    2.6991    0.6211    2.7174 H   0  0  0  0  0  0  0  0  0  0  0  0
    5.2103   -2.3572   -0.0926 H   0  0  0  0  0  0  0  0  0  0  0  0
    5.0561    1.4098   -2.0165 H   0  0  0  0  0  0  0  0  0  0  0  0
    3.4649    2.1675   -0.3854 H   0  0  0  0  0  0  0  0  0  0  0  0
  1  2  1  0
  2  3  2  0
  2  4  2  0
  2  5  1  0
  5  6  2  0
  6  7  1  0
  7  8  2  0
  8  9  1  0
  9 10  2  0
  8 11  1  0
 11 12  2  0
 11 13  1  0
 13 14  1  0
 14 15  1  0
 15 16  2  0
 16 17  1  0
 16 18  1  0
 18 19  2  0
 19 20  1  0
 19 21  1  0
 21 22  2  0
 10  5  1  0
 22 15  1  0
  1 23  1  0
  1 24  1  0
  6 25  1  0
  7 26  1  0
  9 27  1  0
 10 28  1  0
 13 29  1  0
 14 30  1  0
 14 31  1  0
 18 32  1  0
 21 33  1  0
 22 34  1  0
M  END
$$$$
