
     RDKit          3D

 43 45  0  0  0  0  0  0  0  0999 V2000
   -1.2547   -2.7403   -0.8781 C   0  0  0  0  0  0  0  0  0  0  0  0
   -2.1015   -1.6653   -0.2933 C   0  0  2  0  0  0  0  0  0  0  0  0
   -2.8588   -0.8999   -1.3962 C   0  0  0  0  0  0  0  0  0  0  0  0
   -2.8946    0.5607   -0.9060 C   0  0  0  0  0  0  0  0  0  0  0  0
   -2.4665    0.3708    0.5066 C   0  0  2  0  0  0  0  0  0  0  0  0
   -2.1443    1.5743    1.2962 C   0  0  1  0  0  0  0  0  0  0  0  0
   -1.1841    2.4157    0.7681 O   0  0  0  0  0  0  0  0  0  0  0  0
   -3.3935    2.4128    1.4677 C   0  0  0  0  0  0  0  0  0  0  0  0
   -4.3944    1.7322    2.1081 F   0  0  0  0  0  0  0  0  0  0  0  0
   -3.8364    2.7828    0.2186 F   0  0  0  0  0  0  0  0  0  0  0  0
   -3.0548    3.5609    2.2102 F   0  0  0  0  0  0  0  0  0  0  0  0
   -1.3359   -0.5495    0.2938 N   0  0  0  0  0  0  0  0  0  0  0  0
    0.0557   -0.6716    0.4301 C   0  0  0  0  0  0  0  0  0  0  0  0
    1.0625    0.1774    0.0332 C   0  0  0  0  0  0  0  0  0  0  0  0
    2.4056   -0.0147    0.2426 C   0  0  0  0  0  0  0  0  0  0  0  0
    2.7374   -1.1720    0.9126 C   0  0  0  0  0  0  0  0  0  0  0  0
    4.0470   -1.3997    1.1393 N   0  0  0  0  0  0  0  0  0  0  0  0
    5.0002   -0.5451    0.7359 C   0  0  0  0  0  0  0  0  0  0  0  0
    6.2236   -0.8102    0.9769 O   0  0  0  0  0  0  0  0  0  0  0  0
    4.6278    0.6129    0.0624 C   0  0  0  0  0  0  0  0  0  0  0  0
    3.3072    0.9231   -0.2111 C   0  0  0  0  0  0  0  0  0  0  0  0
    2.9187    2.1491   -0.9237 C   0  0  0  0  0  0  0  0  0  0  0  0
    4.0864    2.8580   -1.2295 F   0  0  0  0  0  0  0  0  0  0  0  0
    2.3146    1.9068   -2.1281 F   0  0  0  0  0  0  0  0  0  0  0  0
    2.1799    3.0069   -0.1253 F   0  0  0  0  0  0  0  0  0  0  0  0
    1.8239   -2.0968    1.3582 C   0  0  0  0  0  0  0  0  0  0  0  0
    0.4994   -1.8184    1.1026 C   0  0  0  0  0  0  0  0  0  0  0  0
   -0.2307   -2.4685   -1.1305 H   0  0  0  0  0  0  0  0  0  0  0  0
   -1.7537   -3.0264   -1.8574 H   0  0  0  0  0  0  0  0  0  0  0  0
   -1.3606   -3.6777   -0.2716 H   0  0  0  0  0  0  0  0  0  0  0  0
   -2.8107   -2.0198    0.4829 H   0  0  0  0  0  0  0  0  0  0  0  0
   -2.2980   -1.0114   -2.3237 H   0  0  0  0  0  0  0  0  0  0  0  0
   -3.8803   -1.3265   -1.4077 H   0  0  0  0  0  0  0  0  0  0  0  0
   -3.9471    0.9194   -1.0350 H   0  0  0  0  0  0  0  0  0  0  0  0
   -2.2359    1.1700   -1.5267 H   0  0  0  0  0  0  0  0  0  0  0  0
   -3.2770   -0.2558    0.9908 H   0  0  0  0  0  0  0  0  0  0  0  0
   -1.7628    1.2318    2.3006 H   0  0  0  0  0  0  0  0  0  0  0  0
   -1.3112    3.3096    1.1803 H   0  0  0  0  0  0  0  0  0  0  0  0
    0.7523    1.0612   -0.4955 H   0  0  0  0  0  0  0  0  0  0  0  0
    4.3566   -2.2743    1.6501 H   0  0  0  0  0  0  0  0  0  0  0  0
    5.4300    1.2809   -0.2486 H   0  0  0  0  0  0  0  0  0  0  0  0
    2.1446   -2.9866    1.8781 H   0  0  0  0  0  0  0  0  0  0  0  0
   -0.1859   -2.5872    1.4836 H   0  0  0  0  0  0  0  0  0  0  0  0
  1  2  1  0
  2  3  1  0
  3  4  1  0
  4  5  1  0
  5  6  1  0
  6  7  1  0
  6  8  1  0
  8  9  1  0
  8 10  1  0
  8 11  1  0
  5 12  1  0
 12 13  1  0
 13 14  2  0
 14 15  1  0
 15 16  2  0
 16 17  1  0
 17 18  1  0
 18 19  2  0
 18 20  1  0
 20 21  2  0
 21 22  1  0
 22 23  1  0
 22 24  1  0
 22 25  1  0
 16 26  1  0
 26 27  2  0
 12  2  1  0
 27 13  1  0
 21 15  1  0
  1 28  1  0
  1 29  1  0
  1 30  1  0
  2 31  1  1
  3 32  1  0
  3 33  1  0
  4 34  1  0
  4 35  1  0
  5 36  1  1
  6 37  1  1
  7 38  1  0
 14 39  1  0
 17 40  1  0
 20 41  1  0
 26 42  1  0
 27 43  1  0
M  END
$$$$
