@<TRIPOS>MOLECULE
*****
 43 45 0 0 0
SMALL
GASTEIGER

@<TRIPOS>ATOM
      1 C          -1.2547   -2.7403   -0.8781 C.3     1  UNL1       -0.0465
      2 C          -2.1015   -1.6653   -0.2933 C.3     1  UNL1        0.0212
      3 C          -2.8588   -0.8999   -1.3962 C.3     1  UNL1       -0.0329
      4 C          -2.8946    0.5607   -0.9060 C.3     1  UNL1       -0.0300
      5 C          -2.4665    0.3708    0.5066 C.3     1  UNL1        0.0583
      6 C          -2.1443    1.5743    1.2962 C.3     1  UNL1        0.1682
      7 O          -1.1841    2.4157    0.7681 O.3     1  UNL1       -0.3812
      8 C          -3.3935    2.4128    1.4677 C.3     1  UNL1        0.4171
      9 F          -4.3944    1.7322    2.1081 F       1  UNL1       -0.1679
     10 F          -3.8364    2.7828    0.2186 F       1  UNL1       -0.1679
     11 F          -3.0548    3.5609    2.2102 F       1  UNL1       -0.1679
     12 N          -1.3359   -0.5495    0.2938 N.pl3   1  UNL1       -0.3213
     13 C           0.0557   -0.6716    0.4301 C.ar    1  UNL1        0.0309
     14 C           1.0625    0.1774    0.0332 C.ar    1  UNL1       -0.0310
     15 C           2.4056   -0.0147    0.2426 C.ar    1  UNL1        0.0119
     16 C           2.7374   -1.1720    0.9126 C.ar    1  UNL1        0.0498
     17 N           4.0470   -1.3997    1.1393 N.ar    1  UNL1       -0.3221
     18 C           5.0002   -0.5451    0.7359 C.ar    1  UNL1        0.2497
     19 O           6.2236   -0.8102    0.9769 O.2     1  UNL1       -0.2679
     20 C           4.6278    0.6129    0.0624 C.ar    1  UNL1        0.0150
     21 C           3.3072    0.9231   -0.2111 C.ar    1  UNL1        0.0690
     22 C           2.9187    2.1491   -0.9237 C.3     1  UNL1        0.4182
     23 F           4.0864    2.8580   -1.2295 F       1  UNL1       -0.1659
     24 F           2.3146    1.9068   -2.1281 F       1  UNL1       -0.1659
     25 F           2.1799    3.0069   -0.1253 F       1  UNL1       -0.1659
     26 C           1.8239   -2.0968    1.3582 C.ar    1  UNL1       -0.0360
     27 C           0.4994   -1.8184    1.1026 C.ar    1  UNL1       -0.0387
     28 H          -0.2307   -2.4685   -1.1305 H       1  UNL1        0.0248
     29 H          -1.7537   -3.0264   -1.8574 H       1  UNL1        0.0248
     30 H          -1.3606   -3.6777   -0.2716 H       1  UNL1        0.0248
     31 H          -2.8107   -2.0198    0.4829 H       1  UNL1        0.0497
     32 H          -2.2980   -1.0114   -2.3237 H       1  UNL1        0.0284
     33 H          -3.8803   -1.3265   -1.4077 H       1  UNL1        0.0284
     34 H          -3.9471    0.9194   -1.0350 H       1  UNL1        0.0285
     35 H          -2.2359    1.1700   -1.5267 H       1  UNL1        0.0285
     36 H          -3.2770   -0.2558    0.9908 H       1  UNL1        0.0528
     37 H          -1.7628    1.2318    2.3006 H       1  UNL1        0.0702
     38 H          -1.3112    3.3096    1.1803 H       1  UNL1        0.2102
     39 H           0.7523    1.0612   -0.4955 H       1  UNL1        0.0643
     40 H           4.3566   -2.2743    1.6501 H       1  UNL1        0.1689
     41 H           5.4300    1.2809   -0.2486 H       1  UNL1        0.0677
     42 H           2.1446   -2.9866    1.8781 H       1  UNL1        0.0639
     43 H          -0.1859   -2.5872    1.4836 H       1  UNL1        0.0637
@<TRIPOS>BOND
     1     1     2    1
     2     2     3    1
     3     3     4    1
     4     4     5    1
     5     5     6    1
     6     6     7    1
     7     6     8    1
     8     8     9    1
     9     8    10    1
    10     8    11    1
    11     5    12    1
    12    12    13    1
    13    13    14   ar
    14    14    15   ar
    15    15    16   ar
    16    16    17   ar
    17    17    18   ar
    18    18    19    2
    19    18    20   ar
    20    20    21   ar
    21    21    22    1
    22    22    23    1
    23    22    24    1
    24    22    25    1
    25    16    26   ar
    26    26    27   ar
    27    12     2    1
    28    27    13   ar
    29    21    15   ar
    30     1    28    1
    31     1    29    1
    32     1    30    1
    33     2    31    1
    34     3    32    1
    35     3    33    1
    36     4    34    1
    37     4    35    1
    38     5    36    1
    39     6    37    1
    40     7    38    1
    41    14    39    1
    42    17    40    1
    43    20    41    1
    44    26    42    1
    45    27    43    1
