@<TRIPOS>MOLECULE
*****
 30 32 0 0 0
SMALL
GASTEIGER

@<TRIPOS>ATOM
      1 C          -0.6144   -2.8431    1.8487 C.3     1  UNL1        0.0326
      2 N          -0.3590   -1.6418    1.0589 N.ar    1  UNL1       -0.2460
      3 N           0.8631   -1.2259    0.7854 N.ar    1  UNL1       -0.1479
      4 C           1.1415   -0.1246    0.0613 C.ar    1  UNL1        0.1990
      5 C           2.5528    0.2440   -0.1811 C.ar    1  UNL1        0.1095
      6 C           2.8362    1.3696   -0.9212 C.ar    1  UNL1       -0.0326
      7 C           4.1636    1.7047   -1.1416 C.ar    1  UNL1       -0.0582
      8 C           5.1936    0.9405   -0.6392 C.ar    1  UNL1       -0.0436
      9 C           4.8574   -0.1787    0.0967 C.ar    1  UNL1        0.0284
     10 N           3.5555   -0.4998    0.3078 N.ar    1  UNL1       -0.2518
     11 N           0.1370    0.6233   -0.4303 N.ar    1  UNL1       -0.2159
     12 C          -1.1355    0.2451   -0.1815 C.ar    1  UNL1        0.1744
     13 C          -2.2078    0.9693   -0.6576 C.ar    1  UNL1        0.2841
     14 O          -1.9547    2.0042   -1.3379 O.2     1  UNL1       -0.2651
     15 N          -3.4632    0.5699   -0.3949 N.ar    1  UNL1       -0.2607
     16 C          -4.5889    1.3602   -0.9143 C.3     1  UNL1        0.0197
     17 C          -3.6776   -0.5395    0.3345 C.ar    1  UNL1        0.3529
     18 O          -4.9011   -0.8335    0.5279 O.2     1  UNL1       -0.2443
     19 N          -2.6841   -1.2962    0.8318 N.ar    1  UNL1       -0.1717
     20 C          -1.4024   -0.9581    0.6095 C.ar    1  UNL1        0.1858
     21 H          -1.6379   -3.2142    1.6504 H       1  UNL1        0.0473
     22 H          -0.5021   -2.5367    2.9119 H       1  UNL1        0.0473
     23 H           0.0867   -3.6606    1.5911 H       1  UNL1        0.0473
     24 H           2.0797    2.0111   -1.3429 H       1  UNL1        0.0640
     25 H           4.4343    2.5795   -1.7168 H       1  UNL1        0.0619
     26 H           6.2394    1.1590   -0.7830 H       1  UNL1        0.0633
     27 H           5.6145   -0.8232    0.5203 H       1  UNL1        0.0830
     28 H          -4.2891    2.3885   -1.1334 H       1  UNL1        0.0458
     29 H          -4.9892    0.8423   -1.8013 H       1  UNL1        0.0458
     30 H          -5.3483    1.3646   -0.0925 H       1  UNL1        0.0458
@<TRIPOS>BOND
     1     1     2    1
     2     2     3   ar
     3     3     4   ar
     4     4     5    1
     5     5     6   ar
     6     6     7   ar
     7     7     8   ar
     8     8     9   ar
     9     9    10   ar
    10     4    11   ar
    11    11    12   ar
    12    12    13   ar
    13    13    14    2
    14    13    15   ar
    15    15    16    1
    16    15    17   ar
    17    17    18    2
    18    17    19   ar
    19    19    20   ar
    20    20     2   ar
    21    10     5   ar
    22    20    12    1
    23     1    21    1
    24     1    22    1
    25     1    23    1
    26     6    24    1
    27     7    25    1
    28     8    26    1
    29     9    27    1
    30    16    28    1
    31    16    29    1
    32    16    30    1
