
     RDKit          3D

 30 32  0  0  0  0  0  0  0  0999 V2000
   -0.6144   -2.8431    1.8487 C   0  0  0  0  0  0  0  0  0  0  0  0
   -0.3590   -1.6418    1.0589 N   0  0  0  0  0  0  0  0  0  0  0  0
    0.8631   -1.2259    0.7854 N   0  0  0  0  0  0  0  0  0  0  0  0
    1.1415   -0.1246    0.0613 C   0  0  0  0  0  0  0  0  0  0  0  0
    2.5528    0.2440   -0.1811 C   0  0  0  0  0  0  0  0  0  0  0  0
    2.8362    1.3696   -0.9212 C   0  0  0  0  0  0  0  0  0  0  0  0
    4.1636    1.7047   -1.1416 C   0  0  0  0  0  0  0  0  0  0  0  0
    5.1936    0.9405   -0.6392 C   0  0  0  0  0  0  0  0  0  0  0  0
    4.8574   -0.1787    0.0967 C   0  0  0  0  0  0  0  0  0  0  0  0
    3.5555   -0.4998    0.3078 N   0  0  0  0  0  0  0  0  0  0  0  0
    0.1370    0.6233   -0.4303 N   0  0  0  0  0  0  0  0  0  0  0  0
   -1.1355    0.2451   -0.1815 C   0  0  0  0  0  0  0  0  0  0  0  0
   -2.2078    0.9693   -0.6576 C   0  0  0  0  0  0  0  0  0  0  0  0
   -1.9547    2.0042   -1.3379 O   0  0  0  0  0  0  0  0  0  0  0  0
   -3.4632    0.5699   -0.3949 N   0  0  0  0  0  0  0  0  0  0  0  0
   -4.5889    1.3602   -0.9143 C   0  0  0  0  0  0  0  0  0  0  0  0
   -3.6776   -0.5395    0.3345 C   0  0  0  0  0  0  0  0  0  0  0  0
   -4.9011   -0.8335    0.5279 O   0  0  0  0  0  0  0  0  0  0  0  0
   -2.6841   -1.2962    0.8318 N   0  0  0  0  0  0  0  0  0  0  0  0
   -1.4024   -0.9581    0.6095 C   0  0  0  0  0  0  0  0  0  0  0  0
   -1.6379   -3.2142    1.6504 H   0  0  0  0  0  0  0  0  0  0  0  0
   -0.5021   -2.5367    2.9119 H   0  0  0  0  0  0  0  0  0  0  0  0
    0.0867   -3.6606    1.5911 H   0  0  0  0  0  0  0  0  0  0  0  0
    2.0797    2.0111   -1.3429 H   0  0  0  0  0  0  0  0  0  0  0  0
    4.4343    2.5795   -1.7168 H   0  0  0  0  0  0  0  0  0  0  0  0
    6.2394    1.1590   -0.7830 H   0  0  0  0  0  0  0  0  0  0  0  0
    5.6145   -0.8232    0.5203 H   0  0  0  0  0  0  0  0  0  0  0  0
   -4.2891    2.3885   -1.1334 H   0  0  0  0  0  0  0  0  0  0  0  0
   -4.9892    0.8423   -1.8013 H   0  0  0  0  0  0  0  0  0  0  0  0
   -5.3483    1.3646   -0.0925 H   0  0  0  0  0  0  0  0  0  0  0  0
  1  2  1  0
  2  3  1  0
  3  4  2  0
  4  5  1  0
  5  6  2  0
  6  7  1  0
  7  8  2  0
  8  9  1  0
  9 10  2  0
  4 11  1  0
 11 12  2  0
 12 13  1  0
 13 14  2  0
 13 15  1  0
 15 16  1  0
 15 17  1  0
 17 18  2  0
 17 19  1  0
 19 20  2  0
 20  2  1  0
 10  5  1  0
 20 12  1  0
  1 21  1  0
  1 22  1  0
  1 23  1  0
  6 24  1  0
  7 25  1  0
  8 26  1  0
  9 27  1  0
 16 28  1  0
 16 29  1  0
 16 30  1  0
M  END
$$$$
