@<TRIPOS>MOLECULE
*****
 34 33 0 0 0
SMALL
GASTEIGER

@<TRIPOS>ATOM
      1 CA         -2.6852    0.0796    0.5141 C.3     1  UNL1        0.0743
      2 N          -3.5223   -0.8983    1.0969 N.4     1  UNL1        0.2288
      3 C          -2.2312   -0.1996   -0.8827 C.3     1  UNL1        0.0041
      4 C          -1.4480   -1.4484   -1.0512 C.3     1  UNL1       -0.0112
      5 C          -0.1773   -1.4297   -0.2075 C.3     1  UNL1        0.0781
      6 N           0.6397   -0.3055   -0.6210 N.pl3   1  UNL1       -0.2379
      7 C           1.8950   -0.1116    0.0616 C.2     1  UNL1        0.2781
      8 N           2.3711   -1.0022    0.8654 N.2     1  UNL1       -0.1040
      9 C           2.6268    1.1570   -0.1938 C.3     1  UNL1        0.0498
     10 C           3.9214    1.2488    0.5711 C.3     1  UNL1       -0.0450
     11 C           4.8814    0.1558    0.2386 C.3     1  UNL1       -0.0647
     12 C          -3.4421    1.3603    0.5222 C.2     1  UNL1        0.3535
     13 O          -3.6356    2.7101    0.2791 O.3     1  UNL1       -0.4767
     14 OXT        -4.5881    1.2365    1.0291 O.2     1  UNL1       -0.2446
     15 HA         -1.7848    0.2402    1.1639 H       1  UNL1        0.0968
     16 H1         -4.1291   -0.4494    1.8402 H       1  UNL1        0.2002
     17 H2         -4.2235   -1.2645    0.3936 H       1  UNL1        0.2002
     18 H3         -3.0782   -1.7028    1.5314 H       1  UNL1        0.2002
     19 H          -3.1142   -0.2515   -1.5546 H       1  UNL1        0.0327
     20 H          -1.6343    0.6529   -1.2663 H       1  UNL1        0.0327
     21 H          -2.0168   -2.3748   -0.9124 H       1  UNL1        0.0303
     22 H          -1.0837   -1.4839   -2.1000 H       1  UNL1        0.0303
     23 H          -0.3697   -1.3913    0.8670 H       1  UNL1        0.0724
     24 H           0.3968   -2.3552   -0.4004 H       1  UNL1        0.0724
     25 H           0.3830    0.3629   -1.3690 H       1  UNL1        0.2910
     26 H           1.8264   -1.8791    1.0174 H       1  UNL1        0.3629
     27 H           2.7550    1.2474   -1.2809 H       1  UNL1        0.0386
     28 H           1.9630    1.9726    0.1601 H       1  UNL1        0.0386
     29 H           4.3814    2.2141    0.3103 H       1  UNL1        0.0268
     30 H           3.6576    1.2945    1.6530 H       1  UNL1        0.0268
     31 H           5.3643   -0.1884    1.1988 H       1  UNL1        0.0230
     32 H           5.7029    0.4994   -0.4432 H       1  UNL1        0.0230
     33 H           4.4454   -0.7206   -0.2670 H       1  UNL1        0.0230
     34 H          -4.0469    3.0249   -0.6042 H       1  UNL1        0.2953
@<TRIPOS>UNITY_ATOM_ATTR
2 1
charge 1
@<TRIPOS>BOND
     1     1     2    1
     2     1     3    1
     3     3     4    1
     4     4     5    1
     5     5     6    1
     6     6     7    1
     7     7     8    2
     8     7     9    1
     9     9    10    1
    10    10    11    1
    11     1    12    1
    12    12    13    1
    13    12    14    2
    14     1    15    1
    15     2    16    1
    16     2    17    1
    17     2    18    1
    18     3    19    1
    19     3    20    1
    20     4    21    1
    21     4    22    1
    22     5    23    1
    23     5    24    1
    24     6    25    1
    25     8    26    1
    26     9    27    1
    27     9    28    1
    28    10    29    1
    29    10    30    1
    30    11    31    1
    31    11    32    1
    32    11    33    1
    33    13    34    1
