@<TRIPOS>MOLECULE
*****
 39 42 0 0 0
SMALL
GASTEIGER

@<TRIPOS>ATOM
      1 O           0.5764    0.9569    2.4671 O.2     1  UNL1       -0.1528
      2 S           0.2694    1.0491    1.0147 S.O2    1  UNL1        0.0612
      3 O          -0.4743    2.3646    0.8190 O.2     1  UNL1       -0.1528
      4 C           1.6850    1.0906    0.0269 C.ar    1  UNL1        0.1062
      5 C           1.7208    1.8716   -1.0968 C.ar    1  UNL1       -0.0353
      6 C           2.8169    1.9478   -1.9240 C.ar    1  UNL1       -0.0592
      7 C           3.9267    1.1985   -1.5972 C.ar    1  UNL1       -0.0509
      8 C           3.9278    0.3988   -0.4713 C.ar    1  UNL1        0.0223
      9 C           5.1206   -0.3916   -0.1413 C.ar    1  UNL1        0.1794
     10 N           6.2532   -0.4052   -0.8659 N.ar    1  UNL1       -0.1084
     11 N           7.0648   -1.2285   -0.2392 N.ar    1  UNL1       -0.0229
     12 N           6.4928   -1.7259    0.8370 N.ar    1  UNL1       -0.0464
     13 N           5.2855   -1.2069    0.8989 N.ar    1  UNL1       -0.2388
     14 C           2.7885    0.3464    0.3506 C.ar    1  UNL1       -0.0246
     15 N          -0.7600   -0.1925    0.4604 N.3     1  UNL1       -0.1720
     16 C          -1.2243   -0.0400   -0.8610 C.3     1  UNL1        0.0248
     17 C          -2.3435   -0.9902   -1.1728 C.3     1  UNL1       -0.0129
     18 C          -3.4408   -0.7431   -0.2131 C.ar    1  UNL1       -0.0416
     19 C          -4.7504   -0.6462   -0.6148 C.ar    1  UNL1       -0.0582
     20 C          -5.7079   -0.4140    0.3487 C.ar    1  UNL1       -0.0615
     21 C          -5.3585   -0.2828    1.6793 C.ar    1  UNL1       -0.0614
     22 C          -4.0388   -0.3799    2.0874 C.ar    1  UNL1       -0.0570
     23 C          -3.0748   -0.6131    1.1226 C.ar    1  UNL1       -0.0285
     24 C          -1.6314   -0.7384    1.4219 C.3     1  UNL1        0.0458
     25 H           0.8490    2.4516   -1.3414 H       1  UNL1        0.0637
     26 H           2.8625    2.5536   -2.8074 H       1  UNL1        0.0618
     27 H           4.8267    1.2260   -2.2271 H       1  UNL1        0.0625
     28 H           4.5320   -1.3629    1.6134 H       1  UNL1        0.1923
     29 H           2.8482   -0.2901    1.2082 H       1  UNL1        0.0644
     30 H          -0.3787   -0.3106   -1.5606 H       1  UNL1        0.0447
     31 H          -1.5079    0.9915   -1.1468 H       1  UNL1        0.0447
     32 H          -1.9949   -2.0405   -1.1423 H       1  UNL1        0.0326
     33 H          -2.7073   -0.7661   -2.1897 H       1  UNL1        0.0326
     34 H          -5.0409   -0.7457   -1.6461 H       1  UNL1        0.0620
     35 H          -6.7351   -0.3357    0.0520 H       1  UNL1        0.0618
     36 H          -6.1018   -0.0990    2.4554 H       1  UNL1        0.0618
     37 H          -3.7348   -0.2827    3.1130 H       1  UNL1        0.0621
     38 H          -1.4122   -0.3666    2.4566 H       1  UNL1        0.0493
     39 H          -1.4286   -1.8487    1.4864 H       1  UNL1        0.0493
@<TRIPOS>BOND
     1     1     2    2
     2     2     3    2
     3     2     4    1
     4     4     5   ar
     5     5     6   ar
     6     6     7   ar
     7     7     8   ar
     8     8     9    1
     9     9    10   ar
    10    10    11   ar
    11    11    12   ar
    12    12    13   ar
    13     8    14   ar
    14     2    15    1
    15    15    16    1
    16    16    17    1
    17    17    18    1
    18    18    19   ar
    19    19    20   ar
    20    20    21   ar
    21    21    22   ar
    22    22    23   ar
    23    23    24    1
    24    14     4   ar
    25    24    15    1
    26    13     9   ar
    27    23    18   ar
    28     5    25    1
    29     6    26    1
    30     7    27    1
    31    13    28    1
    32    14    29    1
    33    16    30    1
    34    16    31    1
    35    17    32    1
    36    17    33    1
    37    19    34    1
    38    20    35    1
    39    21    36    1
    40    22    37    1
    41    24    38    1
    42    24    39    1
