
     RDKit          3D

 39 42  0  0  0  0  0  0  0  0999 V2000
    0.5764    0.9569    2.4671 O   0  0  0  0  0  0  0  0  0  0  0  0
    0.2694    1.0491    1.0147 S   0  0  0  0  0  6  0  0  0  0  0  0
   -0.4743    2.3646    0.8190 O   0  0  0  0  0  0  0  0  0  0  0  0
    1.6850    1.0906    0.0269 C   0  0  0  0  0  0  0  0  0  0  0  0
    1.7208    1.8716   -1.0968 C   0  0  0  0  0  0  0  0  0  0  0  0
    2.8169    1.9478   -1.9240 C   0  0  0  0  0  0  0  0  0  0  0  0
    3.9267    1.1985   -1.5972 C   0  0  0  0  0  0  0  0  0  0  0  0
    3.9278    0.3988   -0.4713 C   0  0  0  0  0  0  0  0  0  0  0  0
    5.1206   -0.3916   -0.1413 C   0  0  0  0  0  0  0  0  0  0  0  0
    6.2532   -0.4052   -0.8659 N   0  0  0  0  0  0  0  0  0  0  0  0
    7.0648   -1.2285   -0.2392 N   0  0  0  0  0  0  0  0  0  0  0  0
    6.4928   -1.7259    0.8370 N   0  0  0  0  0  0  0  0  0  0  0  0
    5.2855   -1.2069    0.8989 N   0  0  0  0  0  0  0  0  0  0  0  0
    2.7885    0.3464    0.3506 C   0  0  0  0  0  0  0  0  0  0  0  0
   -0.7600   -0.1925    0.4604 N   0  0  0  0  0  0  0  0  0  0  0  0
   -1.2243   -0.0400   -0.8610 C   0  0  0  0  0  0  0  0  0  0  0  0
   -2.3435   -0.9902   -1.1728 C   0  0  0  0  0  0  0  0  0  0  0  0
   -3.4408   -0.7431   -0.2131 C   0  0  0  0  0  0  0  0  0  0  0  0
   -4.7504   -0.6462   -0.6148 C   0  0  0  0  0  0  0  0  0  0  0  0
   -5.7079   -0.4140    0.3487 C   0  0  0  0  0  0  0  0  0  0  0  0
   -5.3585   -0.2828    1.6793 C   0  0  0  0  0  0  0  0  0  0  0  0
   -4.0388   -0.3799    2.0874 C   0  0  0  0  0  0  0  0  0  0  0  0
   -3.0748   -0.6131    1.1226 C   0  0  0  0  0  0  0  0  0  0  0  0
   -1.6314   -0.7384    1.4219 C   0  0  0  0  0  0  0  0  0  0  0  0
    0.8490    2.4516   -1.3414 H   0  0  0  0  0  0  0  0  0  0  0  0
    2.8625    2.5536   -2.8074 H   0  0  0  0  0  0  0  0  0  0  0  0
    4.8267    1.2260   -2.2271 H   0  0  0  0  0  0  0  0  0  0  0  0
    4.5320   -1.3629    1.6134 H   0  0  0  0  0  0  0  0  0  0  0  0
    2.8482   -0.2901    1.2082 H   0  0  0  0  0  0  0  0  0  0  0  0
   -0.3787   -0.3106   -1.5606 H   0  0  0  0  0  0  0  0  0  0  0  0
   -1.5079    0.9915   -1.1468 H   0  0  0  0  0  0  0  0  0  0  0  0
   -1.9949   -2.0405   -1.1423 H   0  0  0  0  0  0  0  0  0  0  0  0
   -2.7073   -0.7661   -2.1897 H   0  0  0  0  0  0  0  0  0  0  0  0
   -5.0409   -0.7457   -1.6461 H   0  0  0  0  0  0  0  0  0  0  0  0
   -6.7351   -0.3357    0.0520 H   0  0  0  0  0  0  0  0  0  0  0  0
   -6.1018   -0.0990    2.4554 H   0  0  0  0  0  0  0  0  0  0  0  0
   -3.7348   -0.2827    3.1130 H   0  0  0  0  0  0  0  0  0  0  0  0
   -1.4122   -0.3666    2.4566 H   0  0  0  0  0  0  0  0  0  0  0  0
   -1.4286   -1.8487    1.4864 H   0  0  0  0  0  0  0  0  0  0  0  0
  1  2  2  0
  2  3  2  0
  2  4  1  0
  4  5  2  0
  5  6  1  0
  6  7  2  0
  7  8  1  0
  8  9  1  0
  9 10  2  0
 10 11  1  0
 11 12  2  0
 12 13  1  0
  8 14  2  0
  2 15  1  0
 15 16  1  0
 16 17  1  0
 17 18  1  0
 18 19  2  0
 19 20  1  0
 20 21  2  0
 21 22  1  0
 22 23  2  0
 23 24  1  0
 14  4  1  0
 24 15  1  0
 13  9  1  0
 23 18  1  0
  5 25  1  0
  6 26  1  0
  7 27  1  0
 13 28  1  0
 14 29  1  0
 16 30  1  0
 16 31  1  0
 17 32  1  0
 17 33  1  0
 19 34  1  0
 20 35  1  0
 21 36  1  0
 22 37  1  0
 24 38  1  0
 24 39  1  0
M  END
$$$$
