
     RDKit          3D

 61 68  0  0  0  0  0  0  0  0999 V2000
    4.9790   -1.7402   -0.6855 C   0  0  0  0  0  0  0  0  0  0  0  0
    3.6339   -2.1512   -0.9504 N   0  0  0  0  0  0  0  0  0  0  0  0
    2.7672   -1.6984    0.0821 C   0  0  2  0  0  0  0  0  0  0  0  0
    1.3516   -2.2339   -0.2074 C   0  0  0  0  0  0  0  0  0  0  0  0
    0.5769   -1.9358    1.0558 C   0  0  1  0  0  0  0  0  0  0  0  0
    1.0449   -0.9082    1.7824 O   0  0  0  0  0  0  0  0  0  0  0  0
    1.5579    0.2002    1.1024 C   0  0  1  0  0  0  0  0  0  0  0  0
    2.3103    0.9613    2.2008 C   0  0  0  0  0  0  0  0  0  0  0  0
    2.5617   -0.1730    0.0392 C   0  0  2  0  0  0  0  0  0  0  0  0
    2.1078    0.1414   -1.2356 O   0  0  0  0  0  0  0  0  0  0  0  0
    2.9714    0.9112   -1.9710 C   0  0  0  0  0  0  0  0  0  0  0  0
    0.4869    1.0455    0.6082 N   0  0  0  0  0  0  0  0  0  0  0  0
    0.5364    2.3824    0.3930 C   0  0  0  0  0  0  0  0  0  0  0  0
    1.5643    3.2953    0.5025 C   0  0  0  0  0  0  0  0  0  0  0  0
    1.3368    4.6301    0.2004 C   0  0  0  0  0  0  0  0  0  0  0  0
    0.0949    5.0610   -0.2105 C   0  0  0  0  0  0  0  0  0  0  0  0
   -0.9527    4.1779   -0.3324 C   0  0  0  0  0  0  0  0  0  0  0  0
   -0.7038    2.8572   -0.0268 C   0  0  0  0  0  0  0  0  0  0  0  0
   -1.5253    1.7768   -0.0721 C   0  0  0  0  0  0  0  0  0  0  0  0
   -2.8677    1.6535   -0.4295 C   0  0  0  0  0  0  0  0  0  0  0  0
   -3.4534    0.4046   -0.3931 C   0  0  0  0  0  0  0  0  0  0  0  0
   -2.6911   -0.6973   -0.0030 C   0  0  0  0  0  0  0  0  0  0  0  0
   -2.9430   -2.0606    0.1219 C   0  0  0  0  0  0  0  0  0  0  0  0
   -4.0591   -2.8313   -0.0780 C   0  0  0  0  0  0  0  0  0  0  0  0
   -3.9568   -4.2025    0.1458 C   0  0  0  0  0  0  0  0  0  0  0  0
   -2.7739   -4.7712    0.5551 C   0  0  0  0  0  0  0  0  0  0  0  0
   -1.6489   -4.0049    0.7581 C   0  0  0  0  0  0  0  0  0  0  0  0
   -1.7494   -2.6578    0.5383 C   0  0  0  0  0  0  0  0  0  0  0  0
   -0.8165   -1.7299    0.6654 N   0  0  0  0  0  0  0  0  0  0  0  0
   -1.3526   -0.5478    0.3500 C   0  0  0  0  0  0  0  0  0  0  0  0
   -0.8061    0.7018    0.3059 C   0  0  0  0  0  0  0  0  0  0  0  0
   -4.8396    0.5294   -0.8001 C   0  0  0  0  0  0  0  0  0  0  0  0
   -5.7441   -0.3113   -0.9179 O   0  0  0  0  0  0  0  0  0  0  0  0
   -5.0747    1.9166   -1.0878 N   0  0  0  0  0  0  0  0  0  0  0  0
   -3.8544    2.6398   -0.8657 C   0  0  0  0  0  0  0  0  0  0  0  0
    5.0655   -1.0935    0.2061 H   0  0  0  0  0  0  0  0  0  0  0  0
    5.5555   -2.6703   -0.4401 H   0  0  0  0  0  0  0  0  0  0  0  0
    5.4797   -1.2334   -1.5406 H   0  0  0  0  0  0  0  0  0  0  0  0
    3.5255   -3.1355   -1.2062 H   0  0  0  0  0  0  0  0  0  0  0  0
    3.0457   -2.0246    1.0988 H   0  0  0  0  0  0  0  0  0  0  0  0
    1.3563   -3.3024   -0.4158 H   0  0  0  0  0  0  0  0  0  0  0  0
    0.8980   -1.6382   -1.0234 H   0  0  0  0  0  0  0  0  0  0  0  0
    0.6039   -2.8573    1.6624 H   0  0  0  0  0  0  0  0  0  0  0  0
    3.3532    1.1864    1.9320 H   0  0  0  0  0  0  0  0  0  0  0  0
    2.4399    0.2923    3.1208 H   0  0  0  0  0  0  0  0  0  0  0  0
    1.7487    1.8208    2.5923 H   0  0  0  0  0  0  0  0  0  0  0  0
    3.5590    0.2702    0.2005 H   0  0  0  0  0  0  0  0  0  0  0  0
    2.4713    1.0862   -2.9670 H   0  0  0  0  0  0  0  0  0  0  0  0
    3.1198    1.8935   -1.4883 H   0  0  0  0  0  0  0  0  0  0  0  0
    3.9413    0.4735   -2.2095 H   0  0  0  0  0  0  0  0  0  0  0  0
    2.5498    2.9761    0.7982 H   0  0  0  0  0  0  0  0  0  0  0  0
    2.1590    5.3505    0.2908 H   0  0  0  0  0  0  0  0  0  0  0  0
   -0.0991    6.1035   -0.4505 H   0  0  0  0  0  0  0  0  0  0  0  0
   -1.9065    4.5051   -0.6478 H   0  0  0  0  0  0  0  0  0  0  0  0
   -4.9767   -2.4097   -0.3923 H   0  0  0  0  0  0  0  0  0  0  0  0
   -4.8630   -4.7798   -0.0235 H   0  0  0  0  0  0  0  0  0  0  0  0
   -2.7160   -5.8410    0.7236 H   0  0  0  0  0  0  0  0  0  0  0  0
   -0.7214   -4.4467    1.0784 H   0  0  0  0  0  0  0  0  0  0  0  0
   -6.0067    2.3176   -1.4105 H   0  0  0  0  0  0  0  0  0  0  0  0
   -4.0704    3.4209   -0.1083 H   0  0  0  0  0  0  0  0  0  0  0  0
   -3.5810    3.1050   -1.8558 H   0  0  0  0  0  0  0  0  0  0  0  0
  1  2  1  0
  2  3  1  0
  3  4  1  0
  4  5  1  0
  5  6  1  0
  6  7  1  0
  7  8  1  1
  7  9  1  0
  9 10  1  0
 10 11  1  0
  7 12  1  0
 12 13  1  0
 13 14  2  0
 14 15  1  0
 15 16  2  0
 16 17  1  0
 17 18  2  0
 18 19  1  0
 19 20  2  0
 20 21  1  0
 21 22  2  0
 22 23  1  0
 23 24  2  0
 24 25  1  0
 25 26  2  0
 26 27  1  0
 27 28  2  0
 28 29  1  0
 29 30  1  0
 30 31  2  0
 21 32  1  0
 32 33  2  0
 32 34  1  0
 34 35  1  0
  9  3  1  0
 31 12  1  0
 29  5  1  0
 18 13  1  0
 31 19  1  0
 35 20  1  0
 30 22  1  0
 28 23  1  0
  1 36  1  0
  1 37  1  0
  1 38  1  0
  2 39  1  0
  3 40  1  1
  4 41  1  0
  4 42  1  0
  5 43  1  1
  8 44  1  0
  8 45  1  0
  8 46  1  0
  9 47  1  1
 11 48  1  0
 11 49  1  0
 11 50  1  0
 14 51  1  0
 15 52  1  0
 16 53  1  0
 17 54  1  0
 24 55  1  0
 25 56  1  0
 26 57  1  0
 27 58  1  0
 34 59  1  0
 35 60  1  0
 35 61  1  0
M  END
$$$$
