@<TRIPOS>MOLECULE
*****
 61 68 0 0 0
SMALL
GASTEIGER

@<TRIPOS>ATOM
      1 C           4.9790   -1.7402   -0.6855 C.3     1  UNL1       -0.0155
      2 N           3.6339   -2.1512   -0.9504 N.3     1  UNL1       -0.3136
      3 C           2.7672   -1.6984    0.0821 C.3     1  UNL1        0.0423
      4 C           1.3516   -2.2339   -0.2074 C.3     1  UNL1        0.0107
      5 C           0.5769   -1.9358    1.0558 C.3     1  UNL1        0.1402
      6 O           1.0449   -0.9082    1.7824 O.3     1  UNL1       -0.3282
      7 C           1.5579    0.2002    1.1024 C.3     1  UNL1        0.1741
      8 C           2.3103    0.9613    2.2008 C.3     1  UNL1       -0.0136
      9 C           2.5617   -0.1730    0.0392 C.3     1  UNL1        0.1214
     10 O           2.1078    0.1414   -1.2356 O.3     1  UNL1       -0.3735
     11 C           2.9714    0.9112   -1.9710 C.3     1  UNL1        0.0371
     12 N           0.4869    1.0455    0.6082 N.ar    1  UNL1       -0.3070
     13 C           0.5364    2.3824    0.3930 C.ar    1  UNL1        0.0527
     14 C           1.5643    3.2953    0.5025 C.ar    1  UNL1       -0.0375
     15 C           1.3368    4.6301    0.2004 C.ar    1  UNL1       -0.0598
     16 C           0.0949    5.0610   -0.2105 C.ar    1  UNL1       -0.0611
     17 C          -0.9527    4.1779   -0.3324 C.ar    1  UNL1       -0.0520
     18 C          -0.7038    2.8572   -0.0268 C.ar    1  UNL1        0.0081
     19 C          -1.5253    1.7768   -0.0721 C.ar    1  UNL1        0.0151
     20 C          -2.8677    1.6535   -0.4295 C.ar    1  UNL1       -0.0078
     21 C          -3.4534    0.4046   -0.3931 C.ar    1  UNL1        0.0518
     22 C          -2.6911   -0.6973   -0.0030 C.ar    1  UNL1        0.0221
     23 C          -2.9430   -2.0606    0.1219 C.ar    1  UNL1        0.0085
     24 C          -4.0591   -2.8313   -0.0780 C.ar    1  UNL1       -0.0520
     25 C          -3.9568   -4.2025    0.1458 C.ar    1  UNL1       -0.0611
     26 C          -2.7739   -4.7712    0.5551 C.ar    1  UNL1       -0.0598
     27 C          -1.6489   -4.0049    0.7581 C.ar    1  UNL1       -0.0375
     28 C          -1.7494   -2.6578    0.5383 C.ar    1  UNL1        0.0524
     29 N          -0.8165   -1.7299    0.6654 N.ar    1  UNL1       -0.3115
     30 C          -1.3526   -0.5478    0.3500 C.ar    1  UNL1        0.0774
     31 C          -0.8061    0.7018    0.3059 C.ar    1  UNL1        0.0772
     32 C          -4.8396    0.5294   -0.8001 C.2     1  UNL1        0.2453
     33 O          -5.7441   -0.3113   -0.9179 O.2     1  UNL1       -0.2702
     34 N          -5.0747    1.9166   -1.0878 N.am    1  UNL1       -0.3072
     35 C          -3.8544    2.6398   -0.8657 C.3     1  UNL1        0.0385
     36 H           5.0655   -1.0935    0.2061 H       1  UNL1        0.0388
     37 H           5.5555   -2.6703   -0.4401 H       1  UNL1        0.0388
     38 H           5.4797   -1.2334   -1.5406 H       1  UNL1        0.0388
     39 H           3.5255   -3.1355   -1.2062 H       1  UNL1        0.1220
     40 H           3.0457   -2.0246    1.0988 H       1  UNL1        0.0489
     41 H           1.3563   -3.3024   -0.4158 H       1  UNL1        0.0325
     42 H           0.8980   -1.6382   -1.0234 H       1  UNL1        0.0325
     43 H           0.6039   -2.8573    1.6624 H       1  UNL1        0.0839
     44 H           3.3532    1.1864    1.9320 H       1  UNL1        0.0277
     45 H           2.4399    0.2923    3.1208 H       1  UNL1        0.0277
     46 H           1.7487    1.8208    2.5923 H       1  UNL1        0.0277
     47 H           3.5590    0.2702    0.2005 H       1  UNL1        0.0660
     48 H           2.4713    1.0862   -2.9670 H       1  UNL1        0.0524
     49 H           3.1198    1.8935   -1.4883 H       1  UNL1        0.0524
     50 H           3.9413    0.4735   -2.2095 H       1  UNL1        0.0524
     51 H           2.5498    2.9761    0.7982 H       1  UNL1        0.0638
     52 H           2.1590    5.3505    0.2908 H       1  UNL1        0.0618
     53 H          -0.0991    6.1035   -0.4505 H       1  UNL1        0.0618
     54 H          -1.9065    4.5051   -0.6478 H       1  UNL1        0.0624
     55 H          -4.9767   -2.4097   -0.3923 H       1  UNL1        0.0624
     56 H          -4.8630   -4.7798   -0.0235 H       1  UNL1        0.0618
     57 H          -2.7160   -5.8410    0.7236 H       1  UNL1        0.0618
     58 H          -0.7214   -4.4467    1.0784 H       1  UNL1        0.0638
     59 H          -6.0067    2.3176   -1.4105 H       1  UNL1        0.1493
     60 H          -4.0704    3.4209   -0.1083 H       1  UNL1        0.0512
     61 H          -3.5810    3.1050   -1.8558 H       1  UNL1        0.0512
@<TRIPOS>BOND
     1     1     2    1
     2     2     3    1
     3     3     4    1
     4     4     5    1
     5     5     6    1
     6     6     7    1
     7     7     8    1
     8     7     9    1
     9     9    10    1
    10    10    11    1
    11     7    12    1
    12    12    13   ar
    13    13    14   ar
    14    14    15   ar
    15    15    16   ar
    16    16    17   ar
    17    17    18   ar
    18    18    19   ar
    19    19    20   ar
    20    20    21   ar
    21    21    22   ar
    22    22    23   ar
    23    23    24   ar
    24    24    25   ar
    25    25    26   ar
    26    26    27   ar
    27    27    28   ar
    28    28    29   ar
    29    29    30   ar
    30    30    31   ar
    31    21    32    1
    32    32    33    2
    33    32    34   am
    34    34    35    1
    35     9     3    1
    36    31    12   ar
    37    29     5    1
    38    18    13   ar
    39    31    19   ar
    40    35    20    1
    41    30    22   ar
    42    28    23   ar
    43     1    36    1
    44     1    37    1
    45     1    38    1
    46     2    39    1
    47     3    40    1
    48     4    41    1
    49     4    42    1
    50     5    43    1
    51     8    44    1
    52     8    45    1
    53     8    46    1
    54     9    47    1
    55    11    48    1
    56    11    49    1
    57    11    50    1
    58    14    51    1
    59    15    52    1
    60    16    53    1
    61    17    54    1
    62    24    55    1
    63    25    56    1
    64    26    57    1
    65    27    58    1
    66    34    59    1
    67    35    60    1
    68    35    61    1
