@<TRIPOS>MOLECULE
*****
 22 23 0 0 0
SMALL
GASTEIGER

@<TRIPOS>ATOM
      1 C          -1.5221   -0.3607   -0.1250 C.3     1  UNL1        0.1388
      2 C          -2.7919   -1.1350   -0.3624 C.3     1  UNL1       -0.0239
      3 C          -1.3891    0.0888    1.3124 C.3     1  UNL1        0.1684
      4 N          -0.6299    1.3235    1.3829 N.2     1  UNL1       -0.0787
      5 C           0.5460    1.4605    0.8272 C.2     1  UNL1        0.3210
      6 N           1.2450    2.7018    0.9315 N.pl3   1  UNL1       -0.2460
      7 C           1.3662    0.5567    0.0632 C.ar    1  UNL1        0.1436
      8 C           0.9370   -0.6681   -0.5699 C.ar    1  UNL1        0.1430
      9 O          -0.3875   -1.1533   -0.5155 O.3     1  UNL1       -0.4837
     10 C           1.8428   -1.3906   -1.2498 C.ar    1  UNL1       -0.0120
     11 C           3.1564   -0.8463   -1.2654 C.ar    1  UNL1       -0.0199
     12 S           3.0346    0.7523   -0.2585 S.2     1  UNL1       -0.0857
     13 H          -1.5647    0.5244   -0.7832 H       1  UNL1        0.0771
     14 H          -3.1104   -1.7072    0.5389 H       1  UNL1        0.0266
     15 H          -3.6063   -0.4153   -0.5876 H       1  UNL1        0.0266
     16 H          -2.6304   -1.7574   -1.2584 H       1  UNL1        0.0266
     17 H          -0.8615   -0.7325    1.8694 H       1  UNL1        0.0828
     18 H          -2.3852    0.2220    1.7824 H       1  UNL1        0.0828
     19 H           1.4367    3.1197    1.8792 H       1  UNL1        0.2884
     20 H           1.5481    3.1601    0.0267 H       1  UNL1        0.2884
     21 H           1.6932   -2.3158   -1.7736 H       1  UNL1        0.0660
     22 H           4.0729   -1.4277   -1.8643 H       1  UNL1        0.0695
@<TRIPOS>BOND
     1     1     2    1
     2     1     3    1
     3     3     4    1
     4     4     5    2
     5     5     6    1
     6     5     7    1
     7     7     8   ar
     8     8     9    1
     9     8    10   ar
    10    10    11   ar
    11    11    12   ar
    12     9     1    1
    13    12     7   ar
    14     1    13    1
    15     2    14    1
    16     2    15    1
    17     2    16    1
    18     3    17    1
    19     3    18    1
    20     6    19    1
    21     6    20    1
    22    10    21    1
    23    11    22    1
