
     RDKit          3D

 53 57  0  0  0  0  0  0  0  0999 V2000
    7.1564   -0.0952    0.6717 N   0  0  0  0  0  0  0  0  0  0  0  0
    5.8045   -0.2985    1.6987 S   0  0  0  0  0  6  0  0  0  0  0  0
    5.9129   -1.6373    2.3694 O   0  0  0  0  0  0  0  0  0  0  0  0
    5.8555    0.7873    2.7431 O   0  0  0  0  0  0  0  0  0  0  0  0
    4.3371   -0.1853    0.7756 C   0  0  0  0  0  0  0  0  0  0  0  0
    3.7965   -1.3154    0.2125 C   0  0  0  0  0  0  0  0  0  0  0  0
    2.6217   -1.2237   -0.5255 C   0  0  0  0  0  0  0  0  0  0  0  0
    1.9629   -0.0390   -0.7232 C   0  0  0  0  0  0  0  0  0  0  0  0
    0.6948    0.0201   -1.5251 C   0  0  0  0  0  0  0  0  0  0  0  0
   -0.4963   -0.1498   -0.7045 C   0  0  0  0  0  0  0  0  0  0  0  0
   -1.0042   -1.3268   -0.2123 C   0  0  0  0  0  0  0  0  0  0  0  0
   -0.5366   -2.6968   -0.3900 C   0  0  0  0  0  0  0  0  0  0  0  0
   -0.3292   -3.5103    0.7313 C   0  0  0  0  0  0  0  0  0  0  0  0
    0.0850   -4.8195    0.6255 C   0  0  0  0  0  0  0  0  0  0  0  0
    0.3140   -5.3850   -0.6075 C   0  0  0  0  0  0  0  0  0  0  0  0
    0.1169   -4.6056   -1.7276 C   0  0  0  0  0  0  0  0  0  0  0  0
   -0.2978   -3.2993   -1.5998 C   0  0  0  0  0  0  0  0  0  0  0  0
   -2.0678   -1.0385    0.5312 N   0  0  0  0  0  0  0  0  0  0  0  0
   -2.2896    0.2640    0.5550 N   0  0  0  0  0  0  0  0  0  0  0  0
   -3.3380    0.9492    1.2521 C   0  0  0  0  0  0  0  0  0  0  0  0
   -4.1803    1.9231    0.8440 N   0  0  0  0  0  0  0  0  0  0  0  0
   -5.0605    2.4220    1.6007 C   0  0  0  0  0  0  0  0  0  0  0  0
   -6.0028    3.5059    1.1631 C   0  0  0  0  0  0  0  0  0  0  0  0
   -6.8633    3.9826    1.9262 O   0  0  0  0  0  0  0  0  0  0  0  0
   -5.9534    4.0270   -0.1224 O   0  0  0  0  0  0  0  0  0  0  0  0
   -5.2031    1.9703    2.9381 C   0  0  0  0  0  0  0  0  0  0  0  0
   -3.8405    0.7119    2.8757 S   0  0  0  0  0  0  0  0  0  0  0  0
   -1.3149    0.8613   -0.2174 C   0  0  0  0  0  0  0  0  0  0  0  0
   -1.2922    2.2952   -0.4016 C   0  0  0  0  0  0  0  0  0  0  0  0
   -2.3521    2.7495   -1.4610 C   0  0  0  0  0  0  0  0  0  0  0  0
   -0.8790    3.1177   -1.4930 C   0  0  0  0  0  0  0  0  0  0  0  0
    2.5110    1.0901   -0.1555 C   0  0  0  0  0  0  0  0  0  0  0  0
    3.6802    1.0096    0.5809 C   0  0  0  0  0  0  0  0  0  0  0  0
    6.9783   -0.4904   -0.2897 H   0  0  0  0  0  0  0  0  0  0  0  0
    7.3782    0.9254    0.6252 H   0  0  0  0  0  0  0  0  0  0  0  0
    4.2970   -2.2628    0.3538 H   0  0  0  0  0  0  0  0  0  0  0  0
    2.2522   -2.1444   -0.9412 H   0  0  0  0  0  0  0  0  0  0  0  0
    0.6999    0.8817   -2.2158 H   0  0  0  0  0  0  0  0  0  0  0  0
    0.8272   -0.8422   -2.2515 H   0  0  0  0  0  0  0  0  0  0  0  0
   -0.5105   -3.0598    1.6928 H   0  0  0  0  0  0  0  0  0  0  0  0
    0.2409   -5.4374    1.5097 H   0  0  0  0  0  0  0  0  0  0  0  0
    0.6449   -6.4277   -0.7000 H   0  0  0  0  0  0  0  0  0  0  0  0
    0.2951   -5.0427   -2.7105 H   0  0  0  0  0  0  0  0  0  0  0  0
   -0.4476   -2.7508   -2.5133 H   0  0  0  0  0  0  0  0  0  0  0  0
   -6.2641    4.9929   -0.2692 H   0  0  0  0  0  0  0  0  0  0  0  0
   -5.8089    2.1932    3.7340 H   0  0  0  0  0  0  0  0  0  0  0  0
   -1.4511    2.8487    0.5862 H   0  0  0  0  0  0  0  0  0  0  0  0
   -3.0867    3.4958   -1.1685 H   0  0  0  0  0  0  0  0  0  0  0  0
   -2.6464    2.0166   -2.2165 H   0  0  0  0  0  0  0  0  0  0  0  0
   -0.3488    2.9046   -2.4150 H   0  0  0  0  0  0  0  0  0  0  0  0
   -0.7379    4.2266   -1.2630 H   0  0  0  0  0  0  0  0  0  0  0  0
    2.0105    2.0269   -0.2991 H   0  0  0  0  0  0  0  0  0  0  0  0
    4.1299    1.8851    1.0368 H   0  0  0  0  0  0  0  0  0  0  0  0
  1  2  1  0
  2  3  2  0
  2  4  2  0
  2  5  1  0
  5  6  2  0
  6  7  1  0
  7  8  2  0
  8  9  1  0
  9 10  1  0
 10 11  1  0
 11 12  1  0
 12 13  2  0
 13 14  1  0
 14 15  2  0
 15 16  1  0
 16 17  2  0
 11 18  2  0
 18 19  1  0
 19 20  1  0
 20 21  2  0
 21 22  1  0
 22 23  1  0
 23 24  2  0
 23 25  1  0
 22 26  2  0
 26 27  1  0
 19 28  1  0
 28 29  1  0
 29 30  1  0
 30 31  1  0
  8 32  1  0
 32 33  2  0
 33  5  1  0
 28 10  2  0
 31 29  1  0
 17 12  1  0
 27 20  1  0
  1 34  1  0
  1 35  1  0
  6 36  1  0
  7 37  1  0
  9 38  1  0
  9 39  1  0
 13 40  1  0
 14 41  1  0
 15 42  1  0
 16 43  1  0
 17 44  1  0
 25 45  1  0
 26 46  1  0
 29 47  1  0
 30 48  1  0
 30 49  1  0
 31 50  1  0
 31 51  1  0
 32 52  1  0
 33 53  1  0
M  END
$$$$
