@<TRIPOS>MOLECULE
*****
 53 57 0 0 0
SMALL
GASTEIGER

@<TRIPOS>ATOM
      1 N1          7.1564   -0.0952    0.6717 N.3     1  <1>        -0.2035
      2 S1          5.8045   -0.2985    1.6987 S.O2    1  <1>         0.0559
      3 O1          5.9129   -1.6373    2.3694 O.2     1  <1>        -0.1533
      4 O2          5.8555    0.7873    2.7431 O.2     1  <1>        -0.1533
      5 C1          4.3371   -0.1853    0.7756 C.ar    1  <1>         0.1050
      6 C2          3.7965   -1.3154    0.2125 C.ar    1  <1>        -0.0351
      7 C3          2.6217   -1.2237   -0.5255 C.ar    1  <1>        -0.0564
      8 C4          1.9629   -0.0390   -0.7232 C.ar    1  <1>        -0.0428
      9 C5          0.6948    0.0201   -1.5251 C.3     1  <1>         0.0014
     10 C6         -0.4963   -0.1498   -0.7045 C.ar    1  <1>         0.0062
     11 C7         -1.0042   -1.3268   -0.2123 C.ar    1  <1>         0.0969
     12 C8         -0.5366   -2.6968   -0.3900 C.ar    1  <1>         0.0024
     13 C9         -0.3292   -3.5103    0.7313 C.ar    1  <1>        -0.0525
     14 C10         0.0850   -4.8195    0.6255 C.ar    1  <1>        -0.0611
     15 C11         0.3140   -5.3850   -0.6075 C.ar    1  <1>        -0.0617
     16 C12         0.1169   -4.6056   -1.7276 C.ar    1  <1>        -0.0611
     17 C13        -0.2978   -3.2993   -1.5998 C.ar    1  <1>        -0.0525
     18 N2         -2.0678   -1.0385    0.5312 N.ar    1  <1>        -0.1641
     19 N3         -2.2896    0.2640    0.5550 N.ar    1  <1>        -0.2115
     20 C14        -3.3380    0.9492    1.2521 C.ar    1  <1>         0.1947
     21 N4         -4.1803    1.9231    0.8440 N.ar    1  <1>        -0.2145
     22 C15        -5.0605    2.4220    1.6007 C.ar    1  <1>         0.1568
     23 C16        -6.0028    3.5059    1.1631 C.2     1  <1>         0.3559
     24 O3         -6.8633    3.9826    1.9262 O.2     1  <1>        -0.2434
     25 O4         -5.9534    4.0270   -0.1224 O.3     1  <1>        -0.4761
     26 C17        -5.2031    1.9703    2.9381 C.ar    1  <1>         0.0116
     27 S2         -3.8405    0.7119    2.8757 S.2     1  <1>        -0.0554
     28 C18        -1.3149    0.8613   -0.2174 C.ar    1  <1>         0.0543
     29 C19        -1.2922    2.2952   -0.4016 C.3     1  <1>         0.0019
     30 C20        -2.3521    2.7495   -1.4610 C.3     1  <1>        -0.0442
     31 C21        -0.8790    3.1177   -1.4930 C.3     1  <1>        -0.0442
     32 C22         2.5110    1.0901   -0.1555 C.ar    1  <1>        -0.0564
     33 C23         3.6802    1.0096    0.5809 C.ar    1  <1>        -0.0351
     34 H1          6.9783   -0.4904   -0.2897 H       1  <1>         0.1442
     35 H2          7.3782    0.9254    0.6252 H       1  <1>         0.1442
     36 H3          4.2970   -2.2628    0.3538 H       1  <1>         0.0637
     37 H4          2.2522   -2.1444   -0.9412 H       1  <1>         0.0621
     38 H5          0.6999    0.8817   -2.2158 H       1  <1>         0.0363
     39 H6          0.8272   -0.8422   -2.2515 H       1  <1>         0.0363
     40 H7         -0.5105   -3.0598    1.6928 H       1  <1>         0.0624
     41 H8          0.2409   -5.4374    1.5097 H       1  <1>         0.0618
     42 H9          0.6449   -6.4277   -0.7000 H       1  <1>         0.0618
     43 H10         0.2951   -5.0427   -2.7105 H       1  <1>         0.0618
     44 H11        -0.4476   -2.7508   -2.5133 H       1  <1>         0.0624
     45 H12        -6.2641    4.9929   -0.2692 H       1  <1>         0.2955
     46 H13        -5.8089    2.1932    3.7340 H       1  <1>         0.0718
     47 H14        -1.4511    2.8487    0.5862 H       1  <1>         0.0364
     48 H15        -3.0867    3.4958   -1.1685 H       1  <1>         0.0272
     49 H16        -2.6464    2.0166   -2.2165 H       1  <1>         0.0272
     50 H17        -0.3488    2.9046   -2.4150 H       1  <1>         0.0272
     51 H18        -0.7379    4.2266   -1.2630 H       1  <1>         0.0272
     52 H19         2.0105    2.0269   -0.2991 H       1  <1>         0.0621
     53 H20         4.1299    1.8851    1.0368 H       1  <1>         0.0637
@<TRIPOS>BOND
     1     1     2    1
     2     2     3    2
     3     2     4    2
     4     2     5    1
     5     5     6   ar
     6     6     7   ar
     7     7     8   ar
     8     8     9    1
     9     9    10    1
    10    10    11   ar
    11    11    12    1
    12    12    13   ar
    13    13    14   ar
    14    14    15   ar
    15    15    16   ar
    16    16    17   ar
    17    11    18   ar
    18    18    19   ar
    19    19    20    1
    20    20    21   ar
    21    21    22   ar
    22    22    23    1
    23    23    24    2
    24    23    25    1
    25    22    26   ar
    26    26    27   ar
    27    19    28   ar
    28    28    29    1
    29    29    30    1
    30    30    31    1
    31     8    32   ar
    32    32    33   ar
    33    33     5   ar
    34    28    10   ar
    35    31    29    1
    36    17    12   ar
    37    27    20   ar
    38     1    34    1
    39     1    35    1
    40     6    36    1
    41     7    37    1
    42     9    38    1
    43     9    39    1
    44    13    40    1
    45    14    41    1
    46    15    42    1
    47    16    43    1
    48    17    44    1
    49    25    45    1
    50    26    46    1
    51    29    47    1
    52    30    48    1
    53    30    49    1
    54    31    50    1
    55    31    51    1
    56    32    52    1
    57    33    53    1
