
     RDKit          3D

 47 50  0  0  0  0  0  0  0  0999 V2000
   10.0403    2.5245    0.5929 C   0  0  0  0  0  0  0  0  0  0  0  0
    9.0495    1.4676    0.5187 N   0  0  0  0  0  0  0  0  0  0  0  0
    9.2955    0.1271    0.4400 C   0  0  0  0  0  0  0  0  0  0  0  0
    8.0860   -0.4733    0.3912 N   0  0  0  0  0  0  0  0  0  0  0  0
    7.1120    0.4472    0.4370 C   0  0  0  0  0  0  0  0  0  0  0  0
    5.7101    0.1567    0.4049 C   0  0  0  0  0  0  0  0  0  0  0  0
    4.5274   -0.0776    0.3955 C   0  0  0  0  0  0  0  0  0  0  0  0
    3.1011   -0.3600    0.4089 C   0  0  0  0  0  0  0  0  0  0  0  0
    2.6118   -1.2475    1.3434 C   0  0  0  0  0  0  0  0  0  0  0  0
    1.2575   -1.5009    1.3386 C   0  0  0  0  0  0  0  0  0  0  0  0
    0.4223   -0.8929    0.4365 C   0  0  0  0  0  0  0  0  0  0  0  0
   -0.9548   -1.1284    0.4056 C   0  0  0  0  0  0  0  0  0  0  0  0
   -1.4328   -1.9198    1.2296 O   0  0  0  0  0  0  0  0  0  0  0  0
   -1.7563   -0.4938   -0.5202 C   0  0  0  0  0  0  0  0  0  0  0  0
   -3.1882   -0.7156   -0.5797 C   0  0  0  0  0  0  0  0  0  0  0  0
   -3.8152   -0.9212   -1.8132 C   0  0  0  0  0  0  0  0  0  0  0  0
   -5.1757   -1.1322   -1.8735 C   0  0  0  0  0  0  0  0  0  0  0  0
   -5.9708   -1.1493   -0.7275 C   0  0  0  0  0  0  0  0  0  0  0  0
   -7.3592   -1.3626   -0.7883 N   0  0  0  0  0  0  0  0  0  0  0  0
   -8.4155   -0.3683    0.1070 S   0  0  0  0  0  6  0  0  0  0  0  0
   -8.2166    1.3072   -0.4706 C   0  0  0  0  0  0  0  0  0  0  0  0
   -8.1929   -0.4628    1.5798 O   0  0  0  0  0  0  0  0  0  0  0  0
   -9.8430   -0.8179   -0.1668 O   0  0  0  0  0  0  0  0  0  0  0  0
   -5.3663   -0.9496    0.4795 C   0  0  0  0  0  0  0  0  0  0  0  0
   -4.0047   -0.7394    0.5283 C   0  0  0  0  0  0  0  0  0  0  0  0
   -1.1750    0.3741   -1.4110 C   0  0  0  0  0  0  0  0  0  0  0  0
    0.1191    0.5886   -1.3740 O   0  0  0  0  0  0  0  0  0  0  0  0
    0.9030    0.0001   -0.5063 C   0  0  0  0  0  0  0  0  0  0  0  0
    2.2531    0.2433   -0.4905 C   0  0  0  0  0  0  0  0  0  0  0  0
    7.7252    1.6768    0.5178 C   0  0  0  0  0  0  0  0  0  0  0  0
    9.6422    3.3582   -0.0558 H   0  0  0  0  0  0  0  0  0  0  0  0
   10.1294    2.9241    1.6041 H   0  0  0  0  0  0  0  0  0  0  0  0
   11.0022    2.2384    0.1318 H   0  0  0  0  0  0  0  0  0  0  0  0
   10.2775   -0.3227    0.4228 H   0  0  0  0  0  0  0  0  0  0  0  0
    3.2861   -1.7263    2.0574 H   0  0  0  0  0  0  0  0  0  0  0  0
    0.8719   -2.1928    2.0663 H   0  0  0  0  0  0  0  0  0  0  0  0
   -3.2116   -0.9093   -2.6961 H   0  0  0  0  0  0  0  0  0  0  0  0
   -5.6668   -1.2912   -2.8172 H   0  0  0  0  0  0  0  0  0  0  0  0
   -7.7609   -2.1304   -1.3807 H   0  0  0  0  0  0  0  0  0  0  0  0
   -8.6248    1.9771    0.2990 H   0  0  0  0  0  0  0  0  0  0  0  0
   -7.1357    1.5097   -0.6009 H   0  0  0  0  0  0  0  0  0  0  0  0
   -8.7575    1.4450   -1.4135 H   0  0  0  0  0  0  0  0  0  0  0  0
   -5.9387   -0.9557    1.3917 H   0  0  0  0  0  0  0  0  0  0  0  0
   -3.5548   -0.5845    1.4958 H   0  0  0  0  0  0  0  0  0  0  0  0
   -1.8094    0.8718   -2.1385 H   0  0  0  0  0  0  0  0  0  0  0  0
    2.6382    0.9391   -1.2229 H   0  0  0  0  0  0  0  0  0  0  0  0
    7.2655    2.6495    0.5720 H   0  0  0  0  0  0  0  0  0  0  0  0
  1  2  1  0
  2  3  1  0
  3  4  2  0
  4  5  1  0
  5  6  1  0
  6  7  3  0
  7  8  1  0
  8  9  2  0
  9 10  1  0
 10 11  2  0
 11 12  1  0
 12 13  2  0
 12 14  1  0
 14 15  1  0
 15 16  2  0
 16 17  1  0
 17 18  2  0
 18 19  1  0
 19 20  1  0
 20 21  1  0
 20 22  2  0
 20 23  2  0
 18 24  1  0
 24 25  2  0
 14 26  2  0
 26 27  1  0
 27 28  1  0
 28 29  2  0
  5 30  2  0
 30  2  1  0
 29  8  1  0
 28 11  1  0
 25 15  1  0
  1 31  1  0
  1 32  1  0
  1 33  1  0
  3 34  1  0
  9 35  1  0
 10 36  1  0
 16 37  1  0
 17 38  1  0
 19 39  1  0
 21 40  1  0
 21 41  1  0
 21 42  1  0
 24 43  1  0
 25 44  1  0
 26 45  1  0
 29 46  1  0
 30 47  1  0
M  END
$$$$
