@<TRIPOS>MOLECULE
*****
 47 50 0 0 0
SMALL
GASTEIGER

@<TRIPOS>ATOM
      1 C          10.0403    2.5245    0.5929 C.3     1  UNL1        0.0128
      2 N           9.0495    1.4676    0.5187 N.ar    1  UNL1       -0.3386
      3 C           9.2955    0.1271    0.4400 C.ar    1  UNL1        0.0971
      4 N           8.0860   -0.4733    0.3912 N.ar    1  UNL1       -0.2275
      5 C           7.1120    0.4472    0.4370 C.ar    1  UNL1        0.1314
      6 C           5.7101    0.1567    0.4049 C.1     1  UNL1       -0.0397
      7 C           4.5274   -0.0776    0.3955 C.1     1  UNL1       -0.0594
      8 C           3.1011   -0.3600    0.4089 C.ar    1  UNL1        0.0288
      9 C           2.6118   -1.2475    1.3434 C.ar    1  UNL1       -0.0454
     10 C           1.2575   -1.5009    1.3386 C.ar    1  UNL1       -0.0462
     11 C           0.4223   -0.8929    0.4365 C.ar    1  UNL1        0.0646
     12 C          -0.9548   -1.1284    0.4056 C.ar    1  UNL1        0.2001
     13 O          -1.4328   -1.9198    1.2296 O.2     1  UNL1       -0.2864
     14 C          -1.7563   -0.4938   -0.5202 C.ar    1  UNL1        0.0643
     15 C          -3.1882   -0.7156   -0.5797 C.ar    1  UNL1       -0.0112
     16 C          -3.8152   -0.9212   -1.8132 C.ar    1  UNL1       -0.0520
     17 C          -5.1757   -1.1322   -1.8735 C.ar    1  UNL1       -0.0388
     18 C          -5.9708   -1.1493   -0.7275 C.ar    1  UNL1        0.0477
     19 N          -7.3592   -1.3626   -0.7883 N.pl3   1  UNL1       -0.2209
     20 S          -8.4155   -0.3683    0.1070 S.O2    1  UNL1        0.0403
     21 C          -8.2166    1.3072   -0.4706 C.3     1  UNL1        0.0736
     22 O          -8.1929   -0.4628    1.5798 O.2     1  UNL1       -0.1555
     23 O          -9.8430   -0.8179   -0.1668 O.2     1  UNL1       -0.1555
     24 C          -5.3663   -0.9496    0.4795 C.ar    1  UNL1       -0.0388
     25 C          -4.0047   -0.7394    0.5283 C.ar    1  UNL1       -0.0520
     26 C          -1.1750    0.3741   -1.4110 C.ar    1  UNL1        0.1038
     27 O           0.1191    0.5886   -1.3740 O.2     1  UNL1       -0.4621
     28 C           0.9030    0.0001   -0.5063 C.ar    1  UNL1        0.1396
     29 C           2.2531    0.2433   -0.4905 C.ar    1  UNL1       -0.0032
     30 C           7.7252    1.6768    0.5178 C.ar    1  UNL1        0.0394
     31 H           9.6422    3.3582   -0.0558 H       1  UNL1        0.0456
     32 H          10.1294    2.9241    1.6041 H       1  UNL1        0.0456
     33 H          11.0022    2.2384    0.1318 H       1  UNL1        0.0456
     34 H          10.2775   -0.3227    0.4228 H       1  UNL1        0.1029
     35 H           3.2861   -1.7263    2.0574 H       1  UNL1        0.0630
     36 H           0.8719   -2.1928    2.0663 H       1  UNL1        0.0626
     37 H          -3.2116   -0.9093   -2.6961 H       1  UNL1        0.0624
     38 H          -5.6668   -1.2912   -2.8172 H       1  UNL1        0.0637
     39 H          -7.7609   -2.1304   -1.3807 H       1  UNL1        0.1733
     40 H          -8.6248    1.9771    0.2990 H       1  UNL1        0.0482
     41 H          -7.1357    1.5097   -0.6009 H       1  UNL1        0.0482
     42 H          -8.7575    1.4450   -1.4135 H       1  UNL1        0.0482
     43 H          -5.9387   -0.9557    1.3917 H       1  UNL1        0.0637
     44 H          -3.5548   -0.5845    1.4958 H       1  UNL1        0.0624
     45 H          -1.8094    0.8718   -2.1385 H       1  UNL1        0.1037
     46 H           2.6382    0.9391   -1.2229 H       1  UNL1        0.0667
     47 H           7.2655    2.6495    0.5720 H       1  UNL1        0.0837
@<TRIPOS>BOND
     1     1     2    1
     2     2     3   ar
     3     3     4   ar
     4     4     5   ar
     5     5     6    1
     6     6     7    3
     7     7     8    1
     8     8     9   ar
     9     9    10   ar
    10    10    11   ar
    11    11    12   ar
    12    12    13    2
    13    12    14   ar
    14    14    15    1
    15    15    16   ar
    16    16    17   ar
    17    17    18   ar
    18    18    19    1
    19    19    20    1
    20    20    21    1
    21    20    22    2
    22    20    23    2
    23    18    24   ar
    24    24    25   ar
    25    14    26   ar
    26    26    27   ar
    27    27    28   ar
    28    28    29   ar
    29     5    30   ar
    30    30     2   ar
    31    29     8   ar
    32    28    11   ar
    33    25    15   ar
    34     1    31    1
    35     1    32    1
    36     1    33    1
    37     3    34    1
    38     9    35    1
    39    10    36    1
    40    16    37    1
    41    17    38    1
    42    19    39    1
    43    21    40    1
    44    21    41    1
    45    21    42    1
    46    24    43    1
    47    25    44    1
    48    26    45    1
    49    29    46    1
    50    30    47    1
