@<TRIPOS>MOLECULE
*****
 47 50 0 0 0
SMALL
GASTEIGER

@<TRIPOS>ATOM
      1 N          -0.5432   -5.0993   -1.5578 N.1     1  UNL1       -0.1907
      2 C           0.2018   -4.4191   -0.9934 C.1     1  UNL1        0.1045
      3 C           1.1159   -3.5538   -0.2808 C.ar    1  UNL1        0.1157
      4 C           0.9848   -2.2189    0.0435 C.ar    1  UNL1        0.1798
      5 N          -0.0186   -1.3389   -0.2027 N.ar    1  UNL1       -0.1938
      6 C           0.0760   -0.0579    0.2177 C.ar    1  UNL1        0.2201
      7 N          -0.9801    0.8644   -0.0318 N.pl3   1  UNL1       -0.3131
      8 C          -2.1595    0.4149   -0.7357 C.3     1  UNL1        0.0146
      9 C          -3.2073    1.5310   -0.8672 C.3     1  UNL1       -0.0254
     10 C          -3.5823    1.9493    0.5055 C.3     1  UNL1       -0.0488
     11 C          -5.0026    1.8281    0.9032 C.3     1  UNL1       -0.0528
     12 C          -5.8536    0.8953    0.1155 C.3     1  UNL1       -0.0530
     13 C          -5.1449    0.0629   -0.9029 C.3     1  UNL1       -0.0528
     14 C          -4.3087    1.0152   -1.7280 C.3     1  UNL1       -0.0488
     15 N           1.1898    0.2968    0.8782 N.ar    1  UNL1       -0.1808
     16 C           2.1966   -0.5872    1.1251 C.ar    1  UNL1        0.2255
     17 N           3.3857   -0.2217    1.8243 N.pl3   1  UNL1       -0.2835
     18 C           4.6061    0.1922    1.2206 C.ar    1  UNL1        0.0336
     19 C           5.7369    0.5932    1.9100 C.ar    1  UNL1       -0.0405
     20 C           6.8676    0.9640    1.2045 C.ar    1  UNL1       -0.0600
     21 C           6.9298    0.9554   -0.1732 C.ar    1  UNL1       -0.0616
     22 C           5.7630    0.5434   -0.8158 C.ar    1  UNL1       -0.0600
     23 C           4.6085    0.1634   -0.1673 C.ar    1  UNL1       -0.0405
     24 N           2.0962   -1.8612    0.7042 N.ar    1  UNL1       -0.1818
     25 N           2.9134   -2.9118    0.8064 N.ar    1  UNL1       -0.1692
     26 C           2.3349   -3.9791    0.2052 C.ar    1  UNL1        0.0695
     27 H          -0.8597    1.8520    0.3117 H       1  UNL1        0.1489
     28 H          -2.5619   -0.4731   -0.2170 H       1  UNL1        0.0465
     29 H          -1.8154    0.0738   -1.7475 H       1  UNL1        0.0465
     30 H          -2.6885    2.3509   -1.4464 H       1  UNL1        0.0316
     31 H          -3.3201    3.0484    0.5853 H       1  UNL1        0.0268
     32 H          -2.9108    1.4875    1.2843 H       1  UNL1        0.0268
     33 H          -5.0293    1.4315    1.9656 H       1  UNL1        0.0265
     34 H          -5.4940    2.8444    1.0289 H       1  UNL1        0.0265
     35 H          -6.5127    0.2588    0.7483 H       1  UNL1        0.0265
     36 H          -6.5744    1.5388   -0.4714 H       1  UNL1        0.0265
     37 H          -5.9375   -0.3729   -1.5604 H       1  UNL1        0.0265
     38 H          -4.5669   -0.7102   -0.3783 H       1  UNL1        0.0265
     39 H          -3.9076    0.4848   -2.6068 H       1  UNL1        0.0268
     40 H          -4.9762    1.8613   -1.9944 H       1  UNL1        0.0268
     41 H           3.2710   -0.2880    2.8643 H       1  UNL1        0.1550
     42 H           5.6849    0.5989    3.0038 H       1  UNL1        0.0636
     43 H           7.7155    1.2655    1.7994 H       1  UNL1        0.0618
     44 H           7.8192    1.2472   -0.7166 H       1  UNL1        0.0618
     45 H           5.8243    0.5403   -1.9065 H       1  UNL1        0.0618
     46 H           3.7921   -0.1291   -0.8182 H       1  UNL1        0.0636
     47 H           2.8421   -4.9315    0.1816 H       1  UNL1        0.0862
@<TRIPOS>BOND
     1     1     2    3
     2     2     3    1
     3     3     4   ar
     4     4     5   ar
     5     5     6   ar
     6     6     7    1
     7     7     8    1
     8     8     9    1
     9     9    10    1
    10    10    11    1
    11    11    12    1
    12    12    13    1
    13    13    14    1
    14     6    15   ar
    15    15    16   ar
    16    16    17    1
    17    17    18    1
    18    18    19   ar
    19    19    20   ar
    20    20    21   ar
    21    21    22   ar
    22    22    23   ar
    23    16    24   ar
    24    24    25   ar
    25    25    26   ar
    26    26     3   ar
    27    24     4   ar
    28    14     9    1
    29    23    18   ar
    30     7    27    1
    31     8    28    1
    32     8    29    1
    33     9    30    1
    34    10    31    1
    35    10    32    1
    36    11    33    1
    37    11    34    1
    38    12    35    1
    39    12    36    1
    40    13    37    1
    41    13    38    1
    42    14    39    1
    43    14    40    1
    44    17    41    1
    45    19    42    1
    46    20    43    1
    47    21    44    1
    48    22    45    1
    49    23    46    1
    50    26    47    1
