
     RDKit          3D

 44 47  0  0  0  0  0  0  0  0999 V2000
   -2.9923    2.8559   -1.2464 N   0  0  0  0  0  0  0  0  0  0  0  0
   -2.7830    1.5322   -0.7154 C   0  0  0  0  0  0  0  0  0  0  0  0
   -1.5696    1.1720   -0.5339 N   0  0  0  0  0  0  0  0  0  0  0  0
   -1.1939   -0.1168   -0.0096 C   0  0  0  0  0  0  0  0  0  0  0  0
   -0.4716    0.1367    1.3120 C   0  0  0  0  0  0  0  0  0  0  0  0
    0.6603   -0.8324    1.5137 C   0  0  0  0  0  0  0  0  0  0  0  0
    1.6819   -0.5407    0.5183 N   0  0  0  0  0  0  0  0  0  0  0  0
    1.1531   -0.2427   -0.7912 C   0  0  0  0  0  0  0  0  0  0  0  0
   -0.2481   -0.8448   -0.9543 C   0  0  0  0  0  0  0  0  0  0  0  0
    3.0379   -0.5838    0.9300 C   0  0  0  0  0  0  0  0  0  0  0  0
    2.9872   -0.8865    2.1417 O   0  0  0  0  0  0  0  0  0  0  0  0
    4.1442   -0.3083    0.0171 C   0  0  0  0  0  0  0  0  0  0  0  0
    4.2594    0.6097   -1.0255 C   0  0  0  0  0  0  0  0  0  0  0  0
    5.4433    0.6527   -1.7272 C   0  0  0  0  0  0  0  0  0  0  0  0
    6.5026   -0.1671   -1.4389 C   0  0  0  0  0  0  0  0  0  0  0  0
    6.3626   -1.0402   -0.4298 N   0  0  0  0  0  0  0  0  0  0  0  0
    5.2236   -1.1425    0.3098 C   0  0  0  0  0  0  0  0  0  0  0  0
    7.6951   -0.0462   -2.2294 C   0  0  0  0  0  0  0  0  0  0  0  0
    8.6677    0.0643   -2.8573 N   0  0  0  0  0  0  0  0  0  0  0  0
   -2.3990   -0.8826    0.2170 N   0  0  0  0  0  0  0  0  0  0  0  0
   -3.7564   -0.5406    0.0408 C   0  0  0  0  0  0  0  0  0  0  0  0
   -4.8103   -1.3698    0.3183 C   0  0  0  0  0  0  0  0  0  0  0  0
   -4.5475   -2.6002    0.8009 F   0  0  0  0  0  0  0  0  0  0  0  0
   -6.0935   -0.9254    0.1028 C   0  0  0  0  0  0  0  0  0  0  0  0
   -6.2392    0.3542   -0.3898 C   0  0  0  0  0  0  0  0  0  0  0  0
   -5.2229    1.2326   -0.6877 C   0  0  0  0  0  0  0  0  0  0  0  0
   -5.4326    2.4782   -1.1696 F   0  0  0  0  0  0  0  0  0  0  0  0
   -3.9654    0.7270   -0.4498 C   0  0  0  0  0  0  0  0  0  0  0  0
   -2.9588    3.4533   -0.3630 H   0  0  0  0  0  0  0  0  0  0  0  0
   -2.9479    3.3900   -0.3337 H   0  0  0  0  0  0  0  0  0  0  0  0
   -0.0500    1.1590    1.2928 H   0  0  0  0  0  0  0  0  0  0  0  0
   -1.2083    0.0327    2.1188 H   0  0  0  0  0  0  0  0  0  0  0  0
    0.3184   -1.8834    1.4085 H   0  0  0  0  0  0  0  0  0  0  0  0
    1.0916   -0.6095    2.5032 H   0  0  0  0  0  0  0  0  0  0  0  0
    0.9938    0.8498   -0.9434 H   0  0  0  0  0  0  0  0  0  0  0  0
    1.7865   -0.5925   -1.6173 H   0  0  0  0  0  0  0  0  0  0  0  0
   -0.2649   -1.9236   -0.7702 H   0  0  0  0  0  0  0  0  0  0  0  0
   -0.5723   -0.6161   -1.9856 H   0  0  0  0  0  0  0  0  0  0  0  0
    3.3528    1.1839   -1.1355 H   0  0  0  0  0  0  0  0  0  0  0  0
    5.4522    1.3953   -2.5315 H   0  0  0  0  0  0  0  0  0  0  0  0
    5.2828   -1.9003    1.0882 H   0  0  0  0  0  0  0  0  0  0  0  0
   -2.1485   -1.8338    0.5641 H   0  0  0  0  0  0  0  0  0  0  0  0
   -6.9514   -1.5481    0.3071 H   0  0  0  0  0  0  0  0  0  0  0  0
   -7.2697    0.6986   -0.5607 H   0  0  0  0  0  0  0  0  0  0  0  0
  1  2  1  0
  2  3  2  0
  3  4  1  0
  4  5  1  0
  5  6  1  0
  6  7  1  0
  7  8  1  0
  8  9  1  0
  7 10  1  0
 10 11  2  0
 10 12  1  0
 12 13  2  0
 13 14  1  0
 14 15  2  0
 15 16  1  0
 16 17  2  0
 15 18  1  0
 18 19  3  0
  4 20  1  0
 20 21  1  0
 21 22  2  0
 22 23  1  0
 22 24  1  0
 24 25  2  0
 25 26  1  0
 26 27  1  0
 26 28  2  0
 28  2  1  0
  9  4  1  0
 17 12  1  0
 28 21  1  0
  1 29  1  0
  1 30  1  0
  5 31  1  0
  5 32  1  0
  6 33  1  0
  6 34  1  0
  8 35  1  0
  8 36  1  0
  9 37  1  0
  9 38  1  0
 13 39  1  0
 14 40  1  0
 17 41  1  0
 20 42  1  0
 24 43  1  0
 25 44  1  0
M  END
$$$$
