@<TRIPOS>MOLECULE
*****
 44 47 0 0 0
SMALL
GASTEIGER

@<TRIPOS>ATOM
      1 N          -2.9923    2.8559   -1.2464 N.pl3   1  UNL1       -0.2463
      2 C          -2.7830    1.5322   -0.7154 C.2     1  UNL1        0.3178
      3 N          -1.5696    1.1720   -0.5339 N.2     1  UNL1       -0.0561
      4 C          -1.1939   -0.1168   -0.0096 C.3     1  UNL1        0.2199
      5 C          -0.4716    0.1367    1.3120 C.3     1  UNL1        0.0281
      6 C           0.6603   -0.8324    1.5137 C.3     1  UNL1        0.0208
      7 N           1.6819   -0.5407    0.5183 N.am    1  UNL1       -0.2971
      8 C           1.1531   -0.2427   -0.7912 C.3     1  UNL1        0.0208
      9 C          -0.2481   -0.8448   -0.9543 C.3     1  UNL1        0.0281
     10 C           3.0379   -0.5838    0.9300 C.2     1  UNL1        0.2481
     11 O           2.9872   -0.8865    2.1417 O.2     1  UNL1       -0.2699
     12 C           4.1442   -0.3083    0.0171 C.ar    1  UNL1        0.0550
     13 C           4.2594    0.6097   -1.0255 C.ar    1  UNL1       -0.0455
     14 C           5.4433    0.6527   -1.7272 C.ar    1  UNL1       -0.0251
     15 C           6.5026   -0.1671   -1.4389 C.ar    1  UNL1        0.1401
     16 N           6.3626   -1.0402   -0.4298 N.ar    1  UNL1       -0.2439
     17 C           5.2236   -1.1425    0.3098 C.ar    1  UNL1        0.0411
     18 C           7.6951   -0.0462   -2.2294 C.1     1  UNL1        0.1191
     19 N           8.6677    0.0643   -2.8573 N.1     1  UNL1       -0.1893
     20 N          -2.3990   -0.8826    0.2170 N.pl3   1  UNL1       -0.2974
     21 C          -3.7564   -0.5406    0.0408 C.ar    1  UNL1        0.0839
     22 C          -4.8103   -1.3698    0.3183 C.ar    1  UNL1        0.1452
     23 F          -4.5475   -2.6002    0.8009 F       1  UNL1       -0.2035
     24 C          -6.0935   -0.9254    0.1028 C.ar    1  UNL1       -0.0219
     25 C          -6.2392    0.3542   -0.3898 C.ar    1  UNL1       -0.0228
     26 C          -5.2229    1.2326   -0.6877 C.ar    1  UNL1        0.1402
     27 F          -5.4326    2.4782   -1.1696 F       1  UNL1       -0.2045
     28 C          -3.9654    0.7270   -0.4498 C.ar    1  UNL1        0.1236
     29 H          -2.9588    3.4533   -0.3630 H       1  UNL1        0.2884
     30 H          -2.9479    3.3900   -0.3337 H       1  UNL1        0.2884
     31 H          -0.0500    1.1590    1.2928 H       1  UNL1        0.0343
     32 H          -1.2083    0.0327    2.1188 H       1  UNL1        0.0343
     33 H           0.3184   -1.8834    1.4085 H       1  UNL1        0.0467
     34 H           1.0916   -0.6095    2.5032 H       1  UNL1        0.0467
     35 H           0.9938    0.8498   -0.9434 H       1  UNL1        0.0467
     36 H           1.7865   -0.5925   -1.6173 H       1  UNL1        0.0467
     37 H          -0.2649   -1.9236   -0.7702 H       1  UNL1        0.0343
     38 H          -0.5723   -0.6161   -1.9856 H       1  UNL1        0.0343
     39 H           3.3528    1.1839   -1.1355 H       1  UNL1        0.0626
     40 H           5.4522    1.3953   -2.5315 H       1  UNL1        0.0646
     41 H           5.2828   -1.9003    1.0882 H       1  UNL1        0.0837
     42 H          -2.1485   -1.8338    0.5641 H       1  UNL1        0.1505
     43 H          -6.9514   -1.5481    0.3071 H       1  UNL1        0.0648
     44 H          -7.2697    0.6986   -0.5607 H       1  UNL1        0.0647
@<TRIPOS>BOND
     1     1     2    1
     2     2     3    2
     3     3     4    1
     4     4     5    1
     5     5     6    1
     6     6     7    1
     7     7     8    1
     8     8     9    1
     9     7    10   am
    10    10    11    2
    11    10    12    1
    12    12    13   ar
    13    13    14   ar
    14    14    15   ar
    15    15    16   ar
    16    16    17   ar
    17    15    18    1
    18    18    19    3
    19     4    20    1
    20    20    21    1
    21    21    22   ar
    22    22    23    1
    23    22    24   ar
    24    24    25   ar
    25    25    26   ar
    26    26    27    1
    27    26    28   ar
    28    28     2    1
    29     9     4    1
    30    17    12   ar
    31    28    21   ar
    32     1    29    1
    33     1    30    1
    34     5    31    1
    35     5    32    1
    36     6    33    1
    37     6    34    1
    38     8    35    1
    39     8    36    1
    40     9    37    1
    41     9    38    1
    42    13    39    1
    43    14    40    1
    44    17    41    1
    45    20    42    1
    46    24    43    1
    47    25    44    1
