
     RDKit          3D

 91 95  0  0  0  0  0  0  0  0999 V2000
    4.3146    0.1266   -1.3182 C   0  0  1  0  0  0  0  0  0  0  0  0
    3.5106   -0.6647   -2.2725 C   0  0  0  0  0  0  0  0  0  0  0  0
    2.0309   -0.7194   -2.0392 C   0  0  0  0  0  0  0  0  0  0  0  0
    1.6788   -0.6332   -0.5361 C   0  0  1  0  0  0  0  0  0  0  0  0
    2.3027   -1.7939    0.1016 C   0  0  0  0  0  0  0  0  0  0  0  0
    2.1459    0.7388   -0.1895 C   0  0  1  0  0  0  0  0  0  0  0  0
    1.6034    1.2622    1.1067 C   0  0  0  0  0  0  0  0  0  0  0  0
    0.0917    1.2874    0.9797 C   0  0  0  0  0  0  0  0  0  0  0  0
   -0.4593   -0.1413    0.7673 C   0  0  2  0  0  0  0  0  0  0  0  0
   -0.0048   -0.8580    2.0161 C   0  0  0  0  0  0  0  0  0  0  0  0
    0.1697   -0.5707   -0.4924 C   0  0  2  0  0  0  0  0  0  0  0  0
   -0.4747   -1.7465   -1.0788 C   0  0  0  0  0  0  0  0  0  0  0  0
    0.0424   -2.8433   -1.4076 O   0  0  0  0  0  0  0  0  0  0  0  0
   -1.9072   -1.6215   -1.3090 C   0  0  0  0  0  0  0  0  0  0  0  0
   -2.5768   -0.8510   -0.4221 C   0  0  0  0  0  0  0  0  0  0  0  0
   -4.0426   -0.7104   -0.6393 C   0  0  2  0  0  0  0  0  0  0  0  0
   -4.4776    0.5179   -1.3414 C   0  0  0  0  0  0  0  0  0  0  0  0
   -5.8063    1.0626   -0.9772 C   0  0  2  0  0  0  0  0  0  0  0  0
   -5.7895    2.5941   -1.1216 C   0  0  0  0  0  0  0  0  0  0  0  0
   -6.3095    0.7992    0.3922 C   0  0  0  0  0  0  0  0  0  0  0  0
   -6.1752   -0.6333    0.7211 C   0  0  0  0  0  0  0  0  0  0  0  0
   -4.7416   -1.0801    0.6211 C   0  0  1  0  0  0  0  0  0  0  0  0
   -4.8897   -2.6289    0.6302 C   0  0  0  0  0  0  0  0  0  0  0  0
   -4.0568   -0.7867    1.8933 C   0  0  0  0  0  0  0  0  0  0  0  0
   -2.5625   -0.9958    1.8974 C   0  0  0  0  0  0  0  0  0  0  0  0
   -1.9322   -0.1703    0.7501 C   0  0  1  0  0  0  0  0  0  0  0  0
   -2.4398    1.2152    1.0278 C   0  0  0  0  0  0  0  0  0  0  0  0
   -6.8704    0.6333   -1.9597 C   0  0  0  0  0  0  0  0  0  0  0  0
   -6.5675    1.0831   -3.2594 O   0  0  0  0  0  0  0  0  0  0  0  0
   -7.9356   -0.0234   -1.8501 O   0  0  0  0  0  0  0  0  0  0  0  0
    3.5799    1.0559   -0.4331 C   0  0  0  0  0  0  0  0  0  0  0  0
    3.7143    2.4716   -1.0277 C   0  0  0  0  0  0  0  0  0  0  0  0
    4.2892    1.1998    0.9061 C   0  0  0  0  0  0  0  0  0  0  0  0
    5.1661   -0.6721   -0.4854 O   0  0  0  0  0  0  0  0  0  0  0  0
    6.5308   -0.6589   -0.5214 C   0  0  0  0  0  0  0  0  0  0  0  0
    7.0493    0.1084   -1.3429 O   0  0  0  0  0  0  0  0  0  0  0  0
    7.2443   -1.5539    0.4156 C   0  0  0  0  0  0  0  0  0  0  0  0
    7.6576   -0.7547    1.6309 C   0  0  0  0  0  0  0  0  0  0  0  0
    8.5544    0.3734    1.3217 C   0  0  0  0  0  0  0  0  0  0  0  0
    8.9479    1.1270    2.4011 O   0  0  0  0  0  0  0  0  0  0  0  0
    9.0429    0.7907    0.2265 O   0  0  0  0  0  0  0  0  0  0  0  0
    5.0678    0.6990   -1.9406 H   0  0  0  0  0  0  0  0  0  0  0  0
    3.9370   -1.7114   -2.2671 H   0  0  0  0  0  0  0  0  0  0  0  0
    3.6375   -0.3522   -3.3397 H   0  0  0  0  0  0  0  0  0  0  0  0
    1.6587   -1.6259   -2.5078 H   0  0  0  0  0  0  0  0  0  0  0  0
    1.5915    0.1871   -2.5121 H   0  0  0  0  0  0  0  0  0  0  0  0
    3.0145   -1.6327    0.9158 H   0  0  0  0  0  0  0  0  0  0  0  0
    1.4847   -2.5184    0.3978 H   0  0  0  0  0  0  0  0  0  0  0  0
    2.8910   -2.4430   -0.6189 H   0  0  0  0  0  0  0  0  0  0  0  0
    1.5811    1.3759   -0.9482 H   0  0  0  0  0  0  0  0  0  0  0  0
    2.0032    0.8557    2.0165 H   0  0  0  0  0  0  0  0  0  0  0  0
    1.8881    2.3596    1.1171 H   0  0  0  0  0  0  0  0  0  0  0  0
   -0.2924    1.7745    1.8590 H   0  0  0  0  0  0  0  0  0  0  0  0
   -0.0614    1.8366    0.0049 H   0  0  0  0  0  0  0  0  0  0  0  0
   -0.2659   -0.1745    2.8608 H   0  0  0  0  0  0  0  0  0  0  0  0
   -0.4240   -1.8671    2.1394 H   0  0  0  0  0  0  0  0  0  0  0  0
    1.0961   -0.9256    2.1329 H   0  0  0  0  0  0  0  0  0  0  0  0
   -0.0163    0.2867   -1.2143 H   0  0  0  0  0  0  0  0  0  0  0  0
   -2.4613   -2.1066   -2.1338 H   0  0  0  0  0  0  0  0  0  0  0  0
   -4.3749   -1.5191   -1.3716 H   0  0  0  0  0  0  0  0  0  0  0  0
   -3.7287    1.3594   -1.3456 H   0  0  0  0  0  0  0  0  0  0  0  0
   -4.5627    0.3877   -2.4757 H   0  0  0  0  0  0  0  0  0  0  0  0
   -6.5732    3.0612   -0.4664 H   0  0  0  0  0  0  0  0  0  0  0  0
   -6.0036    2.9144   -2.1478 H   0  0  0  0  0  0  0  0  0  0  0  0
   -4.8292    2.9957   -0.7480 H   0  0  0  0  0  0  0  0  0  0  0  0
   -5.8582    1.5217    1.0923 H   0  0  0  0  0  0  0  0  0  0  0  0
   -7.4040    1.1095    0.3768 H   0  0  0  0  0  0  0  0  0  0  0  0
   -6.5155   -0.8529    1.7631 H   0  0  0  0  0  0  0  0  0  0  0  0
   -6.8385   -1.2029    0.0259 H   0  0  0  0  0  0  0  0  0  0  0  0
   -5.5871   -2.9634    1.3971 H   0  0  0  0  0  0  0  0  0  0  0  0
   -5.2655   -2.8566   -0.3992 H   0  0  0  0  0  0  0  0  0  0  0  0
   -3.8840   -3.0840    0.7550 H   0  0  0  0  0  0  0  0  0  0  0  0
   -4.2913    0.1734    2.3898 H   0  0  0  0  0  0  0  0  0  0  0  0
   -4.4059   -1.5233    2.6895 H   0  0  0  0  0  0  0  0  0  0  0  0
   -2.3485   -2.0611    1.6515 H   0  0  0  0  0  0  0  0  0  0  0  0
   -2.1980   -0.7461    2.8774 H   0  0  0  0  0  0  0  0  0  0  0  0
   -2.2265    1.3718    2.1325 H   0  0  0  0  0  0  0  0  0  0  0  0
   -3.5270    1.3452    0.9816 H   0  0  0  0  0  0  0  0  0  0  0  0
   -1.9479    2.0355    0.5197 H   0  0  0  0  0  0  0  0  0  0  0  0
   -7.2161    0.9512   -4.0352 H   0  0  0  0  0  0  0  0  0  0  0  0
    4.7866    2.7770   -0.9895 H   0  0  0  0  0  0  0  0  0  0  0  0
    3.0492    3.1890   -0.5346 H   0  0  0  0  0  0  0  0  0  0  0  0
    3.4915    2.3698   -2.1152 H   0  0  0  0  0  0  0  0  0  0  0  0
    4.2318    0.3295    1.5495 H   0  0  0  0  0  0  0  0  0  0  0  0
    3.9451    2.1574    1.3653 H   0  0  0  0  0  0  0  0  0  0  0  0
    5.3673    1.3515    0.6650 H   0  0  0  0  0  0  0  0  0  0  0  0
    6.5878   -2.3641    0.7898 H   0  0  0  0  0  0  0  0  0  0  0  0
    8.1715   -1.9738   -0.0260 H   0  0  0  0  0  0  0  0  0  0  0  0
    8.0550   -1.4032    2.4402 H   0  0  0  0  0  0  0  0  0  0  0  0
    6.7035   -0.3199    2.0457 H   0  0  0  0  0  0  0  0  0  0  0  0
    9.2191    2.1172    2.2956 H   0  0  0  0  0  0  0  0  0  0  0  0
  1  2  1  0
  2  3  1  0
  3  4  1  0
  4  5  1  1
  4  6  1  0
  6  7  1  0
  7  8  1  0
  8  9  1  0
  9 10  1  1
  9 11  1  0
 11 12  1  0
 12 13  2  0
 12 14  1  0
 14 15  2  0
 15 16  1  0
 16 17  1  0
 17 18  1  0
 18 19  1  1
 18 20  1  0
 20 21  1  0
 21 22  1  0
 22 23  1  6
 22 24  1  0
 24 25  1  0
 25 26  1  0
 26 27  1  1
 18 28  1  0
 28 29  1  0
 28 30  2  0
  6 31  1  0
 31 32  1  0
 31 33  1  0
  1 34  1  0
 34 35  1  0
 35 36  2  0
 35 37  1  0
 37 38  1  0
 38 39  1  0
 39 40  1  0
 39 41  2  0
 31  1  1  0
 11  4  1  0
 26 15  1  0
 26  9  1  0
 22 16  1  0
  1 42  1  6
  2 43  1  0
  2 44  1  0
  3 45  1  0
  3 46  1  0
  5 47  1  0
  5 48  1  0
  5 49  1  0
  6 50  1  6
  7 51  1  0
  7 52  1  0
  8 53  1  0
  8 54  1  0
 10 55  1  0
 10 56  1  0
 10 57  1  0
 11 58  1  6
 14 59  1  0
 16 60  1  6
 17 61  1  0
 17 62  1  0
 19 63  1  0
 19 64  1  0
 19 65  1  0
 20 66  1  0
 20 67  1  0
 21 68  1  0
 21 69  1  0
 23 70  1  0
 23 71  1  0
 23 72  1  0
 24 73  1  0
 24 74  1  0
 25 75  1  0
 25 76  1  0
 27 77  1  0
 27 78  1  0
 27 79  1  0
 29 80  1  0
 32 81  1  0
 32 82  1  0
 32 83  1  0
 33 84  1  0
 33 85  1  0
 33 86  1  0
 37 87  1  0
 37 88  1  0
 38 89  1  0
 38 90  1  0
 40 91  1  0
M  END
$$$$
