
     RDKit          3D

 32 35  0  0  0  0  0  0  0  0999 V2000
   -1.1552    2.9312   -0.1983 O   0  0  0  0  0  0  0  0  0  0  0  0
   -0.4837    1.7757   -0.1756 N   0  0  0  0  0  0  0  0  0  0  0  0
   -0.8901    0.6079   -0.1392 C   0  0  0  0  0  0  0  0  0  0  0  0
   -0.2716   -0.6801   -0.1123 C   0  0  0  0  0  0  0  0  0  0  0  0
   -1.3556   -1.5896   -0.0744 N   0  0  0  0  0  0  0  0  0  0  0  0
   -2.6260   -0.9509   -0.0758 C   0  0  0  0  0  0  0  0  0  0  0  0
   -2.3222    0.4126   -0.1162 C   0  0  0  0  0  0  0  0  0  0  0  0
   -3.4611    1.2229   -0.1238 C   0  0  0  0  0  0  0  0  0  0  0  0
   -4.7528    0.7599   -0.0953 C   0  0  0  0  0  0  0  0  0  0  0  0
   -4.9290   -0.6061   -0.0564 C   0  0  0  0  0  0  0  0  0  0  0  0
   -3.8886   -1.5038   -0.0452 C   0  0  0  0  0  0  0  0  0  0  0  0
    0.9845   -0.9892   -0.1197 C   0  0  0  0  0  0  0  0  0  0  0  0
    1.5316   -2.3338   -0.0904 C   0  0  0  0  0  0  0  0  0  0  0  0
    0.9275   -3.4341   -0.0532 O   0  0  0  0  0  0  0  0  0  0  0  0
    2.9495   -2.2433   -0.1106 N   0  0  0  0  0  0  0  0  0  0  0  0
    3.2157   -0.8304   -0.1519 C   0  0  0  0  0  0  0  0  0  0  0  0
    2.0661   -0.0800   -0.1577 C   0  0  0  0  0  0  0  0  0  0  0  0
    2.3003    1.2421   -0.1962 C   0  0  0  0  0  0  0  0  0  0  0  0
    3.5187    1.8458   -0.2277 C   0  0  0  0  0  0  0  0  0  0  0  0
    4.6749    1.0520   -0.2208 C   0  0  0  0  0  0  0  0  0  0  0  0
    6.4237    1.7984   -0.2627 Br  0  0  0  0  0  0  0  0  0  0  0  0
    4.5168   -0.3160   -0.1820 C   0  0  0  0  0  0  0  0  0  0  0  0
   -1.1656    3.4651   -1.0569 H   0  0  0  0  0  0  0  0  0  0  0  0
   -1.2280   -2.6236   -0.0482 H   0  0  0  0  0  0  0  0  0  0  0  0
   -3.3623    2.2886   -0.1536 H   0  0  0  0  0  0  0  0  0  0  0  0
   -5.5999    1.4210   -0.1026 H   0  0  0  0  0  0  0  0  0  0  0  0
   -5.9220   -1.0100   -0.0333 H   0  0  0  0  0  0  0  0  0  0  0  0
   -4.0317   -2.5739   -0.0147 H   0  0  0  0  0  0  0  0  0  0  0  0
    3.6029   -3.0559   -0.0969 H   0  0  0  0  0  0  0  0  0  0  0  0
    1.5755    1.9885   -0.2072 H   0  0  0  0  0  0  0  0  0  0  0  0
    3.7557    2.9171   -0.2594 H   0  0  0  0  0  0  0  0  0  0  0  0
    5.4016   -0.9080   -0.1771 H   0  0  0  0  0  0  0  0  0  0  0  0
  1  2  1  0
  2  3  2  0
  3  4  1  0
  4  5  1  0
  5  6  1  0
  6  7  2  0
  7  8  1  0
  8  9  2  0
  9 10  1  0
 10 11  2  0
  4 12  2  0
 12 13  1  0
 13 14  2  0
 13 15  1  0
 15 16  1  0
 16 17  2  0
 17 18  1  0
 18 19  2  0
 19 20  1  0
 20 21  1  0
 20 22  2  0
  7  3  1  0
 17 12  1  0
 11  6  1  0
 22 16  1  0
  1 23  1  0
  5 24  1  0
  8 25  1  0
  9 26  1  0
 10 27  1  0
 11 28  1  0
 15 29  1  0
 18 30  1  0
 19 31  1  0
 22 32  1  0
M  END
$$$$
