@<TRIPOS>MOLECULE
*****
 25 25 0 0 0
SMALL
GASTEIGER

@<TRIPOS>ATOM
      1 C          -1.5613   -0.4497   -0.1156 C.3     1  UNL1        0.0575
      2 C          -2.8229   -1.0277    0.4991 C.3     1  UNL1       -0.0520
      3 C          -0.4041   -0.5832    0.8192 C.3     1  UNL1       -0.0116
      4 C           0.8729   -0.0576    0.3253 C.ar    1  UNL1       -0.0052
      5 C           1.4728    1.1309    0.7090 C.ar    1  UNL1       -0.0551
      6 C           2.6795    1.5714    0.2077 C.ar    1  UNL1       -0.0613
      7 C           3.3439    0.7995   -0.7301 C.ar    1  UNL1       -0.0583
      8 C           2.7883   -0.4069   -1.1537 C.ar    1  UNL1       -0.0199
      9 C           1.5755   -0.7900   -0.6117 C.ar    1  UNL1        0.1200
     10 O           1.1047   -2.0186   -1.1062 O.3     1  UNL1       -0.5065
     11 C          -1.8290    0.9611   -0.4918 C.2     1  UNL1        0.3079
     12 O          -2.8393    1.2460   -1.3998 O.3     1  UNL1       -0.4804
     13 O          -1.2845    2.0574   -0.1288 O.2     1  UNL1       -0.2507
     14 H          -1.3736   -1.0703   -1.0275 H       1  UNL1        0.0414
     15 H          -2.6542   -2.0427    0.8992 H       1  UNL1        0.0238
     16 H          -3.0766   -0.3870    1.3853 H       1  UNL1        0.0238
     17 H          -3.6548   -1.0426   -0.2124 H       1  UNL1        0.0238
     18 H          -0.2821   -1.6747    1.0366 H       1  UNL1        0.0322
     19 H          -0.6925   -0.0991    1.7709 H       1  UNL1        0.0322
     20 H           0.9446    1.7270    1.4443 H       1  UNL1        0.0621
     21 H           3.0512    2.5079    0.5766 H       1  UNL1        0.0618
     22 H           4.2835    1.1930   -1.0915 H       1  UNL1        0.0619
     23 H           3.3326   -0.9744   -1.8768 H       1  UNL1        0.0654
     24 H           0.4887   -2.6157   -0.6079 H       1  UNL1        0.2921
     25 H          -3.4630    2.0462   -1.2814 H       1  UNL1        0.2951
@<TRIPOS>BOND
     1     1     2    1
     2     1     3    1
     3     3     4    1
     4     4     5   ar
     5     5     6   ar
     6     6     7   ar
     7     7     8   ar
     8     8     9   ar
     9     9    10    1
    10     1    11    1
    11    11    12    1
    12    11    13    2
    13     9     4   ar
    14     1    14    1
    15     2    15    1
    16     2    16    1
    17     2    17    1
    18     3    18    1
    19     3    19    1
    20     5    20    1
    21     6    21    1
    22     7    22    1
    23     8    23    1
    24    10    24    1
    25    12    25    1
