@<TRIPOS>MOLECULE
*****
 52 54 0 0 0
SMALL
GASTEIGER

@<TRIPOS>ATOM
      1 C          -5.7590    1.8050   -1.2442 C.3     1  UNL1       -0.0394
      2 C          -4.5645    1.1287   -0.6825 C.ar    1  UNL1       -0.0454
      3 C          -4.1900   -0.1131   -1.1277 C.ar    1  UNL1       -0.0311
      4 C          -3.0803   -0.7281   -0.5984 C.ar    1  UNL1        0.0886
      5 C          -2.2741   -0.1637    0.3953 C.ar    1  UNL1        0.0694
      6 C          -2.7221    1.0814    0.7842 C.ar    1  UNL1       -0.0329
      7 C          -3.8152    1.7326    0.2902 C.ar    1  UNL1       -0.0455
      8 C          -4.2399    3.0838    0.7611 C.3     1  UNL1       -0.0394
      9 N          -1.1892   -0.7775    0.9214 N.ar    1  UNL1       -0.3195
     10 C          -0.4283   -0.1006    1.9264 C.3     1  UNL1        0.0538
     11 C           0.6644    0.7296    1.3464 C.3     1  UNL1        0.1014
     12 O           0.1946    1.6864    0.4422 O.3     1  UNL1       -0.3874
     13 C           1.7839   -0.0442    0.7303 C.3     1  UNL1        0.1106
     14 O           2.3628   -0.9658    1.5937 O.3     1  UNL1       -0.3865
     15 C           2.8782    0.9706    0.3701 C.3     1  UNL1        0.1073
     16 O           2.2750    1.8854   -0.4966 O.3     1  UNL1       -0.3868
     17 C           4.0312    0.2636   -0.3199 C.3     1  UNL1        0.0875
     18 O           4.9495    1.2273   -0.6991 O.3     1  UNL1       -0.2841
     19 P           6.2904    0.6115   -1.4786 P.3     1  UNL1        0.4724
     20 O           7.6934    1.5076   -1.1681 O.3     1  UNL1       -0.3026
     21 O           6.5642   -1.0149   -1.1154 O.3     1  UNL1       -0.3026
     22 O           6.0325    0.6987   -2.9767 O.2     1  UNL1       -0.2275
     23 C          -0.9933   -1.9849    0.3734 C.ar    1  UNL1        0.1705
     24 N           0.0410   -2.7145    0.8121 N.ar    1  UNL1       -0.1733
     25 C           0.3064   -3.9280    0.3335 C.ar    1  UNL1        0.3505
     26 O           1.3078   -4.5274    0.8199 O.2     1  UNL1       -0.2446
     27 N          -0.4007   -4.5563   -0.6158 N.ar    1  UNL1       -0.2717
     28 C          -1.4612   -3.8840   -1.1086 C.ar    1  UNL1        0.2817
     29 O          -2.1922   -4.3897   -2.0069 O.2     1  UNL1       -0.2653
     30 C          -1.7841   -2.6296   -0.6534 C.ar    1  UNL1        0.1712
     31 N          -2.8479   -1.9580   -1.1315 N.ar    1  UNL1       -0.2368
     32 H          -6.3849    2.2270   -0.4193 H       1  UNL1        0.0278
     33 H          -5.4640    2.5926   -1.9633 H       1  UNL1        0.0278
     34 H          -6.3674    1.0440   -1.7746 H       1  UNL1        0.0278
     35 H          -4.8052   -0.5503   -1.8905 H       1  UNL1        0.0642
     36 H          -2.2079    1.6315    1.5564 H       1  UNL1        0.0641
     37 H          -4.6752    2.9971    1.7797 H       1  UNL1        0.0278
     38 H          -3.3013    3.6976    0.8774 H       1  UNL1        0.0278
     39 H          -4.8802    3.5888    0.0382 H       1  UNL1        0.0278
     40 H           0.0887   -0.8856    2.5744 H       1  UNL1        0.0519
     41 H          -1.0402    0.4554    2.6756 H       1  UNL1        0.0519
     42 H           1.0912    1.3313    2.2081 H       1  UNL1        0.0638
     43 H           0.0064    1.3233   -0.4571 H       1  UNL1        0.2100
     44 H           1.4522   -0.5341   -0.2181 H       1  UNL1        0.0646
     45 H           2.7984   -1.7047    1.0930 H       1  UNL1        0.2100
     46 H           3.2140    1.4892    1.2839 H       1  UNL1        0.0643
     47 H           2.4947    2.8065   -0.2119 H       1  UNL1        0.2100
     48 H           3.6147   -0.2417   -1.2224 H       1  UNL1        0.0592
     49 H           4.4318   -0.4807    0.3909 H       1  UNL1        0.0592
     50 H           7.4796    2.2109   -0.5007 H       1  UNL1        0.2220
     51 H           7.1630   -1.4288   -1.7558 H       1  UNL1        0.2220
     52 H          -0.1416   -5.5015   -0.9456 H       1  UNL1        0.1735
@<TRIPOS>BOND
     1     1     2    1
     2     2     3   ar
     3     3     4   ar
     4     4     5   ar
     5     5     6   ar
     6     6     7   ar
     7     7     8    1
     8     5     9   ar
     9     9    10    1
    10    10    11    1
    11    11    12    1
    12    11    13    1
    13    13    14    1
    14    13    15    1
    15    15    16    1
    16    15    17    1
    17    17    18    1
    18    18    19    1
    19    19    20    1
    20    19    21    1
    21    19    22    2
    22     9    23   ar
    23    23    24   ar
    24    24    25   ar
    25    25    26    2
    26    25    27   ar
    27    27    28   ar
    28    28    29    2
    29    28    30   ar
    30    30    31   ar
    31     7     2   ar
    32    30    23    1
    33    31     4   ar
    34     1    32    1
    35     1    33    1
    36     1    34    1
    37     3    35    1
    38     6    36    1
    39     8    37    1
    40     8    38    1
    41     8    39    1
    42    10    40    1
    43    10    41    1
    44    11    42    1
    45    12    43    1
    46    13    44    1
    47    14    45    1
    48    15    46    1
    49    16    47    1
    50    17    48    1
    51    17    49    1
    52    20    50    1
    53    21    51    1
    54    27    52    1
