@<TRIPOS>MOLECULE
*****
 59 63 0 0 0
SMALL
GASTEIGER

@<TRIPOS>ATOM
      1 I           1.7293    4.3593   -0.5847 I       1  UNL1       -0.0435
      2 C           2.7477    3.1453    0.7975 C.ar    1  UNL1        0.0178
      3 C           3.4895    3.7590    1.7749 C.ar    1  UNL1       -0.0483
      4 C           4.1537    2.9529    2.6773 C.ar    1  UNL1       -0.0608
      5 C           4.0934    1.5774    2.6248 C.ar    1  UNL1       -0.0614
      6 C           3.3447    0.9590    1.6385 C.ar    1  UNL1       -0.0564
      7 C           2.6879    1.7454    0.7462 C.ar    1  UNL1       -0.0205
      8 C           1.8418    1.2148   -0.3761 C.3     1  UNL1        0.0225
      9 N           1.7881   -0.1752   -0.4461 N.3     1  UNL1       -0.3075
     10 C           1.0355   -0.8860   -1.3562 C.3     1  UNL1        0.0272
     11 C           1.1205   -0.5276   -2.8287 C.3     1  UNL1       -0.0218
     12 C           0.2708   -1.6446   -3.4917 C.3     1  UNL1       -0.0358
     13 C          -1.2069   -1.3820   -3.2406 C.3     1  UNL1       -0.0004
     14 N          -1.2769   -0.5638   -2.0061 N.3     1  UNL1       -0.2970
     15 C          -0.8988    0.7482   -2.4391 C.3     1  UNL1       -0.0004
     16 C           0.4082    0.7157   -3.2220 C.3     1  UNL1       -0.0358
     17 C          -0.4052   -1.2208   -1.0762 C.3     1  UNL1        0.0368
     18 C          -0.8111   -1.2860    0.3423 C.3     1  UNL1        0.0262
     19 C          -0.7151   -0.1132    1.1916 C.ar    1  UNL1       -0.0384
     20 C           0.1719   -0.0924    2.2508 C.ar    1  UNL1       -0.0579
     21 C           0.3024    0.9635    3.1218 C.ar    1  UNL1       -0.0615
     22 C          -0.5013    2.0684    2.9253 C.ar    1  UNL1       -0.0617
     23 C          -1.3953    2.0999    1.8933 C.ar    1  UNL1       -0.0615
     24 C          -1.4881    1.0179    1.0493 C.ar    1  UNL1       -0.0579
     25 C          -2.1388   -1.9055    0.5997 C.ar    1  UNL1       -0.0384
     26 C          -3.2813   -1.5348   -0.0787 C.ar    1  UNL1       -0.0579
     27 C          -4.4970   -2.1417    0.2046 C.ar    1  UNL1       -0.0615
     28 C          -4.5584   -3.1174    1.1682 C.ar    1  UNL1       -0.0617
     29 C          -3.4355   -3.5180    1.8717 C.ar    1  UNL1       -0.0615
     30 C          -2.2492   -2.8880    1.5571 C.ar    1  UNL1       -0.0579
     31 H           3.5705    4.8329    1.8611 H       1  UNL1        0.0628
     32 H           4.7457    3.4351    3.4571 H       1  UNL1        0.0618
     33 H           4.6060    0.9438    3.3216 H       1  UNL1        0.0618
     34 H           3.2580   -0.1084    1.5487 H       1  UNL1        0.0621
     35 H           0.8981    1.7740   -0.2943 H       1  UNL1        0.0474
     36 H           2.3570    1.6988   -1.2728 H       1  UNL1        0.0474
     37 H           2.7911   -0.5386   -0.3523 H       1  UNL1        0.1226
     38 H           1.5820   -1.9329   -1.4017 H       1  UNL1        0.0479
     39 H           2.1210   -0.6612   -3.2535 H       1  UNL1        0.0317
     40 H           0.4695   -1.5483   -4.5958 H       1  UNL1        0.0281
     41 H           0.6090   -2.6171   -3.1319 H       1  UNL1        0.0281
     42 H          -1.6485   -2.3945   -3.0125 H       1  UNL1        0.0427
     43 H          -1.7153   -0.9066   -4.0761 H       1  UNL1        0.0427
     44 H          -0.9647    1.5540   -1.7201 H       1  UNL1        0.0427
     45 H          -1.6798    1.0277   -3.2208 H       1  UNL1        0.0427
     46 H           0.9263    1.6605   -3.1306 H       1  UNL1        0.0281
     47 H           0.2016    0.6072   -4.3344 H       1  UNL1        0.0281
     48 H          -0.5174   -2.3289   -1.4042 H       1  UNL1        0.0487
     49 H          -0.0816   -2.0939    0.7708 H       1  UNL1        0.0413
     50 H           0.8252   -0.9460    2.4403 H       1  UNL1        0.0620
     51 H           1.0269    0.9194    3.9457 H       1  UNL1        0.0618
     52 H          -0.4052    2.9062    3.6072 H       1  UNL1        0.0618
     53 H          -2.0019    2.9943    1.7856 H       1  UNL1        0.0618
     54 H          -2.2023    1.0726    0.2513 H       1  UNL1        0.0620
     55 H          -3.2658   -0.7631   -0.8438 H       1  UNL1        0.0620
     56 H          -5.3734   -1.8126   -0.3610 H       1  UNL1        0.0618
     57 H          -5.5216   -3.5854    1.3802 H       1  UNL1        0.0618
     58 H          -3.5483   -4.2855    2.6127 H       1  UNL1        0.0618
     59 H          -1.3888   -3.2335    2.1349 H       1  UNL1        0.0620
@<TRIPOS>BOND
     1     1     2    1
     2     2     3   ar
     3     3     4   ar
     4     4     5   ar
     5     5     6   ar
     6     6     7   ar
     7     7     8    1
     8     8     9    1
     9     9    10    1
    10    10    11    1
    11    11    12    1
    12    12    13    1
    13    13    14    1
    14    14    15    1
    15    15    16    1
    16    14    17    1
    17    17    18    1
    18    18    19    1
    19    19    20   ar
    20    20    21   ar
    21    21    22   ar
    22    22    23   ar
    23    23    24   ar
    24    18    25    1
    25    25    26   ar
    26    26    27   ar
    27    27    28   ar
    28    28    29   ar
    29    29    30   ar
    30     7     2   ar
    31    17    10    1
    32    24    19   ar
    33    30    25   ar
    34    16    11    1
    35     3    31    1
    36     4    32    1
    37     5    33    1
    38     6    34    1
    39     8    35    1
    40     8    36    1
    41     9    37    1
    42    10    38    1
    43    11    39    1
    44    12    40    1
    45    12    41    1
    46    13    42    1
    47    13    43    1
    48    15    44    1
    49    15    45    1
    50    16    46    1
    51    16    47    1
    52    17    48    1
    53    18    49    1
    54    20    50    1
    55    21    51    1
    56    22    52    1
    57    23    53    1
    58    24    54    1
    59    26    55    1
    60    27    56    1
    61    28    57    1
    62    29    58    1
    63    30    59    1
