
     RDKit          3D

 49 52  0  0  0  0  0  0  0  0999 V2000
   -1.7496   -4.7419    1.1747 C   0  0  0  0  0  0  0  0  0  0  0  0
   -1.7403   -3.3323    0.8219 N   0  0  0  0  0  0  0  0  0  0  0  0
   -2.7992   -2.5406    0.5919 C   0  0  0  0  0  0  0  0  0  0  0  0
   -2.3994   -1.2589    0.2829 C   0  0  0  0  0  0  0  0  0  0  0  0
   -3.2942   -0.1673   -0.0173 C   0  0  0  0  0  0  0  0  0  0  0  0
   -3.1764    1.1542   -0.3448 C   0  0  0  0  0  0  0  0  0  0  0  0
   -4.3904    1.7780   -0.5374 C   0  0  0  0  0  0  0  0  0  0  0  0
   -4.7298    3.0716   -0.8716 C   0  0  0  0  0  0  0  0  0  0  0  0
   -6.0573    3.4319   -1.0016 C   0  0  0  0  0  0  0  0  0  0  0  0
   -6.9372    2.3849   -0.7658 C   0  0  0  0  0  0  0  0  0  0  0  0
   -6.6079    1.1223   -0.4397 N   0  0  0  0  0  0  0  0  0  0  0  0
   -5.3128    0.7774   -0.3145 C   0  0  0  0  0  0  0  0  0  0  0  0
   -4.6271   -0.3369   -0.0148 N   0  0  0  0  0  0  0  0  0  0  0  0
   -1.0351   -1.3587    0.3488 C   0  0  0  0  0  0  0  0  0  0  0  0
   -0.0321   -0.4377    0.1483 C   0  0  0  0  0  0  0  0  0  0  0  0
    1.2905   -0.7322    0.2618 C   0  0  0  0  0  0  0  0  0  0  0  0
    1.6833   -2.0083    0.5931 C   0  0  0  0  0  0  0  0  0  0  0  0
    0.7135   -2.9619    0.8028 C   0  0  0  0  0  0  0  0  0  0  0  0
   -0.6059   -2.6246    0.6787 C   0  0  0  0  0  0  0  0  0  0  0  0
    2.2860    0.2957    0.0342 C   0  0  0  0  0  0  0  0  0  0  0  0
    1.8977    1.4732   -0.2724 O   0  0  0  0  0  0  0  0  0  0  0  0
    3.6755    0.1566    0.1108 N   0  0  0  0  0  0  0  0  0  0  0  0
    4.5719    1.2688   -0.1413 C   0  0  0  0  0  0  0  0  0  0  0  0
    4.3674    1.7698   -1.5290 C   0  0  0  0  0  0  0  0  0  0  0  0
    4.3635    2.3910    0.8499 C   0  0  0  0  0  0  0  0  0  0  0  0
    5.9951    0.7321   -0.0266 C   0  0  0  0  0  0  0  0  0  0  0  0
    6.2297   -0.2767   -0.9473 O   0  0  0  0  0  0  0  0  0  0  0  0
   -1.0205   -5.3407    0.5742 H   0  0  0  0  0  0  0  0  0  0  0  0
   -2.7564   -5.1347    0.9738 H   0  0  0  0  0  0  0  0  0  0  0  0
   -1.4603   -4.9048    2.2485 H   0  0  0  0  0  0  0  0  0  0  0  0
   -3.8091   -2.9570    0.6659 H   0  0  0  0  0  0  0  0  0  0  0  0
   -2.2449    1.6763   -0.4476 H   0  0  0  0  0  0  0  0  0  0  0  0
   -3.9567    3.8050   -1.0321 H   0  0  0  0  0  0  0  0  0  0  0  0
   -6.3890    4.4120   -1.2571 H   0  0  0  0  0  0  0  0  0  0  0  0
   -8.0047    2.5571   -0.8409 H   0  0  0  0  0  0  0  0  0  0  0  0
   -5.2087   -1.1983    0.1835 H   0  0  0  0  0  0  0  0  0  0  0  0
   -0.3007    0.5684   -0.1117 H   0  0  0  0  0  0  0  0  0  0  0  0
    2.7064   -2.3195    0.7018 H   0  0  0  0  0  0  0  0  0  0  0  0
    1.0031   -3.9830    1.0672 H   0  0  0  0  0  0  0  0  0  0  0  0
    4.0333   -0.8125    0.3646 H   0  0  0  0  0  0  0  0  0  0  0  0
    4.2443    2.8853   -1.5146 H   0  0  0  0  0  0  0  0  0  0  0  0
    3.4817    1.2803   -1.9745 H   0  0  0  0  0  0  0  0  0  0  0  0
    5.2318    1.5146   -2.1593 H   0  0  0  0  0  0  0  0  0  0  0  0
    3.9348    2.0079    1.7860 H   0  0  0  0  0  0  0  0  0  0  0  0
    5.3696    2.8181    1.0497 H   0  0  0  0  0  0  0  0  0  0  0  0
    3.7761    3.2093    0.3866 H   0  0  0  0  0  0  0  0  0  0  0  0
    6.1619    0.2710    0.9868 H   0  0  0  0  0  0  0  0  0  0  0  0
    6.7360    1.5532   -0.0787 H   0  0  0  0  0  0  0  0  0  0  0  0
    6.8927   -0.9376   -0.5681 H   0  0  0  0  0  0  0  0  0  0  0  0
  1  2  1  0
  2  3  1  0
  3  4  2  0
  4  5  1  0
  5  6  2  0
  6  7  1  0
  7  8  2  0
  8  9  1  0
  9 10  2  0
 10 11  1  0
 11 12  2  0
 12 13  1  0
  4 14  1  0
 14 15  2  0
 15 16  1  0
 16 17  2  0
 17 18  1  0
 18 19  2  0
 16 20  1  0
 20 21  2  0
 20 22  1  0
 22 23  1  0
 23 24  1  0
 23 25  1  0
 23 26  1  0
 26 27  1  0
 19  2  1  0
 13  5  1  0
 19 14  1  0
 12  7  1  0
  1 28  1  0
  1 29  1  0
  1 30  1  0
  3 31  1  0
  6 32  1  0
  8 33  1  0
  9 34  1  0
 10 35  1  0
 13 36  1  0
 15 37  1  0
 17 38  1  0
 18 39  1  0
 22 40  1  0
 24 41  1  0
 24 42  1  0
 24 43  1  0
 25 44  1  0
 25 45  1  0
 25 46  1  0
 26 47  1  0
 26 48  1  0
 27 49  1  0
M  END
$$$$
