@<TRIPOS>MOLECULE
*****
 38 40 0 0 0
SMALL
GASTEIGER

@<TRIPOS>ATOM
      1 C          -4.1926   -0.5705    1.7010 C.3     1  UNL1       -0.0489
      2 C          -3.2252    0.5567    1.5263 C.3     1  UNL1        0.0169
      3 N          -2.6696    0.4426    0.1840 N.am    1  UNL1       -0.2719
      4 C          -3.1711    1.0268   -1.0134 C.2     1  UNL1        0.2167
      5 C          -4.3695    1.8646   -1.0810 C.3     1  UNL1        0.0127
      6 O          -2.2306    0.5032   -1.6310 O.2     1  UNL1       -0.2756
      7 C          -1.4947   -0.3012   -0.1380 C.ar    1  UNL1        0.0369
      8 C          -1.6438   -1.6303   -0.4822 C.ar    1  UNL1       -0.0402
      9 C          -0.5068   -2.3749   -0.8005 C.ar    1  UNL1       -0.0594
     10 C           0.7236   -1.7485   -0.7575 C.ar    1  UNL1       -0.0524
     11 C           0.8153   -0.4158   -0.4065 C.ar    1  UNL1        0.0023
     12 C          -0.2773    0.3582   -0.0848 C.ar    1  UNL1       -0.0311
     13 C           2.1375    0.2087   -0.3735 C.ar    1  UNL1        0.0763
     14 C           2.2651    1.4561   -0.9518 C.ar    1  UNL1       -0.0174
     15 C           3.5010    2.1080   -0.9542 C.ar    1  UNL1        0.0320
     16 N           4.5374    1.4567   -0.3695 N.ar    1  UNL1       -0.2350
     17 C           4.3734    0.2324    0.1881 C.ar    1  UNL1        0.1736
     18 C           5.2428   -0.6309    0.8339 C.ar    1  UNL1        0.1155
     19 C           4.5695   -1.7779    1.2231 C.ar    1  UNL1        0.0694
     20 N           3.2904   -1.5766    0.7966 N.ar    1  UNL1       -0.1715
     21 N           3.1886   -0.4105    0.1993 N.ar    1  UNL1       -0.2127
     22 C           6.6489   -0.4269    1.0944 C.1     1  UNL1        0.1045
     23 N           7.7797   -0.2567    1.2890 N.1     1  UNL1       -0.1907
     24 H          -4.6685   -0.5730    2.7004 H       1  UNL1        0.0245
     25 H          -3.7102   -1.5465    1.4938 H       1  UNL1        0.0245
     26 H          -5.0030   -0.4452    0.9569 H       1  UNL1        0.0245
     27 H          -3.8176    1.5155    1.5643 H       1  UNL1        0.0466
     28 H          -2.4569    0.6437    2.2940 H       1  UNL1        0.0466
     29 H          -4.4606    2.2216   -2.1412 H       1  UNL1        0.0323
     30 H          -5.2679    1.3325   -0.7271 H       1  UNL1        0.0323
     31 H          -4.1695    2.7886   -0.4717 H       1  UNL1        0.0323
     32 H          -2.5619   -2.1598   -0.5310 H       1  UNL1        0.0636
     33 H          -0.5786   -3.4029   -1.0712 H       1  UNL1        0.0618
     34 H           1.6166   -2.3134   -1.0022 H       1  UNL1        0.0624
     35 H          -0.2526    1.3974    0.1938 H       1  UNL1        0.0643
     36 H           1.4192    1.9739   -1.4222 H       1  UNL1        0.0654
     37 H           3.6388    3.0962   -1.4030 H       1  UNL1        0.0831
     38 H           4.9809   -2.6218    1.7420 H       1  UNL1        0.0862
@<TRIPOS>BOND
     1     1     2    1
     2     2     3    1
     3     3     4   am
     4     4     5    1
     5     4     6    2
     6     3     7    1
     7     7     8   ar
     8     8     9   ar
     9     9    10   ar
    10    10    11   ar
    11    11    12   ar
    12    11    13    1
    13    13    14   ar
    14    14    15   ar
    15    15    16   ar
    16    16    17   ar
    17    17    18   ar
    18    18    19   ar
    19    19    20   ar
    20    20    21   ar
    21    18    22    1
    22    22    23    3
    23    12     7   ar
    24    21    13   ar
    25    21    17   ar
    26     1    24    1
    27     1    25    1
    28     1    26    1
    29     2    27    1
    30     2    28    1
    31     5    29    1
    32     5    30    1
    33     5    31    1
    34     8    32    1
    35     9    33    1
    36    10    34    1
    37    12    35    1
    38    14    36    1
    39    15    37    1
    40    19    38    1
