@<TRIPOS>MOLECULE
*****
 68 72 0 0 0
SMALL
GASTEIGER

@<TRIPOS>ATOM
      1 C           8.0541   -0.8677    0.9809 C.3     1  UNL1       -0.0253
      2 C           7.2292    0.1482    0.2388 C.3     1  UNL1        0.1068
      3 C           7.3526    1.4903    0.9151 C.3     1  UNL1       -0.0253
      4 C           7.8723    0.3029   -1.1455 C.3     1  UNL1       -0.0253
      5 O           5.9074   -0.2447    0.0274 O.3     1  UNL1       -0.4445
      6 C           4.9954   -0.5460    1.0286 C.2     1  UNL1        0.4034
      7 O           5.4281   -0.4467    2.2166 O.2     1  UNL1       -0.2262
      8 N           3.6567   -0.9422    0.7507 N.am    1  UNL1       -0.2673
      9 C           2.7423   -1.2463    1.8312 C.3     1  UNL1        0.0197
     10 C           1.3834   -0.7508    1.4219 C.3     1  UNL1       -0.0144
     11 C           0.8508   -1.3985    0.1772 C.3     1  UNL1        0.0578
     12 N           0.0443   -0.4206   -0.5299 N.ar    1  UNL1       -0.2431
     13 N           0.4054    0.4972   -1.3961 N.ar    1  UNL1       -0.1768
     14 C          -0.6301    1.2162   -1.8358 C.ar    1  UNL1        0.0620
     15 C          -1.7494    0.7311   -1.2097 C.ar    1  UNL1        0.0785
     16 C          -3.0987    1.0476   -1.2414 C.ar    1  UNL1        0.1361
     17 N          -3.4885    2.1115   -2.0987 N.pl3   1  UNL1       -0.3101
     18 C          -2.9393    3.4377   -1.8937 C.3     1  UNL1        0.0370
     19 C          -4.0990    4.3540   -1.5526 C.3     1  UNL1        0.0634
     20 O          -5.2959    3.8539   -2.0114 O.3     1  UNL1       -0.3767
     21 C          -5.2037    3.2670   -3.2744 C.3     1  UNL1        0.0634
     22 C          -4.4233    1.9655   -3.1970 C.3     1  UNL1        0.0370
     23 N          -3.9265    0.3476   -0.4809 N.ar    1  UNL1       -0.2118
     24 C          -3.5334   -0.6670    0.3330 C.ar    1  UNL1        0.1641
     25 C          -4.4764   -1.4070    1.1491 C.ar    1  UNL1        0.0194
     26 C          -5.8199   -1.1334    1.1529 C.ar    1  UNL1       -0.0493
     27 C          -6.7218   -1.8449    1.9366 C.ar    1  UNL1       -0.0404
     28 C          -6.2278   -2.8711    2.7428 C.ar    1  UNL1        0.0246
     29 N          -7.1456   -3.5854    3.5318 N.pl3   1  UNL1       -0.3580
     30 C          -4.8832   -3.1597    2.7519 C.ar    1  UNL1       -0.0404
     31 C          -4.0140   -2.4248    1.9538 C.ar    1  UNL1       -0.0493
     32 N          -2.2179   -0.9468    0.3389 N.ar    1  UNL1       -0.2080
     33 C          -1.3022   -0.2933   -0.3971 C.ar    1  UNL1        0.1642
     34 C           1.9480   -1.9048   -0.7204 C.3     1  UNL1       -0.0144
     35 C           3.1864   -1.0488   -0.5935 C.3     1  UNL1        0.0197
     36 H           7.7782   -1.8996    0.6714 H       1  UNL1        0.0268
     37 H           9.1156   -0.7339    0.6596 H       1  UNL1        0.0268
     38 H           8.0073   -0.7173    2.0790 H       1  UNL1        0.0268
     39 H           6.6383    2.2126    0.4297 H       1  UNL1        0.0268
     40 H           7.1303    1.3775    1.9931 H       1  UNL1        0.0268
     41 H           8.4015    1.8283    0.7718 H       1  UNL1        0.0268
     42 H           7.6463   -0.6651   -1.6686 H       1  UNL1        0.0268
     43 H           8.9425    0.5144   -1.0816 H       1  UNL1        0.0268
     44 H           7.3055    1.0784   -1.7062 H       1  UNL1        0.0268
     45 H           3.0230   -0.7134    2.7560 H       1  UNL1        0.0466
     46 H           2.7143   -2.3272    2.0679 H       1  UNL1        0.0466
     47 H           1.4669    0.3393    1.2320 H       1  UNL1        0.0301
     48 H           0.6260   -0.9423    2.2316 H       1  UNL1        0.0301
     49 H           0.1953   -2.2715    0.4019 H       1  UNL1        0.0546
     50 H          -0.6669    2.0354   -2.5437 H       1  UNL1        0.0856
     51 H          -2.5481    3.8032   -2.8847 H       1  UNL1        0.0487
     52 H          -2.1503    3.4507   -1.1176 H       1  UNL1        0.0487
     53 H          -4.1702    4.3767   -0.4269 H       1  UNL1        0.0575
     54 H          -3.9600    5.3683   -1.9578 H       1  UNL1        0.0575
     55 H          -4.7124    3.9652   -3.9836 H       1  UNL1        0.0575
     56 H          -6.2225    3.0596   -3.6377 H       1  UNL1        0.0575
     57 H          -5.0705    1.0828   -3.0935 H       1  UNL1        0.0487
     58 H          -3.8169    1.9020   -4.1370 H       1  UNL1        0.0487
     59 H          -6.2054   -0.3416    0.5318 H       1  UNL1        0.0625
     60 H          -7.7802   -1.6450    1.9532 H       1  UNL1        0.0636
     61 H          -7.2838   -4.6107    3.4300 H       1  UNL1        0.1423
     62 H          -7.7100   -3.0850    4.2430 H       1  UNL1        0.1423
     63 H          -4.5350   -3.9541    3.3821 H       1  UNL1        0.0636
     64 H          -2.9528   -2.6933    1.9966 H       1  UNL1        0.0625
     65 H           1.6162   -1.8466   -1.7763 H       1  UNL1        0.0301
     66 H           2.2445   -2.9439   -0.4990 H       1  UNL1        0.0301
     67 H           3.0805   -0.0561   -1.0352 H       1  UNL1        0.0466
     68 H           3.9931   -1.5681   -1.1826 H       1  UNL1        0.0466
@<TRIPOS>BOND
     1     1     2    1
     2     2     3    1
     3     2     4    1
     4     2     5    1
     5     5     6    1
     6     6     7    2
     7     6     8   am
     8     8     9    1
     9     9    10    1
    10    10    11    1
    11    11    12    1
    12    12    13   ar
    13    13    14   ar
    14    14    15   ar
    15    15    16   ar
    16    16    17    1
    17    17    18    1
    18    18    19    1
    19    19    20    1
    20    20    21    1
    21    21    22    1
    22    16    23   ar
    23    23    24   ar
    24    24    25    1
    25    25    26   ar
    26    26    27   ar
    27    27    28   ar
    28    28    29    1
    29    28    30   ar
    30    30    31   ar
    31    24    32   ar
    32    32    33   ar
    33    11    34    1
    34    34    35    1
    35    35     8    1
    36    33    12   ar
    37    33    15   ar
    38    22    17    1
    39    31    25   ar
    40     1    36    1
    41     1    37    1
    42     1    38    1
    43     3    39    1
    44     3    40    1
    45     3    41    1
    46     4    42    1
    47     4    43    1
    48     4    44    1
    49     9    45    1
    50     9    46    1
    51    10    47    1
    52    10    48    1
    53    11    49    1
    54    14    50    1
    55    18    51    1
    56    18    52    1
    57    19    53    1
    58    19    54    1
    59    21    55    1
    60    21    56    1
    61    22    57    1
    62    22    58    1
    63    26    59    1
    64    27    60    1
    65    29    61    1
    66    29    62    1
    67    30    63    1
    68    31    64    1
    69    34    65    1
    70    34    66    1
    71    35    67    1
    72    35    68    1
