@<TRIPOS>MOLECULE
*****
 41 42 0 0 0
SMALL
GASTEIGER

@<TRIPOS>ATOM
      1 C          -5.6056    0.8121    1.9916 C.3     1  UNL1       -0.0412
      2 C          -5.0348    0.1905    0.7136 C.3     1  UNL1        0.0819
      3 N          -3.5980    0.2917    0.7079 N.3     1  UNL1       -0.3019
      4 C          -3.0209   -0.4472   -0.3637 C.3     1  UNL1        0.0219
      5 C          -1.5239   -0.3422   -0.3801 C.ar    1  UNL1       -0.0333
      6 C          -0.8656    0.6514   -1.0773 C.ar    1  UNL1       -0.0539
      7 C           0.5122    0.7437   -1.0892 C.ar    1  UNL1       -0.0196
      8 C           1.3001   -0.1544   -0.4035 C.ar    1  UNL1        0.1210
      9 O           2.6945   -0.0612   -0.4154 O.3     1  UNL1       -0.4874
     10 C           3.5334   -0.9424    0.2600 C.3     1  UNL1        0.1147
     11 C           4.9399   -0.5231    0.0110 C.ar    1  UNL1       -0.0077
     12 C           5.5323    0.3612    0.8555 C.ar    1  UNL1       -0.0552
     13 C           6.8323    0.7552    0.6340 C.ar    1  UNL1       -0.0587
     14 C           7.5174    0.2455   -0.4450 C.ar    1  UNL1       -0.0264
     15 C           6.9287   -0.6491   -1.3054 C.ar    1  UNL1        0.1238
     16 F           7.5990   -1.1460   -2.3586 F       1  UNL1       -0.2055
     17 C           5.6445   -1.0213   -1.0638 C.ar    1  UNL1       -0.0201
     18 C           0.6467   -1.1475    0.2935 C.ar    1  UNL1       -0.0196
     19 C          -0.7310   -1.2410    0.3064 C.ar    1  UNL1       -0.0539
     20 C          -5.6640    0.9083   -0.4445 C.2     1  UNL1        0.2273
     21 N          -7.0699    0.8506   -0.6193 N.am    1  UNL1       -0.3280
     22 O          -4.9576    1.5478   -1.2433 O.2     1  UNL1       -0.2743
     23 H          -5.6798    1.9125    1.8638 H       1  UNL1        0.0249
     24 H          -6.5984    0.3357    2.1416 H       1  UNL1        0.0249
     25 H          -4.9625    0.5247    2.8328 H       1  UNL1        0.0249
     26 H          -5.3314   -0.8663    0.7013 H       1  UNL1        0.0553
     27 H          -3.3431    1.3028    0.6968 H       1  UNL1        0.1229
     28 H          -3.4565   -0.1333   -1.3243 H       1  UNL1        0.0474
     29 H          -3.3144   -1.5382   -0.2756 H       1  UNL1        0.0474
     30 H          -1.4992    1.3577   -1.6171 H       1  UNL1        0.0622
     31 H           1.0107    1.5286   -1.6408 H       1  UNL1        0.0654
     32 H           3.3623   -1.9755   -0.1601 H       1  UNL1        0.0748
     33 H           3.2980   -0.9322    1.3426 H       1  UNL1        0.0748
     34 H           5.0120    0.7811    1.7189 H       1  UNL1        0.0621
     35 H           7.3349    1.4635    1.2943 H       1  UNL1        0.0619
     36 H           8.5402    0.5438   -0.6348 H       1  UNL1        0.0646
     37 H           5.1503   -1.7296   -1.7289 H       1  UNL1        0.0650
     38 H           1.2671   -1.8527    0.8320 H       1  UNL1        0.0654
     39 H          -1.2428   -2.0300    0.8605 H       1  UNL1        0.0622
     40 H          -7.4477    0.2147   -1.3764 H       1  UNL1        0.1450
     41 H          -7.7091    1.4103   -0.0281 H       1  UNL1        0.1450
@<TRIPOS>BOND
     1     1     2    1
     2     2     3    1
     3     3     4    1
     4     4     5    1
     5     5     6   ar
     6     6     7   ar
     7     7     8   ar
     8     8     9    1
     9     9    10    1
    10    10    11    1
    11    11    12   ar
    12    12    13   ar
    13    13    14   ar
    14    14    15   ar
    15    15    16    1
    16    15    17   ar
    17     8    18   ar
    18    18    19   ar
    19     2    20    1
    20    20    21   am
    21    20    22    2
    22    19     5   ar
    23    17    11   ar
    24     1    23    1
    25     1    24    1
    26     1    25    1
    27     2    26    1
    28     3    27    1
    29     4    28    1
    30     4    29    1
    31     6    30    1
    32     7    31    1
    33    10    32    1
    34    10    33    1
    35    12    34    1
    36    13    35    1
    37    14    36    1
    38    17    37    1
    39    18    38    1
    40    19    39    1
    41    21    40    1
    42    21    41    1
