@<TRIPOS>MOLECULE
*****
 46 48 0 0 0
SMALL
GASTEIGER

@<TRIPOS>ATOM
      1 C           6.8234   -0.2426    1.7865 C.3     1  UNL1       -0.0622
      2 C           5.3111   -0.3711    1.5586 C.3     1  UNL1       -0.0215
      3 C           4.9542   -1.7190    1.0376 C.3     1  UNL1        0.0895
      4 O           3.6186   -1.9644    0.7897 O.3     1  UNL1       -0.4883
      5 C           2.7293   -1.4064   -0.0706 C.ar    1  UNL1        0.1617
      6 C           3.0000   -0.4167   -0.9617 C.ar    1  UNL1       -0.0160
      7 C           2.0510    0.1186   -1.8159 C.ar    1  UNL1       -0.0534
      8 C           0.7563   -0.3392   -1.8020 C.ar    1  UNL1       -0.0268
      9 C          -0.2324    0.2598   -2.7329 C.3     1  UNL1        0.0340
     10 N          -0.8868    1.3831   -2.1288 N.pl3   1  UNL1       -0.3449
     11 C          -1.6303    1.1958   -0.9328 C.2     1  UNL1        0.0025
     12 C          -2.9505    1.1955   -0.9231 C.2     1  UNL1        0.0584
     13 C          -3.6606    1.3986   -2.2112 C.2     1  UNL1        0.2523
     14 O          -2.9779    1.5580   -3.2295 O.2     1  UNL1       -0.2697
     15 N          -5.0732    1.3909   -2.1545 N.am    1  UNL1       -0.2483
     16 C          -5.7806    1.2002   -0.9365 C.2     1  UNL1        0.2511
     17 O          -7.0335    1.1982   -0.9163 O.2     1  UNL1       -0.2698
     18 C          -5.0660    1.0027    0.3165 C.ar    1  UNL1        0.0451
     19 C          -5.7412    0.8179    1.4961 C.ar    1  UNL1       -0.0481
     20 C          -5.1030    0.6277    2.7030 C.ar    1  UNL1       -0.0479
     21 C          -3.7299    0.6221    2.7308 C.ar    1  UNL1        0.0140
     22 I          -2.7147    0.3368    4.5408 I       1  UNL1       -0.0438
     23 C          -3.0452    0.8081    1.5431 C.ar    1  UNL1       -0.0400
     24 C          -3.6695    0.9999    0.3263 C.ar    1  UNL1        0.0014
     25 C           0.4620   -1.3363   -0.9126 C.ar    1  UNL1       -0.0119
     26 C           1.4045   -1.8674   -0.0644 C.ar    1  UNL1        0.1588
     27 O           1.0733   -2.8699    0.8179 O.3     1  UNL1       -0.5033
     28 H           7.0211    0.8168    1.9836 H       1  UNL1        0.0231
     29 H           7.3661   -0.5711    0.8741 H       1  UNL1        0.0231
     30 H           7.0991   -0.8700    2.6677 H       1  UNL1        0.0231
     31 H           5.0496    0.4853    0.9326 H       1  UNL1        0.0295
     32 H           4.8549   -0.2694    2.5701 H       1  UNL1        0.0295
     33 H           5.2932   -2.4549    1.8339 H       1  UNL1        0.0696
     34 H           5.5845   -1.9648    0.1362 H       1  UNL1        0.0696
     35 H           3.9954   -0.0110   -1.0463 H       1  UNL1        0.0655
     36 H           2.3271    0.9015   -2.4989 H       1  UNL1        0.0622
     37 H          -0.9853   -0.5290   -3.0276 H       1  UNL1        0.0511
     38 H           0.3092    0.5369   -3.6726 H       1  UNL1        0.0511
     39 H          -0.8242    2.3165   -2.5489 H       1  UNL1        0.1459
     40 H          -1.0499    1.0557   -0.0442 H       1  UNL1        0.0786
     41 H          -5.6086    1.5307   -3.0407 H       1  UNL1        0.1581
     42 H          -6.8383    0.8290    1.4324 H       1  UNL1        0.0626
     43 H          -5.6965    0.4871    3.6014 H       1  UNL1        0.0628
     44 H          -1.9645    0.8008    1.5836 H       1  UNL1        0.0634
     45 H          -0.5699   -1.6984   -0.9047 H       1  UNL1        0.0658
     46 H           1.7486   -3.4198    1.3146 H       1  UNL1        0.2923
@<TRIPOS>BOND
     1     1     2    1
     2     2     3    1
     3     3     4    1
     4     4     5    1
     5     5     6   ar
     6     6     7   ar
     7     7     8   ar
     8     8     9    1
     9     9    10    1
    10    10    11    1
    11    11    12    2
    12    12    13    1
    13    13    14    2
    14    13    15   am
    15    15    16   am
    16    16    17    2
    17    16    18    1
    18    18    19   ar
    19    19    20   ar
    20    20    21   ar
    21    21    22    1
    22    21    23   ar
    23    23    24   ar
    24     8    25   ar
    25    25    26   ar
    26    26    27    1
    27    26     5   ar
    28    24    12    1
    29    24    18   ar
    30     1    28    1
    31     1    29    1
    32     1    30    1
    33     2    31    1
    34     2    32    1
    35     3    33    1
    36     3    34    1
    37     6    35    1
    38     7    36    1
    39     9    37    1
    40     9    38    1
    41    10    39    1
    42    11    40    1
    43    15    41    1
    44    19    42    1
    45    20    43    1
    46    23    44    1
    47    25    45    1
    48    27    46    1
