
     RDKit          3D

 46 48  0  0  0  0  0  0  0  0999 V2000
    6.8234   -0.2426    1.7865 C   0  0  0  0  0  0  0  0  0  0  0  0
    5.3111   -0.3711    1.5586 C   0  0  0  0  0  0  0  0  0  0  0  0
    4.9542   -1.7190    1.0376 C   0  0  0  0  0  0  0  0  0  0  0  0
    3.6186   -1.9644    0.7897 O   0  0  0  0  0  0  0  0  0  0  0  0
    2.7293   -1.4064   -0.0706 C   0  0  0  0  0  0  0  0  0  0  0  0
    3.0000   -0.4167   -0.9617 C   0  0  0  0  0  0  0  0  0  0  0  0
    2.0510    0.1186   -1.8159 C   0  0  0  0  0  0  0  0  0  0  0  0
    0.7563   -0.3392   -1.8020 C   0  0  0  0  0  0  0  0  0  0  0  0
   -0.2324    0.2598   -2.7329 C   0  0  0  0  0  0  0  0  0  0  0  0
   -0.8868    1.3831   -2.1288 N   0  0  0  0  0  0  0  0  0  0  0  0
   -1.6303    1.1958   -0.9328 C   0  0  0  0  0  0  0  0  0  0  0  0
   -2.9505    1.1955   -0.9231 C   0  0  0  0  0  0  0  0  0  0  0  0
   -3.6606    1.3986   -2.2112 C   0  0  0  0  0  0  0  0  0  0  0  0
   -2.9779    1.5580   -3.2295 O   0  0  0  0  0  0  0  0  0  0  0  0
   -5.0732    1.3909   -2.1545 N   0  0  0  0  0  0  0  0  0  0  0  0
   -5.7806    1.2002   -0.9365 C   0  0  0  0  0  0  0  0  0  0  0  0
   -7.0335    1.1982   -0.9163 O   0  0  0  0  0  0  0  0  0  0  0  0
   -5.0660    1.0027    0.3165 C   0  0  0  0  0  0  0  0  0  0  0  0
   -5.7412    0.8179    1.4961 C   0  0  0  0  0  0  0  0  0  0  0  0
   -5.1030    0.6277    2.7030 C   0  0  0  0  0  0  0  0  0  0  0  0
   -3.7299    0.6221    2.7308 C   0  0  0  0  0  0  0  0  0  0  0  0
   -2.7147    0.3368    4.5408 I   0  0  0  0  0  0  0  0  0  0  0  0
   -3.0452    0.8081    1.5431 C   0  0  0  0  0  0  0  0  0  0  0  0
   -3.6695    0.9999    0.3263 C   0  0  0  0  0  0  0  0  0  0  0  0
    0.4620   -1.3363   -0.9126 C   0  0  0  0  0  0  0  0  0  0  0  0
    1.4045   -1.8674   -0.0644 C   0  0  0  0  0  0  0  0  0  0  0  0
    1.0733   -2.8699    0.8179 O   0  0  0  0  0  0  0  0  0  0  0  0
    7.0211    0.8168    1.9836 H   0  0  0  0  0  0  0  0  0  0  0  0
    7.3661   -0.5711    0.8741 H   0  0  0  0  0  0  0  0  0  0  0  0
    7.0991   -0.8700    2.6677 H   0  0  0  0  0  0  0  0  0  0  0  0
    5.0496    0.4853    0.9326 H   0  0  0  0  0  0  0  0  0  0  0  0
    4.8549   -0.2694    2.5701 H   0  0  0  0  0  0  0  0  0  0  0  0
    5.2932   -2.4549    1.8339 H   0  0  0  0  0  0  0  0  0  0  0  0
    5.5845   -1.9648    0.1362 H   0  0  0  0  0  0  0  0  0  0  0  0
    3.9954   -0.0110   -1.0463 H   0  0  0  0  0  0  0  0  0  0  0  0
    2.3271    0.9015   -2.4989 H   0  0  0  0  0  0  0  0  0  0  0  0
   -0.9853   -0.5290   -3.0276 H   0  0  0  0  0  0  0  0  0  0  0  0
    0.3092    0.5369   -3.6726 H   0  0  0  0  0  0  0  0  0  0  0  0
   -0.8242    2.3165   -2.5489 H   0  0  0  0  0  0  0  0  0  0  0  0
   -1.0499    1.0557   -0.0442 H   0  0  0  0  0  0  0  0  0  0  0  0
   -5.6086    1.5307   -3.0407 H   0  0  0  0  0  0  0  0  0  0  0  0
   -6.8383    0.8290    1.4324 H   0  0  0  0  0  0  0  0  0  0  0  0
   -5.6965    0.4871    3.6014 H   0  0  0  0  0  0  0  0  0  0  0  0
   -1.9645    0.8008    1.5836 H   0  0  0  0  0  0  0  0  0  0  0  0
   -0.5699   -1.6984   -0.9047 H   0  0  0  0  0  0  0  0  0  0  0  0
    1.7486   -3.4198    1.3146 H   0  0  0  0  0  0  0  0  0  0  0  0
  1  2  1  0
  2  3  1  0
  3  4  1  0
  4  5  1  0
  5  6  2  0
  6  7  1  0
  7  8  2  0
  8  9  1  0
  9 10  1  0
 10 11  1  0
 11 12  2  3
 12 13  1  0
 13 14  2  0
 13 15  1  0
 15 16  1  0
 16 17  2  0
 16 18  1  0
 18 19  2  0
 19 20  1  0
 20 21  2  0
 21 22  1  0
 21 23  1  0
 23 24  2  0
  8 25  1  0
 25 26  2  0
 26 27  1  0
 26  5  1  0
 24 12  1  0
 24 18  1  0
  1 28  1  0
  1 29  1  0
  1 30  1  0
  2 31  1  0
  2 32  1  0
  3 33  1  0
  3 34  1  0
  6 35  1  0
  7 36  1  0
  9 37  1  0
  9 38  1  0
 10 39  1  0
 11 40  1  0
 15 41  1  0
 19 42  1  0
 20 43  1  0
 23 44  1  0
 25 45  1  0
 27 46  1  0
M  END
$$$$
