@<TRIPOS>MOLECULE
*****
 55 58 0 0 0
SMALL
GASTEIGER

@<TRIPOS>ATOM
      1 O          -2.4602   -2.5991   -0.4022 O.3     1  UNL1       -0.3872
      2 C          -2.7543   -1.2768    0.0692 C.3     1  UNL1        0.0816
      3 C          -4.2284   -1.1912    0.0912 C.3     1  UNL1        0.0279
      4 N          -4.8587   -0.0142    0.5554 N.3     1  UNL1       -0.2996
      5 C          -6.3207   -0.3472    0.5506 C.3     1  UNL1       -0.0010
      6 C          -6.7715   -0.0503   -0.8559 C.3     1  UNL1       -0.0390
      7 C          -5.6625    0.7794   -1.5093 C.3     1  UNL1       -0.0390
      8 C          -4.8545    1.1400   -0.2810 C.3     1  UNL1       -0.0010
      9 C          -2.1244   -1.2087    1.4422 C.3     1  UNL1       -0.0069
     10 C          -0.6211   -1.2549    1.2853 C.3     1  UNL1        0.0175
     11 N          -0.1961   -0.1458    0.4758 N.pl3   1  UNL1       -0.2994
     12 C           1.1595    0.1878    0.2409 C.ar    1  UNL1        0.2214
     13 N           2.1296   -0.5621    0.7907 N.ar    1  UNL1       -0.1790
     14 C           3.4193   -0.2506    0.5702 C.ar    1  UNL1        0.2254
     15 O           4.4394   -0.9999    1.1198 O.3     1  UNL1       -0.4378
     16 C           5.7618   -0.6619    0.8787 C.ar    1  UNL1        0.1331
     17 C           6.4723   -1.1708   -0.1938 C.ar    1  UNL1       -0.0191
     18 C           7.7879   -0.8063   -0.3952 C.ar    1  UNL1       -0.0556
     19 C           8.4453    0.0625    0.4422 C.ar    1  UNL1       -0.0262
     20 C           7.7369    0.5700    1.5116 C.ar    1  UNL1        0.1269
     21 F           8.3859    1.4243    2.3332 F       1  UNL1       -0.2054
     22 C           6.4164    0.2144    1.7277 C.ar    1  UNL1        0.0160
     23 C           3.7065    0.8345   -0.2176 C.ar    1  UNL1        0.0305
     24 C           2.7175    1.6169   -0.7911 C.ar    1  UNL1        0.1522
     25 C           3.0517    2.7854   -1.6393 C.3     1  UNL1        0.4345
     26 F           2.9717    3.9804   -0.9601 F       1  UNL1       -0.1644
     27 F           4.3736    2.6619   -2.0642 F       1  UNL1       -0.1644
     28 F           2.2087    2.7703   -2.7424 F       1  UNL1       -0.1644
     29 N           1.4498    1.2504   -0.5305 N.ar    1  UNL1       -0.2101
     30 C          -1.2738    0.6566   -0.1222 C.3     1  UNL1        0.0175
     31 C          -2.0969   -0.3680   -0.9152 C.3     1  UNL1       -0.0069
     32 H          -2.8830   -3.2200    0.2481 H       1  UNL1        0.2102
     33 H          -4.5982   -1.4911   -0.9465 H       1  UNL1        0.0455
     34 H          -4.6495   -2.0408    0.7239 H       1  UNL1        0.0455
     35 H          -6.4485   -1.4332    0.7260 H       1  UNL1        0.0427
     36 H          -6.8484    0.2045    1.3267 H       1  UNL1        0.0427
     37 H          -7.6841    0.5852   -0.8891 H       1  UNL1        0.0278
     38 H          -6.9495   -0.9590   -1.4596 H       1  UNL1        0.0278
     39 H          -6.0495    1.6764   -2.0033 H       1  UNL1        0.0278
     40 H          -5.0565    0.1389   -2.1475 H       1  UNL1        0.0278
     41 H          -5.5119    1.9027    0.2540 H       1  UNL1        0.0427
     42 H          -3.9253    1.6453   -0.4569 H       1  UNL1        0.0427
     43 H          -2.4159   -0.3115    2.0060 H       1  UNL1        0.0308
     44 H          -2.4876   -2.0873    2.0036 H       1  UNL1        0.0308
     45 H          -0.1243   -1.1551    2.2884 H       1  UNL1        0.0465
     46 H          -0.3685   -2.2435    0.8270 H       1  UNL1        0.0465
     47 H           5.9393   -1.8522   -0.8414 H       1  UNL1        0.0654
     48 H           8.3421   -1.2079   -1.2387 H       1  UNL1        0.0620
     49 H           9.4695    0.3337    0.2686 H       1  UNL1        0.0646
     50 H           5.9104    0.6471    2.5868 H       1  UNL1        0.0683
     51 H           4.7224    1.1282   -0.4267 H       1  UNL1        0.0692
     52 H          -1.8640    1.1489    0.6563 H       1  UNL1        0.0465
     53 H          -0.9039    1.4022   -0.8243 H       1  UNL1        0.0465
     54 H          -1.2937   -0.9191   -1.5136 H       1  UNL1        0.0308
     55 H          -2.7318    0.0809   -1.6746 H       1  UNL1        0.0308
@<TRIPOS>BOND
     1     1     2    1
     2     2     3    1
     3     3     4    1
     4     4     5    1
     5     5     6    1
     6     6     7    1
     7     7     8    1
     8     2     9    1
     9     9    10    1
    10    10    11    1
    11    11    12    1
    12    12    13   ar
    13    13    14   ar
    14    14    15    1
    15    15    16    1
    16    16    17   ar
    17    17    18   ar
    18    18    19   ar
    19    19    20   ar
    20    20    21    1
    21    20    22   ar
    22    14    23   ar
    23    23    24   ar
    24    24    25    1
    25    25    26    1
    26    25    27    1
    27    25    28    1
    28    24    29   ar
    29    11    30    1
    30    30    31    1
    31    31     2    1
    32     8     4    1
    33    29    12   ar
    34    22    16   ar
    35     1    32    1
    36     3    33    1
    37     3    34    1
    38     5    35    1
    39     5    36    1
    40     6    37    1
    41     6    38    1
    42     7    39    1
    43     7    40    1
    44     8    41    1
    45     8    42    1
    46     9    43    1
    47     9    44    1
    48    10    45    1
    49    10    46    1
    50    17    47    1
    51    18    48    1
    52    19    49    1
    53    22    50    1
    54    23    51    1
    55    30    52    1
    56    30    53    1
    57    31    54    1
    58    31    55    1
