
     RDKit          3D

 55 58  0  0  0  0  0  0  0  0999 V2000
   -2.4602   -2.5991   -0.4022 O   0  0  0  0  0  0  0  0  0  0  0  0
   -2.7543   -1.2768    0.0692 C   0  0  0  0  0  0  0  0  0  0  0  0
   -4.2284   -1.1912    0.0912 C   0  0  0  0  0  0  0  0  0  0  0  0
   -4.8587   -0.0142    0.5554 N   0  0  0  0  0  0  0  0  0  0  0  0
   -6.3207   -0.3472    0.5506 C   0  0  0  0  0  0  0  0  0  0  0  0
   -6.7715   -0.0503   -0.8559 C   0  0  0  0  0  0  0  0  0  0  0  0
   -5.6625    0.7794   -1.5093 C   0  0  0  0  0  0  0  0  0  0  0  0
   -4.8545    1.1400   -0.2810 C   0  0  0  0  0  0  0  0  0  0  0  0
   -2.1244   -1.2087    1.4422 C   0  0  0  0  0  0  0  0  0  0  0  0
   -0.6211   -1.2549    1.2853 C   0  0  0  0  0  0  0  0  0  0  0  0
   -0.1961   -0.1458    0.4758 N   0  0  0  0  0  0  0  0  0  0  0  0
    1.1595    0.1878    0.2409 C   0  0  0  0  0  0  0  0  0  0  0  0
    2.1296   -0.5621    0.7907 N   0  0  0  0  0  0  0  0  0  0  0  0
    3.4193   -0.2506    0.5702 C   0  0  0  0  0  0  0  0  0  0  0  0
    4.4394   -0.9999    1.1198 O   0  0  0  0  0  0  0  0  0  0  0  0
    5.7618   -0.6619    0.8787 C   0  0  0  0  0  0  0  0  0  0  0  0
    6.4723   -1.1708   -0.1938 C   0  0  0  0  0  0  0  0  0  0  0  0
    7.7879   -0.8063   -0.3952 C   0  0  0  0  0  0  0  0  0  0  0  0
    8.4453    0.0625    0.4422 C   0  0  0  0  0  0  0  0  0  0  0  0
    7.7369    0.5700    1.5116 C   0  0  0  0  0  0  0  0  0  0  0  0
    8.3859    1.4243    2.3332 F   0  0  0  0  0  0  0  0  0  0  0  0
    6.4164    0.2144    1.7277 C   0  0  0  0  0  0  0  0  0  0  0  0
    3.7065    0.8345   -0.2176 C   0  0  0  0  0  0  0  0  0  0  0  0
    2.7175    1.6169   -0.7911 C   0  0  0  0  0  0  0  0  0  0  0  0
    3.0517    2.7854   -1.6393 C   0  0  0  0  0  0  0  0  0  0  0  0
    2.9717    3.9804   -0.9601 F   0  0  0  0  0  0  0  0  0  0  0  0
    4.3736    2.6619   -2.0642 F   0  0  0  0  0  0  0  0  0  0  0  0
    2.2087    2.7703   -2.7424 F   0  0  0  0  0  0  0  0  0  0  0  0
    1.4498    1.2504   -0.5305 N   0  0  0  0  0  0  0  0  0  0  0  0
   -1.2738    0.6566   -0.1222 C   0  0  0  0  0  0  0  0  0  0  0  0
   -2.0969   -0.3680   -0.9152 C   0  0  0  0  0  0  0  0  0  0  0  0
   -2.8830   -3.2200    0.2481 H   0  0  0  0  0  0  0  0  0  0  0  0
   -4.5982   -1.4911   -0.9465 H   0  0  0  0  0  0  0  0  0  0  0  0
   -4.6495   -2.0408    0.7239 H   0  0  0  0  0  0  0  0  0  0  0  0
   -6.4485   -1.4332    0.7260 H   0  0  0  0  0  0  0  0  0  0  0  0
   -6.8484    0.2045    1.3267 H   0  0  0  0  0  0  0  0  0  0  0  0
   -7.6841    0.5852   -0.8891 H   0  0  0  0  0  0  0  0  0  0  0  0
   -6.9495   -0.9590   -1.4596 H   0  0  0  0  0  0  0  0  0  0  0  0
   -6.0495    1.6764   -2.0033 H   0  0  0  0  0  0  0  0  0  0  0  0
   -5.0565    0.1389   -2.1475 H   0  0  0  0  0  0  0  0  0  0  0  0
   -5.5119    1.9027    0.2540 H   0  0  0  0  0  0  0  0  0  0  0  0
   -3.9253    1.6453   -0.4569 H   0  0  0  0  0  0  0  0  0  0  0  0
   -2.4159   -0.3115    2.0060 H   0  0  0  0  0  0  0  0  0  0  0  0
   -2.4876   -2.0873    2.0036 H   0  0  0  0  0  0  0  0  0  0  0  0
   -0.1243   -1.1551    2.2884 H   0  0  0  0  0  0  0  0  0  0  0  0
   -0.3685   -2.2435    0.8270 H   0  0  0  0  0  0  0  0  0  0  0  0
    5.9393   -1.8522   -0.8414 H   0  0  0  0  0  0  0  0  0  0  0  0
    8.3421   -1.2079   -1.2387 H   0  0  0  0  0  0  0  0  0  0  0  0
    9.4695    0.3337    0.2686 H   0  0  0  0  0  0  0  0  0  0  0  0
    5.9104    0.6471    2.5868 H   0  0  0  0  0  0  0  0  0  0  0  0
    4.7224    1.1282   -0.4267 H   0  0  0  0  0  0  0  0  0  0  0  0
   -1.8640    1.1489    0.6563 H   0  0  0  0  0  0  0  0  0  0  0  0
   -0.9039    1.4022   -0.8243 H   0  0  0  0  0  0  0  0  0  0  0  0
   -1.2937   -0.9191   -1.5136 H   0  0  0  0  0  0  0  0  0  0  0  0
   -2.7318    0.0809   -1.6746 H   0  0  0  0  0  0  0  0  0  0  0  0
  1  2  1  0
  2  3  1  0
  3  4  1  0
  4  5  1  0
  5  6  1  0
  6  7  1  0
  7  8  1  0
  2  9  1  0
  9 10  1  0
 10 11  1  0
 11 12  1  0
 12 13  2  0
 13 14  1  0
 14 15  1  0
 15 16  1  0
 16 17  2  0
 17 18  1  0
 18 19  2  0
 19 20  1  0
 20 21  1  0
 20 22  2  0
 14 23  2  0
 23 24  1  0
 24 25  1  0
 25 26  1  0
 25 27  1  0
 25 28  1  0
 24 29  2  0
 11 30  1  0
 30 31  1  0
 31  2  1  0
  8  4  1  0
 29 12  1  0
 22 16  1  0
  1 32  1  0
  3 33  1  0
  3 34  1  0
  5 35  1  0
  5 36  1  0
  6 37  1  0
  6 38  1  0
  7 39  1  0
  7 40  1  0
  8 41  1  0
  8 42  1  0
  9 43  1  0
  9 44  1  0
 10 45  1  0
 10 46  1  0
 17 47  1  0
 18 48  1  0
 19 49  1  0
 22 50  1  0
 23 51  1  0
 30 52  1  0
 30 53  1  0
 31 54  1  0
 31 55  1  0
M  END
$$$$
