@<TRIPOS>MOLECULE
*****
 54 56 0 0 0
SMALL
GASTEIGER

@<TRIPOS>ATOM
      1 N          -3.3588   -3.0981   -0.5506 N.3     1  UNL1       -0.3197
      2 C          -2.8447   -1.8049   -0.0982 C.3     1  UNL1        0.0854
      3 C          -4.0082   -0.8849   -0.1047 C.2     1  UNL1        0.2327
      4 O          -4.9516   -1.1968   -0.9088 O.2     1  UNL1       -0.2739
      5 N          -4.1091    0.2620    0.7065 N.am    1  UNL1       -0.3002
      6 C          -3.1399    0.7252    1.6674 C.3     1  UNL1        0.0148
      7 C          -4.0576    1.2801    2.7586 C.3     1  UNL1       -0.0357
      8 C          -5.0646    2.0371    1.9236 C.3     1  UNL1       -0.0357
      9 C          -5.2519    1.1799    0.7153 C.3     1  UNL1        0.0148
     10 C          -1.7944   -1.3185   -1.0711 C.3     1  UNL1       -0.0158
     11 C          -1.1702   -0.0000   -0.7180 C.3     1  UNL1       -0.0468
     12 C           0.0729   -0.0291   -1.6382 C.3     1  UNL1       -0.0356
     13 C           0.6132   -1.3961   -1.2747 C.3     1  UNL1        0.0292
     14 N           1.5716   -1.8834   -2.2098 N.3     1  UNL1       -0.1869
     15 S           3.0569   -2.1907   -1.3872 S.O2    1  UNL1        0.0586
     16 O           2.8145   -3.2090   -0.2819 O.2     1  UNL1       -0.1530
     17 O           4.0719   -2.8253   -2.3101 O.2     1  UNL1       -0.1530
     18 C           3.7444   -0.7762   -0.6709 C.ar    1  UNL1        0.1054
     19 C           4.5887    0.0042   -1.4372 C.ar    1  UNL1       -0.0335
     20 C           5.1709    1.1368   -0.9379 C.ar    1  UNL1       -0.0335
     21 C           4.8983    1.4958    0.3656 C.ar    1  UNL1        0.1051
     22 S           5.6463    2.9396    0.9875 S.O2    1  UNL1        0.0559
     23 N           4.6085    4.2791    0.6741 N.3     1  UNL1       -0.2035
     24 O           5.8342    2.7461    2.4770 O.2     1  UNL1       -0.1533
     25 O           7.0093    3.1248    0.3868 O.2     1  UNL1       -0.1533
     26 C           4.0665    0.7514    1.1630 C.ar    1  UNL1       -0.0335
     27 C           3.4970   -0.3882    0.6201 C.ar    1  UNL1       -0.0335
     28 C          -0.6526   -2.2618   -1.2708 C.3     1  UNL1       -0.0312
     29 H          -2.6944   -3.8727   -0.3516 H       1  UNL1        0.1189
     30 H          -3.6721   -3.0619   -1.5409 H       1  UNL1        0.1189
     31 H          -2.3884   -1.9391    0.8810 H       1  UNL1        0.0557
     32 H          -2.4911    1.5400    1.2702 H       1  UNL1        0.0464
     33 H          -2.5660   -0.1195    2.0645 H       1  UNL1        0.0464
     34 H          -4.5085    0.4593    3.3193 H       1  UNL1        0.0281
     35 H          -3.4812    1.9991    3.3701 H       1  UNL1        0.0281
     36 H          -6.0396    2.0940    2.4726 H       1  UNL1        0.0281
     37 H          -4.6609    3.0461    1.6968 H       1  UNL1        0.0281
     38 H          -6.2105    0.6092    0.7725 H       1  UNL1        0.0464
     39 H          -5.2691    1.7261   -0.2389 H       1  UNL1        0.0464
     40 H          -2.3137   -1.1420   -2.0615 H       1  UNL1        0.0321
     41 H          -1.7928    0.8731   -0.9192 H       1  UNL1        0.0269
     42 H          -0.7289   -0.0152    0.3202 H       1  UNL1        0.0269
     43 H          -0.3088    0.0057   -2.6648 H       1  UNL1        0.0281
     44 H           0.7745    0.7792   -1.3749 H       1  UNL1        0.0281
     45 H           1.0484   -1.3385   -0.2735 H       1  UNL1        0.0477
     46 H           1.2962   -2.7590   -2.6920 H       1  UNL1        0.1483
     47 H           4.7944   -0.2859   -2.4537 H       1  UNL1        0.0638
     48 H           5.8278    1.7131   -1.5885 H       1  UNL1        0.0638
     49 H           5.1181    5.0488    0.2158 H       1  UNL1        0.1442
     50 H           4.0120    4.5417    1.4665 H       1  UNL1        0.1442
     51 H           3.8303    1.0078    2.1968 H       1  UNL1        0.0638
     52 H           2.8389   -0.9787    1.2575 H       1  UNL1        0.0638
     53 H          -0.7480   -2.7506   -2.2659 H       1  UNL1        0.0284
     54 H          -0.5278   -2.9853   -0.4540 H       1  UNL1        0.0284
@<TRIPOS>BOND
     1     1     2    1
     2     2     3    1
     3     3     4    2
     4     3     5   am
     5     5     6    1
     6     6     7    1
     7     7     8    1
     8     8     9    1
     9     2    10    1
    10    10    11    1
    11    11    12    1
    12    12    13    1
    13    13    14    1
    14    14    15    1
    15    15    16    2
    16    15    17    2
    17    15    18    1
    18    18    19   ar
    19    19    20   ar
    20    20    21   ar
    21    21    22    1
    22    22    23    1
    23    22    24    2
    24    22    25    2
    25    21    26   ar
    26    26    27   ar
    27    13    28    1
    28     9     5    1
    29    28    10    1
    30    27    18   ar
    31     1    29    1
    32     1    30    1
    33     2    31    1
    34     6    32    1
    35     6    33    1
    36     7    34    1
    37     7    35    1
    38     8    36    1
    39     8    37    1
    40     9    38    1
    41     9    39    1
    42    10    40    1
    43    11    41    1
    44    11    42    1
    45    12    43    1
    46    12    44    1
    47    13    45    1
    48    14    46    1
    49    19    47    1
    50    20    48    1
    51    23    49    1
    52    23    50    1
    53    26    51    1
    54    27    52    1
    55    28    53    1
    56    28    54    1
