@<TRIPOS>MOLECULE
*****
 70 74 0 0 0
SMALL
GASTEIGER

@<TRIPOS>ATOM
      1 C           9.8211   -0.2134   -0.5045 C.3     1  UNL1       -0.0570
      2 C           8.4075    0.1949   -0.2029 C.3     1  UNL1        0.0213
      3 C           7.4223   -0.3748   -1.1676 C.2     1  UNL1        0.2154
      4 O           7.8085   -1.1057   -2.0869 O.2     1  UNL1       -0.2756
      5 N           6.0667   -0.0597   -1.0050 N.am    1  UNL1       -0.2989
      6 C           4.9948   -0.5108   -1.8589 C.3     1  UNL1        0.0291
      7 C           3.6492    0.0350   -1.4822 C.3     1  UNL1        0.0363
      8 N           3.6297    1.3484   -0.9737 N.3     1  UNL1       -0.1736
      9 S           2.2228    1.8555   -0.1747 S.O2    1  UNL1        0.0610
     10 O           2.3550    3.2552    0.3500 O.2     1  UNL1       -0.1528
     11 O           0.9924    1.7918   -1.0209 O.2     1  UNL1       -0.1528
     12 C           1.9759    0.8157    1.2283 C.ar    1  UNL1        0.1072
     13 C           2.7466    0.8950    2.3469 C.ar    1  UNL1       -0.0352
     14 C           2.5198    0.0779    3.4264 C.ar    1  UNL1       -0.0582
     15 C           1.4938   -0.8437    3.3888 C.ar    1  UNL1       -0.0404
     16 C           0.6907   -0.9432    2.2590 C.ar    1  UNL1        0.0354
     17 N          -0.3722   -1.8757    2.2248 N.pl3   1  UNL1       -0.2835
     18 C          -1.3679   -1.7574    1.2293 C.ar    1  UNL1        0.2213
     19 N          -1.3434   -2.4899    0.1105 N.ar    1  UNL1       -0.2207
     20 C          -2.2962   -2.3937   -0.8610 C.ar    1  UNL1        0.0560
     21 C          -3.3327   -1.5199   -0.7127 C.ar    1  UNL1        0.0952
     22 C          -3.3601   -0.7627    0.4402 C.ar    1  UNL1        0.1520
     23 N          -2.4050   -0.8870    1.3704 N.ar    1  UNL1       -0.1970
     24 N          -4.3131    0.2331    0.8488 N.pl3   1  UNL1       -0.2860
     25 C          -3.8888    1.1630    1.8898 C.3     1  UNL1        0.0072
     26 C          -5.6297    0.4178    0.3470 C.ar    1  UNL1        0.0471
     27 C          -6.3987    1.2411    1.1492 C.ar    1  UNL1       -0.0393
     28 C          -7.7000    1.5563    0.8482 C.ar    1  UNL1       -0.0570
     29 C          -8.2933    1.0501   -0.2876 C.ar    1  UNL1       -0.0496
     30 C          -9.7041    1.3965   -0.6090 C.3     1  UNL1       -0.0397
     31 C          -7.5364    0.2295   -1.0912 C.ar    1  UNL1       -0.0449
     32 C          -6.2296   -0.0893   -0.7937 C.ar    1  UNL1        0.0588
     33 C          -5.5762   -0.9741   -1.7557 C.2     1  UNL1        0.2525
     34 O          -6.2990   -1.3060   -2.7145 O.2     1  UNL1       -0.2696
     35 N          -4.2584   -1.5202   -1.7834 N.am    1  UNL1       -0.2663
     36 C          -3.7878   -2.1454   -3.0004 C.3     1  UNL1        0.0087
     37 C           0.9353   -0.1275    1.2070 C.ar    1  UNL1       -0.0141
     38 C           4.8495    1.9040   -0.5028 C.3     1  UNL1        0.0363
     39 C           5.6569    0.7920    0.1215 C.3     1  UNL1        0.0291
     40 H          10.2598   -0.6426    0.4219 H       1  UNL1        0.0234
     41 H          10.3926    0.6619   -0.8723 H       1  UNL1        0.0234
     42 H           9.8293   -1.0139   -1.2792 H       1  UNL1        0.0234
     43 H           8.0925   -0.1697    0.8199 H       1  UNL1        0.0356
     44 H           8.3654    1.3133   -0.2054 H       1  UNL1        0.0356
     45 H           4.9422   -1.6155   -1.7635 H       1  UNL1        0.0478
     46 H           5.2305   -0.3283   -2.9437 H       1  UNL1        0.0478
     47 H           2.9795   -0.0869   -2.3605 H       1  UNL1        0.0459
     48 H           3.2148   -0.6415   -0.6876 H       1  UNL1        0.0459
     49 H           3.5663    1.6261    2.3839 H       1  UNL1        0.0637
     50 H           3.1443    0.1541    4.3044 H       1  UNL1        0.0619
     51 H           1.3156   -1.4877    4.2431 H       1  UNL1        0.0636
     52 H          -0.3844   -2.6320    2.9466 H       1  UNL1        0.1550
     53 H          -2.2588   -2.9876   -1.7500 H       1  UNL1        0.0851
     54 H          -4.2679    0.8909    2.8803 H       1  UNL1        0.0432
     55 H          -2.7650    1.0698    1.9601 H       1  UNL1        0.0432
     56 H          -4.0582    2.2151    1.5855 H       1  UNL1        0.0432
     57 H          -5.9603    1.6503    2.0384 H       1  UNL1        0.0636
     58 H          -8.3142    2.2036    1.4704 H       1  UNL1        0.0621
     59 H         -10.2381    1.7169    0.3116 H       1  UNL1        0.0278
     60 H         -10.2000    0.5170   -1.0907 H       1  UNL1        0.0278
     61 H          -9.7111    2.2345   -1.3368 H       1  UNL1        0.0278
     62 H          -7.9822   -0.1810   -1.9889 H       1  UNL1        0.0628
     63 H          -4.5617   -1.8822   -3.7880 H       1  UNL1        0.0433
     64 H          -3.8375   -3.2555   -2.9763 H       1  UNL1        0.0433
     65 H          -2.8477   -1.7308   -3.3714 H       1  UNL1        0.0433
     66 H           0.3429   -0.1635    0.3017 H       1  UNL1        0.0656
     67 H           5.4631    2.4101   -1.2573 H       1  UNL1        0.0459
     68 H           4.5910    2.5977    0.3530 H       1  UNL1        0.0459
     69 H           4.9978    0.1768    0.7388 H       1  UNL1        0.0478
     70 H           6.5137    1.1252    0.7152 H       1  UNL1        0.0478
@<TRIPOS>BOND
     1     1     2    1
     2     2     3    1
     3     3     4    2
     4     3     5   am
     5     5     6    1
     6     6     7    1
     7     7     8    1
     8     8     9    1
     9     9    10    2
    10     9    11    2
    11     9    12    1
    12    12    13   ar
    13    13    14   ar
    14    14    15   ar
    15    15    16   ar
    16    16    17    1
    17    17    18    1
    18    18    19   ar
    19    19    20   ar
    20    20    21   ar
    21    21    22   ar
    22    22    23   ar
    23    22    24    1
    24    24    25    1
    25    24    26    1
    26    26    27   ar
    27    27    28   ar
    28    28    29   ar
    29    29    30    1
    30    29    31   ar
    31    31    32   ar
    32    32    33    1
    33    33    34    2
    34    33    35   am
    35    35    36    1
    36    16    37   ar
    37     8    38    1
    38    38    39    1
    39    39     5    1
    40    37    12   ar
    41    23    18   ar
    42    32    26   ar
    43    35    21    1
    44     1    40    1
    45     1    41    1
    46     1    42    1
    47     2    43    1
    48     2    44    1
    49     6    45    1
    50     6    46    1
    51     7    47    1
    52     7    48    1
    53    13    49    1
    54    14    50    1
    55    15    51    1
    56    17    52    1
    57    20    53    1
    58    25    54    1
    59    25    55    1
    60    25    56    1
    61    27    57    1
    62    28    58    1
    63    30    59    1
    64    30    60    1
    65    30    61    1
    66    31    62    1
    67    36    63    1
    68    36    64    1
    69    36    65    1
    70    37    66    1
    71    38    67    1
    72    38    68    1
    73    39    69    1
    74    39    70    1
