
     RDKit          3D

 70 74  0  0  0  0  0  0  0  0999 V2000
    9.8211   -0.2134   -0.5045 C   0  0  0  0  0  0  0  0  0  0  0  0
    8.4075    0.1949   -0.2029 C   0  0  0  0  0  0  0  0  0  0  0  0
    7.4223   -0.3748   -1.1676 C   0  0  0  0  0  0  0  0  0  0  0  0
    7.8085   -1.1057   -2.0869 O   0  0  0  0  0  0  0  0  0  0  0  0
    6.0667   -0.0597   -1.0050 N   0  0  0  0  0  0  0  0  0  0  0  0
    4.9948   -0.5108   -1.8589 C   0  0  0  0  0  0  0  0  0  0  0  0
    3.6492    0.0350   -1.4822 C   0  0  0  0  0  0  0  0  0  0  0  0
    3.6297    1.3484   -0.9737 N   0  0  0  0  0  0  0  0  0  0  0  0
    2.2228    1.8555   -0.1747 S   0  0  0  0  0  6  0  0  0  0  0  0
    2.3550    3.2552    0.3500 O   0  0  0  0  0  0  0  0  0  0  0  0
    0.9924    1.7918   -1.0209 O   0  0  0  0  0  0  0  0  0  0  0  0
    1.9759    0.8157    1.2283 C   0  0  0  0  0  0  0  0  0  0  0  0
    2.7466    0.8950    2.3469 C   0  0  0  0  0  0  0  0  0  0  0  0
    2.5198    0.0779    3.4264 C   0  0  0  0  0  0  0  0  0  0  0  0
    1.4938   -0.8437    3.3888 C   0  0  0  0  0  0  0  0  0  0  0  0
    0.6907   -0.9432    2.2590 C   0  0  0  0  0  0  0  0  0  0  0  0
   -0.3722   -1.8757    2.2248 N   0  0  0  0  0  0  0  0  0  0  0  0
   -1.3679   -1.7574    1.2293 C   0  0  0  0  0  0  0  0  0  0  0  0
   -1.3434   -2.4899    0.1105 N   0  0  0  0  0  0  0  0  0  0  0  0
   -2.2962   -2.3937   -0.8610 C   0  0  0  0  0  0  0  0  0  0  0  0
   -3.3327   -1.5199   -0.7127 C   0  0  0  0  0  0  0  0  0  0  0  0
   -3.3601   -0.7627    0.4402 C   0  0  0  0  0  0  0  0  0  0  0  0
   -2.4050   -0.8870    1.3704 N   0  0  0  0  0  0  0  0  0  0  0  0
   -4.3131    0.2331    0.8488 N   0  0  0  0  0  0  0  0  0  0  0  0
   -3.8888    1.1630    1.8898 C   0  0  0  0  0  0  0  0  0  0  0  0
   -5.6297    0.4178    0.3470 C   0  0  0  0  0  0  0  0  0  0  0  0
   -6.3987    1.2411    1.1492 C   0  0  0  0  0  0  0  0  0  0  0  0
   -7.7000    1.5563    0.8482 C   0  0  0  0  0  0  0  0  0  0  0  0
   -8.2933    1.0501   -0.2876 C   0  0  0  0  0  0  0  0  0  0  0  0
   -9.7041    1.3965   -0.6090 C   0  0  0  0  0  0  0  0  0  0  0  0
   -7.5364    0.2295   -1.0912 C   0  0  0  0  0  0  0  0  0  0  0  0
   -6.2296   -0.0893   -0.7937 C   0  0  0  0  0  0  0  0  0  0  0  0
   -5.5762   -0.9741   -1.7557 C   0  0  0  0  0  0  0  0  0  0  0  0
   -6.2990   -1.3060   -2.7145 O   0  0  0  0  0  0  0  0  0  0  0  0
   -4.2584   -1.5202   -1.7834 N   0  0  0  0  0  0  0  0  0  0  0  0
   -3.7878   -2.1454   -3.0004 C   0  0  0  0  0  0  0  0  0  0  0  0
    0.9353   -0.1275    1.2070 C   0  0  0  0  0  0  0  0  0  0  0  0
    4.8495    1.9040   -0.5028 C   0  0  0  0  0  0  0  0  0  0  0  0
    5.6569    0.7920    0.1215 C   0  0  0  0  0  0  0  0  0  0  0  0
   10.2598   -0.6426    0.4219 H   0  0  0  0  0  0  0  0  0  0  0  0
   10.3926    0.6619   -0.8723 H   0  0  0  0  0  0  0  0  0  0  0  0
    9.8293   -1.0139   -1.2792 H   0  0  0  0  0  0  0  0  0  0  0  0
    8.0925   -0.1697    0.8199 H   0  0  0  0  0  0  0  0  0  0  0  0
    8.3654    1.3133   -0.2054 H   0  0  0  0  0  0  0  0  0  0  0  0
    4.9422   -1.6155   -1.7635 H   0  0  0  0  0  0  0  0  0  0  0  0
    5.2305   -0.3283   -2.9437 H   0  0  0  0  0  0  0  0  0  0  0  0
    2.9795   -0.0869   -2.3605 H   0  0  0  0  0  0  0  0  0  0  0  0
    3.2148   -0.6415   -0.6876 H   0  0  0  0  0  0  0  0  0  0  0  0
    3.5663    1.6261    2.3839 H   0  0  0  0  0  0  0  0  0  0  0  0
    3.1443    0.1541    4.3044 H   0  0  0  0  0  0  0  0  0  0  0  0
    1.3156   -1.4877    4.2431 H   0  0  0  0  0  0  0  0  0  0  0  0
   -0.3844   -2.6320    2.9466 H   0  0  0  0  0  0  0  0  0  0  0  0
   -2.2588   -2.9876   -1.7500 H   0  0  0  0  0  0  0  0  0  0  0  0
   -4.2679    0.8909    2.8803 H   0  0  0  0  0  0  0  0  0  0  0  0
   -2.7650    1.0698    1.9601 H   0  0  0  0  0  0  0  0  0  0  0  0
   -4.0582    2.2151    1.5855 H   0  0  0  0  0  0  0  0  0  0  0  0
   -5.9603    1.6503    2.0384 H   0  0  0  0  0  0  0  0  0  0  0  0
   -8.3142    2.2036    1.4704 H   0  0  0  0  0  0  0  0  0  0  0  0
  -10.2381    1.7169    0.3116 H   0  0  0  0  0  0  0  0  0  0  0  0
  -10.2000    0.5170   -1.0907 H   0  0  0  0  0  0  0  0  0  0  0  0
   -9.7111    2.2345   -1.3368 H   0  0  0  0  0  0  0  0  0  0  0  0
   -7.9822   -0.1810   -1.9889 H   0  0  0  0  0  0  0  0  0  0  0  0
   -4.5617   -1.8822   -3.7880 H   0  0  0  0  0  0  0  0  0  0  0  0
   -3.8375   -3.2555   -2.9763 H   0  0  0  0  0  0  0  0  0  0  0  0
   -2.8477   -1.7308   -3.3714 H   0  0  0  0  0  0  0  0  0  0  0  0
    0.3429   -0.1635    0.3017 H   0  0  0  0  0  0  0  0  0  0  0  0
    5.4631    2.4101   -1.2573 H   0  0  0  0  0  0  0  0  0  0  0  0
    4.5910    2.5977    0.3530 H   0  0  0  0  0  0  0  0  0  0  0  0
    4.9978    0.1768    0.7388 H   0  0  0  0  0  0  0  0  0  0  0  0
    6.5137    1.1252    0.7152 H   0  0  0  0  0  0  0  0  0  0  0  0
  1  2  1  0
  2  3  1  0
  3  4  2  0
  3  5  1  0
  5  6  1  0
  6  7  1  0
  7  8  1  0
  8  9  1  0
  9 10  2  0
  9 11  2  0
  9 12  1  0
 12 13  2  0
 13 14  1  0
 14 15  2  0
 15 16  1  0
 16 17  1  0
 17 18  1  0
 18 19  2  0
 19 20  1  0
 20 21  2  0
 21 22  1  0
 22 23  2  0
 22 24  1  0
 24 25  1  0
 24 26  1  0
 26 27  2  0
 27 28  1  0
 28 29  2  0
 29 30  1  0
 29 31  1  0
 31 32  2  0
 32 33  1  0
 33 34  2  0
 33 35  1  0
 35 36  1  0
 16 37  2  0
  8 38  1  0
 38 39  1  0
 39  5  1  0
 37 12  1  0
 23 18  1  0
 32 26  1  0
 35 21  1  0
  1 40  1  0
  1 41  1  0
  1 42  1  0
  2 43  1  0
  2 44  1  0
  6 45  1  0
  6 46  1  0
  7 47  1  0
  7 48  1  0
 13 49  1  0
 14 50  1  0
 15 51  1  0
 17 52  1  0
 20 53  1  0
 25 54  1  0
 25 55  1  0
 25 56  1  0
 27 57  1  0
 28 58  1  0
 30 59  1  0
 30 60  1  0
 30 61  1  0
 31 62  1  0
 36 63  1  0
 36 64  1  0
 36 65  1  0
 37 66  1  0
 38 67  1  0
 38 68  1  0
 39 69  1  0
 39 70  1  0
M  END
$$$$
