@<TRIPOS>MOLECULE
*****
 30 29 0 0 0
SMALL
GASTEIGER

@<TRIPOS>ATOM
      1 C           1.0302   -2.1686    0.2790 C.2     1  UNL1        0.1430
      2 O           0.6161   -3.3133    0.5129 O.2     1  UNL1       -0.2990
      3 CA          1.0584   -0.7950   -0.2977 C.3     1  UNL1        0.1067
      4 N           2.2540   -0.1619    0.1835 N.am    1  UNL1       -0.3036
      5 C           3.3951    0.3666   -0.5210 C.2     1  UNL1        0.2105
      6 C           4.4983    0.9734    0.2701 C.3     1  UNL1        0.0122
      7 O           3.4539    0.3141   -1.7817 O.2     1  UNL1       -0.2761
      8 C          -0.1767    0.0020    0.0856 C.3     1  UNL1        0.1083
      9 O          -0.0494    1.2607   -0.4866 O.3     1  UNL1       -0.3869
     10 C          -1.3597   -0.6824   -0.5424 C.3     1  UNL1        0.1111
     11 O          -1.1235   -0.7820   -1.9005 O.3     1  UNL1       -0.3865
     12 C          -2.6223    0.1360   -0.3642 C.3     1  UNL1        0.1065
     13 O          -2.4665    1.3914   -0.9096 O.3     1  UNL1       -0.3869
     14 C          -2.9951    0.1889    1.1050 C.3     1  UNL1        0.0727
     15 O          -4.1881    0.8753    1.2164 O.3     1  UNL1       -0.3924
     16 H           0.6495   -3.1601    0.4676 H       1  UNL1        0.1047
     17 HA          1.0801   -0.8573   -1.4218 H       1  UNL1        0.0601
     18 H           2.2436   -0.0982    1.2424 H       1  UNL1        0.1495
     19 H           4.4627    0.5603    1.2945 H       1  UNL1        0.0322
     20 H           4.3524    2.0681    0.3681 H       1  UNL1        0.0322
     21 H           5.4839    0.7391   -0.1850 H       1  UNL1        0.0322
     22 H          -0.2567    0.0864    1.1761 H       1  UNL1        0.0643
     23 H          -0.2061    1.1549   -1.4573 H       1  UNL1        0.2100
     24 H          -1.5833   -1.6613   -0.0722 H       1  UNL1        0.0646
     25 H          -1.4364   -1.6199   -2.3075 H       1  UNL1        0.2100
     26 H          -3.4433   -0.4477   -0.8566 H       1  UNL1        0.0643
     27 H          -2.9101    2.0761   -0.3557 H       1  UNL1        0.2100
     28 H          -3.1657   -0.8539    1.4139 H       1  UNL1        0.0584
     29 H          -2.2125    0.6859    1.6846 H       1  UNL1        0.0584
     30 H          -4.3828    1.0079    2.1604 H       1  UNL1        0.2095
@<TRIPOS>BOND
     1     1     2    2
     2     1     3    1
     3     3     4    1
     4     4     5   am
     5     5     6    1
     6     5     7    2
     7     3     8    1
     8     8     9    1
     9     8    10    1
    10    10    11    1
    11    10    12    1
    12    12    13    1
    13    12    14    1
    14    14    15    1
    15     1    16    1
    16     3    17    1
    17     4    18    1
    18     6    19    1
    19     6    20    1
    20     6    21    1
    21     8    22    1
    22     9    23    1
    23    10    24    1
    24    11    25    1
    25    12    26    1
    26    13    27    1
    27    14    28    1
    28    14    29    1
    29    15    30    1
