
     RDKit          3D

 41 43  0  0  0  0  0  0  0  0999 V2000
    1.7868   -0.1289   -0.7137 O   0  0  0  0  0  0  0  0  0  0  0  0
    1.9350   -0.9664    0.2021 C   0  0  0  0  0  0  0  0  0  0  0  0
    0.7970   -1.8534    0.6072 C   0  0  0  0  0  0  0  0  0  0  0  0
   -0.4111   -1.5687   -0.2093 C   0  0  0  0  0  0  0  0  0  0  0  0
   -1.3319   -0.6584    0.1506 N   0  0  0  0  0  0  0  0  0  0  0  0
   -2.4410   -0.3729   -0.5646 C   0  0  0  0  0  0  0  0  0  0  0  0
   -3.3864    0.5928   -0.1513 N   0  0  0  0  0  0  0  0  0  0  0  0
   -3.2502    1.3602    1.0709 C   0  0  0  0  0  0  0  0  0  0  0  0
   -4.4846    1.3395    1.9207 C   0  0  0  0  0  0  0  0  0  0  0  0
   -5.6292    1.2562    1.1522 O   0  0  0  0  0  0  0  0  0  0  0  0
   -5.4750    1.7369   -0.1242 C   0  0  0  0  0  0  0  0  0  0  0  0
   -4.5554    0.8504   -0.9643 C   0  0  0  0  0  0  0  0  0  0  0  0
   -2.6492   -1.0569   -1.7434 C   0  0  0  0  0  0  0  0  0  0  0  0
   -1.7207   -1.9890   -2.1264 C   0  0  0  0  0  0  0  0  0  0  0  0
   -1.9195   -2.6065   -3.2015 O   0  0  0  0  0  0  0  0  0  0  0  0
   -0.6335   -2.2276   -1.3669 N   0  0  0  0  0  0  0  0  0  0  0  0
    3.1999   -1.0455    0.8343 N   0  0  0  0  0  0  0  0  0  0  0  0
    4.3436   -0.2872    0.5625 C   0  0  0  0  0  0  0  0  0  0  0  0
    4.4968    0.6913   -0.3650 C   0  0  0  0  0  0  0  0  0  0  0  0
    5.6954    1.3811   -0.5434 C   0  0  0  0  0  0  0  0  0  0  0  0
    6.7699    1.0684    0.2428 C   0  0  0  0  0  0  0  0  0  0  0  0
    6.6744    0.0816    1.2038 C   0  0  0  0  0  0  0  0  0  0  0  0
    8.0407   -0.3289    2.2165 Cl  0  0  0  0  0  0  0  0  0  0  0  0
    5.4746   -0.5708    1.3437 C   0  0  0  0  0  0  0  0  0  0  0  0
    1.0865   -2.9294    0.5479 H   0  0  0  0  0  0  0  0  0  0  0  0
    0.6221   -1.6551    1.6892 H   0  0  0  0  0  0  0  0  0  0  0  0
   -3.1048    2.4326    0.7482 H   0  0  0  0  0  0  0  0  0  0  0  0
   -2.3507    1.0747    1.6471 H   0  0  0  0  0  0  0  0  0  0  0  0
   -4.4399    0.4743    2.6297 H   0  0  0  0  0  0  0  0  0  0  0  0
   -4.5447    2.2527    2.5488 H   0  0  0  0  0  0  0  0  0  0  0  0
   -6.4898    1.7366   -0.6007 H   0  0  0  0  0  0  0  0  0  0  0  0
   -5.0956    2.7776   -0.0853 H   0  0  0  0  0  0  0  0  0  0  0  0
   -4.2136    1.4456   -1.8526 H   0  0  0  0  0  0  0  0  0  0  0  0
   -5.0938   -0.0666   -1.2594 H   0  0  0  0  0  0  0  0  0  0  0  0
   -3.5448   -0.8390   -2.3388 H   0  0  0  0  0  0  0  0  0  0  0  0
    0.0334   -2.9499   -1.7168 H   0  0  0  0  0  0  0  0  0  0  0  0
    3.2410   -1.7879    1.6068 H   0  0  0  0  0  0  0  0  0  0  0  0
    3.6671    0.9554   -0.9950 H   0  0  0  0  0  0  0  0  0  0  0  0
    5.7363    2.1364   -1.2930 H   0  0  0  0  0  0  0  0  0  0  0  0
    7.7177    1.5805    0.1356 H   0  0  0  0  0  0  0  0  0  0  0  0
    5.4470   -1.3355    2.1086 H   0  0  0  0  0  0  0  0  0  0  0  0
  1  2  2  0
  2  3  1  0
  3  4  1  0
  4  5  2  0
  5  6  1  0
  6  7  1  0
  7  8  1  0
  8  9  1  0
  9 10  1  0
 10 11  1  0
 11 12  1  0
  6 13  2  0
 13 14  1  0
 14 15  2  0
 14 16  1  0
  2 17  1  0
 17 18  1  0
 18 19  2  0
 19 20  1  0
 20 21  2  0
 21 22  1  0
 22 23  1  0
 22 24  2  0
 16  4  1  0
 24 18  1  0
 12  7  1  0
  3 25  1  0
  3 26  1  0
  8 27  1  0
  8 28  1  0
  9 29  1  0
  9 30  1  0
 11 31  1  0
 11 32  1  0
 12 33  1  0
 12 34  1  0
 13 35  1  0
 16 36  1  0
 17 37  1  0
 19 38  1  0
 20 39  1  0
 21 40  1  0
 24 41  1  0
M  END
$$$$
