@<TRIPOS>MOLECULE
*****
 41 43 0 0 0
SMALL
GASTEIGER

@<TRIPOS>ATOM
      1 O           1.7868   -0.1289   -0.7137 O.2     1  UNL1       -0.2750
      2 C           1.9350   -0.9664    0.2021 C.2     1  UNL1        0.2245
      3 C           0.7970   -1.8534    0.6072 C.3     1  UNL1        0.0824
      4 C          -0.4111   -1.5687   -0.2093 C.ar    1  UNL1        0.1206
      5 N          -1.3319   -0.6584    0.1506 N.ar    1  UNL1       -0.2186
      6 C          -2.4410   -0.3729   -0.5646 C.ar    1  UNL1        0.1285
      7 N          -3.3864    0.5928   -0.1513 N.pl3   1  UNL1       -0.3106
      8 C          -3.2502    1.3602    1.0709 C.3     1  UNL1        0.0370
      9 C          -4.4846    1.3395    1.9207 C.3     1  UNL1        0.0634
     10 O          -5.6292    1.2562    1.1522 O.3     1  UNL1       -0.3767
     11 C          -5.4750    1.7369   -0.1242 C.3     1  UNL1        0.0634
     12 C          -4.5554    0.8504   -0.9643 C.3     1  UNL1        0.0370
     13 C          -2.6492   -1.0569   -1.7434 C.ar    1  UNL1        0.0427
     14 C          -1.7207   -1.9890   -2.1264 C.ar    1  UNL1        0.2533
     15 O          -1.9195   -2.6065   -3.2015 O.2     1  UNL1       -0.2677
     16 N          -0.6335   -2.2276   -1.3669 N.ar    1  UNL1       -0.3104
     17 N           3.1999   -1.0455    0.8343 N.am    1  UNL1       -0.2851
     18 C           4.3436   -0.2872    0.5625 C.ar    1  UNL1        0.0348
     19 C           4.4968    0.6913   -0.3650 C.ar    1  UNL1       -0.0404
     20 C           5.6954    1.3811   -0.5434 C.ar    1  UNL1       -0.0586
     21 C           6.7699    1.0684    0.2428 C.ar    1  UNL1       -0.0433
     22 C           6.6744    0.0816    1.2038 C.ar    1  UNL1        0.0427
     23 CL          8.0407   -0.3289    2.2165 Cl      1  UNL1       -0.0835
     24 C           5.4746   -0.5708    1.3437 C.ar    1  UNL1       -0.0221
     25 H           1.0865   -2.9294    0.5479 H       1  UNL1        0.0438
     26 H           0.6221   -1.6551    1.6892 H       1  UNL1        0.0438
     27 H          -3.1048    2.4326    0.7482 H       1  UNL1        0.0487
     28 H          -2.3507    1.0747    1.6471 H       1  UNL1        0.0487
     29 H          -4.4399    0.4743    2.6297 H       1  UNL1        0.0575
     30 H          -4.5447    2.2527    2.5488 H       1  UNL1        0.0575
     31 H          -6.4898    1.7366   -0.6007 H       1  UNL1        0.0575
     32 H          -5.0956    2.7776   -0.0853 H       1  UNL1        0.0575
     33 H          -4.2136    1.4456   -1.8526 H       1  UNL1        0.0487
     34 H          -5.0938   -0.0666   -1.2594 H       1  UNL1        0.0487
     35 H          -3.5448   -0.8390   -2.3388 H       1  UNL1        0.0706
     36 H           0.0334   -2.9499   -1.7168 H       1  UNL1        0.1700
     37 H           3.2410   -1.7879    1.6068 H       1  UNL1        0.1548
     38 H           3.6671    0.9554   -0.9950 H       1  UNL1        0.0636
     39 H           5.7363    2.1364   -1.2930 H       1  UNL1        0.0619
     40 H           7.7177    1.5805    0.1356 H       1  UNL1        0.0632
     41 H           5.4470   -1.3355    2.1086 H       1  UNL1        0.0651
@<TRIPOS>BOND
     1     1     2    2
     2     2     3    1
     3     3     4    1
     4     4     5   ar
     5     5     6   ar
     6     6     7    1
     7     7     8    1
     8     8     9    1
     9     9    10    1
    10    10    11    1
    11    11    12    1
    12     6    13   ar
    13    13    14   ar
    14    14    15    2
    15    14    16   ar
    16     2    17   am
    17    17    18    1
    18    18    19   ar
    19    19    20   ar
    20    20    21   ar
    21    21    22   ar
    22    22    23    1
    23    22    24   ar
    24    16     4   ar
    25    24    18   ar
    26    12     7    1
    27     3    25    1
    28     3    26    1
    29     8    27    1
    30     8    28    1
    31     9    29    1
    32     9    30    1
    33    11    31    1
    34    11    32    1
    35    12    33    1
    36    12    34    1
    37    13    35    1
    38    16    36    1
    39    17    37    1
    40    19    38    1
    41    20    39    1
    42    21    40    1
    43    24    41    1
