@<TRIPOS>MOLECULE
*****
 46 48 0 0 0
SMALL
GASTEIGER

@<TRIPOS>ATOM
      1 C          -2.2614    1.5820   -1.4981 C.3     1  UNL1       -0.0239
      2 C          -2.0714    0.7473   -0.2642 C.ar    1  UNL1        0.0222
      3 C          -3.1179   -0.0589    0.2120 C.ar    1  UNL1       -0.0070
      4 C          -4.4508   -0.2532   -0.3871 C.3     1  UNL1        0.0721
      5 C          -5.3950    0.8586   -0.1319 C.2     1  UNL1        0.3091
      6 O          -5.1096    1.8696    0.5490 O.2     1  UNL1       -0.2507
      7 O          -6.6622    0.7644   -0.6823 O.3     1  UNL1       -0.4804
      8 C          -2.6329   -0.6173    1.3666 C.ar    1  UNL1        0.0228
      9 C          -3.2653   -1.5060    2.2495 C.ar    1  UNL1       -0.0493
     10 C          -2.5492   -1.9209    3.3514 C.ar    1  UNL1       -0.0429
     11 C          -1.2643   -1.4778    3.5723 C.ar    1  UNL1        0.0299
     12 N          -0.7021   -0.6108    2.6736 N.ar    1  UNL1       -0.2373
     13 C          -1.3569   -0.1892    1.6038 C.ar    1  UNL1        0.1414
     14 N          -1.0400    0.6561    0.5690 N.ar    1  UNL1       -0.3247
     15 C           0.1907    1.4108    0.4948 C.3     1  UNL1        0.0504
     16 C           1.4156    0.7201    0.1949 C.ar    1  UNL1       -0.0160
     17 C           2.2820    0.4367    1.2814 C.ar    1  UNL1       -0.0545
     18 C           3.4774   -0.1982    1.1347 C.ar    1  UNL1       -0.0366
     19 C           3.8881   -0.5926   -0.1046 C.ar    1  UNL1        0.0884
     20 S           5.4263   -1.4156   -0.3340 S.O2    1  UNL1       -0.0059
     21 C           6.7059   -0.2423   -0.6260 C.3     1  UNL1        0.0596
     22 O           5.6854   -2.2566    0.8570 O.2     1  UNL1       -0.1696
     23 O           5.3002   -2.3274   -1.5371 O.2     1  UNL1       -0.1696
     24 C           3.0598   -0.3250   -1.1628 C.ar    1  UNL1       -0.0249
     25 C           1.8214    0.3283   -1.0383 C.ar    1  UNL1        0.0615
     26 C           1.0663    0.5081   -2.2730 C.3     1  UNL1        0.4178
     27 F           1.8505    0.0366   -3.3453 F       1  UNL1       -0.1659
     28 F           0.6777    1.7388   -2.6164 F       1  UNL1       -0.1659
     29 F           0.0389   -0.4555   -2.2265 F       1  UNL1       -0.1659
     30 H          -2.1661    0.9104   -2.3620 H       1  UNL1        0.0292
     31 H          -1.5816    2.4495   -1.4922 H       1  UNL1        0.0292
     32 H          -3.3044    2.0256   -1.4666 H       1  UNL1        0.0292
     33 H          -4.9151   -1.1624    0.0505 H       1  UNL1        0.0427
     34 H          -4.3568   -0.4273   -1.4930 H       1  UNL1        0.0427
     35 H          -7.4804    1.2285   -0.2730 H       1  UNL1        0.2951
     36 H          -4.2778   -1.8397    2.0527 H       1  UNL1        0.0625
     37 H          -3.0230   -2.6003    4.0329 H       1  UNL1        0.0633
     38 H          -0.7197   -1.8142    4.4413 H       1  UNL1        0.0830
     39 H           0.2612    1.9136    1.5098 H       1  UNL1        0.0542
     40 H           0.0342    2.3306   -0.1683 H       1  UNL1        0.0542
     41 H           1.9694    0.7431    2.2660 H       1  UNL1        0.0622
     42 H           4.1309   -0.4083    1.9786 H       1  UNL1        0.0637
     43 H           6.3577    0.6271   -1.2125 H       1  UNL1        0.0468
     44 H           7.0609    0.1419    0.3694 H       1  UNL1        0.0468
     45 H           7.5720   -0.6679   -1.1715 H       1  UNL1        0.0468
     46 H           3.4312   -0.6600   -2.1338 H       1  UNL1        0.0642
@<TRIPOS>BOND
     1     1     2    1
     2     2     3   ar
     3     3     4    1
     4     4     5    1
     5     5     6    2
     6     5     7    1
     7     3     8   ar
     8     8     9   ar
     9     9    10   ar
    10    10    11   ar
    11    11    12   ar
    12    12    13   ar
    13    13    14   ar
    14    14    15    1
    15    15    16    1
    16    16    17   ar
    17    17    18   ar
    18    18    19   ar
    19    19    20    1
    20    20    21    1
    21    20    22    2
    22    20    23    2
    23    19    24   ar
    24    24    25   ar
    25    25    26    1
    26    26    27    1
    27    26    28    1
    28    26    29    1
    29    14     2   ar
    30    25    16   ar
    31    13     8   ar
    32     1    30    1
    33     1    31    1
    34     1    32    1
    35     4    33    1
    36     4    34    1
    37     7    35    1
    38     9    36    1
    39    10    37    1
    40    11    38    1
    41    15    39    1
    42    15    40    1
    43    17    41    1
    44    18    42    1
    45    21    43    1
    46    21    44    1
    47    21    45    1
    48    24    46    1
