
     RDKit          3D

 30 31  0  0  0  0  0  0  0  0999 V2000
   -3.3917    1.8352    1.2651 O   0  0  0  0  0  0  0  0  0  0  0  0
   -2.2172    1.8733    0.8758 C   0  0  0  0  0  0  0  0  0  0  0  0
   -1.8158    2.9098    0.0451 O   0  0  0  0  0  0  0  0  0  0  0  0
   -1.2205    0.8169    1.2945 C   0  0  0  0  0  0  0  0  0  0  0  0
   -1.4386   -0.4017    0.4743 C   0  0  0  0  0  0  0  0  0  0  0  0
   -2.4521   -1.2454    0.9396 C   0  0  0  0  0  0  0  0  0  0  0  0
   -2.8194   -2.3138    0.1554 C   0  0  0  0  0  0  0  0  0  0  0  0
   -2.1806   -2.5187   -1.0599 C   0  0  0  0  0  0  0  0  0  0  0  0
   -1.1920   -1.6912   -1.5029 C   0  0  0  0  0  0  0  0  0  0  0  0
   -0.8087   -0.6012   -0.7077 C   0  0  0  0  0  0  0  0  0  0  0  0
    0.2756    0.1533   -1.2251 N   0  0  0  0  0  0  0  0  0  0  0  0
    1.5559    0.2806   -0.6350 C   0  0  0  0  0  0  0  0  0  0  0  0
    2.3490   -0.8523   -0.4215 C   0  0  0  0  0  0  0  0  0  0  0  0
    1.7066   -2.4366   -0.8863 Cl  0  0  0  0  0  0  0  0  0  0  0  0
    3.5932   -0.7271    0.1246 C   0  0  0  0  0  0  0  0  0  0  0  0
    4.1309    0.4808    0.4878 C   0  0  0  0  0  0  0  0  0  0  0  0
    3.3680    1.6050    0.2844 C   0  0  0  0  0  0  0  0  0  0  0  0
    2.0951    1.4774   -0.2747 C   0  0  0  0  0  0  0  0  0  0  0  0
    1.2745    3.0172   -0.5226 Cl  0  0  0  0  0  0  0  0  0  0  0  0
   -2.4927    3.6416   -0.2149 H   0  0  0  0  0  0  0  0  0  0  0  0
   -0.2337    1.2139    1.3239 H   0  0  0  0  0  0  0  0  0  0  0  0
   -1.5197    0.6040    2.3671 H   0  0  0  0  0  0  0  0  0  0  0  0
   -2.9286   -1.0588    1.8801 H   0  0  0  0  0  0  0  0  0  0  0  0
   -3.6067   -2.9823    0.4835 H   0  0  0  0  0  0  0  0  0  0  0  0
   -2.4728   -3.3640   -1.6931 H   0  0  0  0  0  0  0  0  0  0  0  0
   -0.7077   -1.8720   -2.4806 H   0  0  0  0  0  0  0  0  0  0  0  0
    0.0599    0.6535   -2.1378 H   0  0  0  0  0  0  0  0  0  0  0  0
    4.1805   -1.6371    0.2714 H   0  0  0  0  0  0  0  0  0  0  0  0
    5.1259    0.5753    0.9213 H   0  0  0  0  0  0  0  0  0  0  0  0
    3.7837    2.5647    0.5682 H   0  0  0  0  0  0  0  0  0  0  0  0
  1  2  2  0
  2  3  1  0
  2  4  1  0
  4  5  1  0
  5  6  2  0
  6  7  1  0
  7  8  2  0
  8  9  1  0
  9 10  2  0
 10 11  1  0
 11 12  1  0
 12 13  2  0
 13 14  1  0
 13 15  1  0
 15 16  2  0
 16 17  1  0
 17 18  2  0
 18 19  1  0
 10  5  1  0
 18 12  1  0
  3 20  1  0
  4 21  1  0
  4 22  1  0
  6 23  1  0
  7 24  1  0
  8 25  1  0
  9 26  1  0
 11 27  1  0
 15 28  1  0
 16 29  1  0
 17 30  1  0
M  END
$$$$
