@<TRIPOS>MOLECULE
*****
 30 31 0 0 0
SMALL
GASTEIGER

@<TRIPOS>ATOM
      1 O          -3.3917    1.8352    1.2651 O.2     1  UNL1       -0.2507
      2 C          -2.2172    1.8733    0.8758 C.2     1  UNL1        0.3091
      3 O          -1.8158    2.9098    0.0451 O.3     1  UNL1       -0.4804
      4 C          -1.2205    0.8169    1.2945 C.3     1  UNL1        0.0716
      5 C          -1.4386   -0.4017    0.4743 C.ar    1  UNL1       -0.0156
      6 C          -2.4521   -1.2454    0.9396 C.ar    1  UNL1       -0.0563
      7 C          -2.8194   -2.3138    0.1554 C.ar    1  UNL1       -0.0614
      8 C          -2.1806   -2.5187   -1.0599 C.ar    1  UNL1       -0.0600
      9 C          -1.1920   -1.6912   -1.5029 C.ar    1  UNL1       -0.0403
     10 C          -0.8087   -0.6012   -0.7077 C.ar    1  UNL1        0.0351
     11 N           0.2756    0.1533   -1.2251 N.pl3   1  UNL1       -0.3120
     12 C           1.5559    0.2806   -0.6350 C.ar    1  UNL1        0.0684
     13 C           2.3490   -0.8523   -0.4215 C.ar    1  UNL1        0.0635
     14 CL          1.7066   -2.4366   -0.8863 Cl      1  UNL1       -0.0816
     15 C           3.5932   -0.7271    0.1246 C.ar    1  UNL1       -0.0415
     16 C           4.1309    0.4808    0.4878 C.ar    1  UNL1       -0.0589
     17 C           3.3680    1.6050    0.2844 C.ar    1  UNL1       -0.0415
     18 C           2.0951    1.4774   -0.2747 C.ar    1  UNL1        0.0635
     19 CL          1.2745    3.0172   -0.5226 Cl      1  UNL1       -0.0816
     20 H          -2.4927    3.6416   -0.2149 H       1  UNL1        0.2951
     21 H          -0.2337    1.2139    1.3239 H       1  UNL1        0.0427
     22 H          -1.5197    0.6040    2.3671 H       1  UNL1        0.0427
     23 H          -2.9286   -1.0588    1.8801 H       1  UNL1        0.0621
     24 H          -3.6067   -2.9823    0.4835 H       1  UNL1        0.0618
     25 H          -2.4728   -3.3640   -1.6931 H       1  UNL1        0.0618
     26 H          -0.7077   -1.8720   -2.4806 H       1  UNL1        0.0636
     27 H           0.0599    0.6535   -2.1378 H       1  UNL1        0.1522
     28 H           4.1805   -1.6371    0.2714 H       1  UNL1        0.0633
     29 H           5.1259    0.5753    0.9213 H       1  UNL1        0.0618
     30 H           3.7837    2.5647    0.5682 H       1  UNL1        0.0633
@<TRIPOS>BOND
     1     1     2    2
     2     2     3    1
     3     2     4    1
     4     4     5    1
     5     5     6   ar
     6     6     7   ar
     7     7     8   ar
     8     8     9   ar
     9     9    10   ar
    10    10    11    1
    11    11    12    1
    12    12    13   ar
    13    13    14    1
    14    13    15   ar
    15    15    16   ar
    16    16    17   ar
    17    17    18   ar
    18    18    19    1
    19    10     5   ar
    20    18    12   ar
    21     3    20    1
    22     4    21    1
    23     4    22    1
    24     6    23    1
    25     7    24    1
    26     8    25    1
    27     9    26    1
    28    11    27    1
    29    15    28    1
    30    16    29    1
    31    17    30    1
