@<TRIPOS>MOLECULE
*****
 59 64 0 0 0
SMALL
GASTEIGER

@<TRIPOS>ATOM
      1 C           9.9739    2.4400   -0.3443 C.3     1  UNL1        0.0805
      2 O           9.1907    1.8408   -1.3562 O.3     1  UNL1       -0.4786
      3 C           7.9799    1.2678   -1.0036 C.ar    1  UNL1        0.2332
      4 C           7.1514    0.6611   -1.9265 C.ar    1  UNL1        0.0899
      5 N           5.9767    0.1045   -1.5889 N.ar    1  UNL1       -0.2435
      6 C           5.5579    0.1192   -0.3117 C.ar    1  UNL1        0.1439
      7 C           4.2982   -0.4653    0.1118 C.2     1  UNL1        0.2681
      8 O           3.9732   -0.4150    1.3213 O.2     1  UNL1       -0.2681
      9 N           3.4235   -1.0924   -0.8069 N.am    1  UNL1       -0.2802
     10 C           2.1716   -1.6714   -0.3771 C.ar    1  UNL1        0.0343
     11 C           2.0957   -2.9848    0.0207 C.ar    1  UNL1       -0.0370
     12 C           0.8791   -3.4734    0.4177 C.ar    1  UNL1       -0.0172
     13 C          -0.2914   -2.6767    0.4316 C.ar    1  UNL1        0.1345
     14 C          -0.1900   -1.3802    0.0342 C.ar    1  UNL1        0.0287
     15 C           1.0633   -0.8706   -0.3773 C.ar    1  UNL1       -0.0312
     16 C          -1.3403   -0.4612    0.0192 C.3     1  UNL1        0.1264
     17 C          -1.1172    0.7628    0.8320 C.3     1  UNL1        0.0155
     18 C          -0.9375    2.0239    0.0741 C.3     1  UNL1        0.0953
     19 O          -1.8222    2.0929   -1.0172 O.2     1  UNL1       -0.4658
     20 C          -1.8118    0.9873   -1.8741 C.2     1  UNL1        0.2763
     21 N          -2.0573    1.2336   -3.2682 N.pl3   1  UNL1       -0.3134
     22 N          -1.5901   -0.1554   -1.3758 N.2     1  UNL1       -0.2205
     23 C          -2.5867   -1.1691    0.4698 C.ar    1  UNL1        0.0304
     24 C          -3.7837   -0.4347    0.5029 C.ar    1  UNL1       -0.0445
     25 C          -4.9812   -0.9621    0.9026 C.ar    1  UNL1       -0.0144
     26 C          -6.1735   -0.1248    0.9050 C.ar    1  UNL1       -0.0121
     27 C          -7.1838   -0.3325    1.8244 C.ar    1  UNL1       -0.0357
     28 C          -8.3257    0.4503    1.8457 C.ar    1  UNL1        0.0312
     29 N          -8.4663    1.4436    0.9513 N.ar    1  UNL1       -0.2276
     30 C          -7.5031    1.6900    0.0266 C.ar    1  UNL1        0.2138
     31 F          -7.7063    2.7051   -0.8457 F       1  UNL1       -0.1839
     32 C          -6.3592    0.9043    0.0067 C.ar    1  UNL1        0.0004
     33 C          -4.9782   -2.2853    1.2865 C.ar    1  UNL1       -0.0150
     34 C          -3.8281   -3.0354    1.2675 C.ar    1  UNL1        0.1663
     35 F          -3.8070   -4.3487    1.6447 F       1  UNL1       -0.2016
     36 C          -2.6089   -2.4671    0.8512 C.ar    1  UNL1        0.1693
     37 O          -1.4707   -3.2711    0.8490 O.3     1  UNL1       -0.4524
     38 C           6.3816    0.7259    0.6254 C.ar    1  UNL1        0.0619
     39 N           7.5530    1.2774    0.2685 N.ar    1  UNL1       -0.2178
     40 H           9.8679    1.8661    0.6050 H       1  UNL1        0.0660
     41 H           9.5273    3.4442   -0.1272 H       1  UNL1        0.0660
     42 H          11.0439    2.5099   -0.6295 H       1  UNL1        0.0660
     43 H           7.5023    0.6570   -2.9510 H       1  UNL1        0.0884
     44 H           3.7191   -1.1200   -1.8074 H       1  UNL1        0.1552
     45 H           2.9731   -3.6241    0.0229 H       1  UNL1        0.0637
     46 H           0.7718   -4.5138    0.7422 H       1  UNL1        0.0655
     47 H           1.1047    0.1564   -0.6905 H       1  UNL1        0.0641
     48 H          -2.0373    0.9050    1.4663 H       1  UNL1        0.0328
     49 H          -0.3128    0.6133    1.6074 H       1  UNL1        0.0328
     50 H           0.0932    2.2002   -0.3210 H       1  UNL1        0.0698
     51 H          -1.2206    2.9123    0.7308 H       1  UNL1        0.0698
     52 H          -1.2846    1.0950   -3.9520 H       1  UNL1        0.1466
     53 H          -2.9998    1.5447   -3.5645 H       1  UNL1        0.1466
     54 H          -3.7549    0.6232    0.1908 H       1  UNL1        0.0628
     55 H          -7.1273   -1.1141    2.5660 H       1  UNL1        0.0639
     56 H          -9.1269    0.3056    2.5550 H       1  UNL1        0.0831
     57 H          -5.6078    1.1091   -0.7273 H       1  UNL1        0.0668
     58 H          -5.9156   -2.7184    1.6056 H       1  UNL1        0.0653
     59 H           6.0348    0.7343    1.6618 H       1  UNL1        0.0854
@<TRIPOS>BOND
     1     1     2    1
     2     2     3    1
     3     3     4   ar
     4     4     5   ar
     5     5     6   ar
     6     6     7    1
     7     7     8    2
     8     7     9   am
     9     9    10    1
    10    10    11   ar
    11    11    12   ar
    12    12    13   ar
    13    13    14   ar
    14    14    15   ar
    15    14    16    1
    16    16    17    1
    17    17    18    1
    18    18    19    1
    19    19    20    1
    20    20    21    1
    21    20    22    2
    22    16    23    1
    23    23    24   ar
    24    24    25   ar
    25    25    26    1
    26    26    27   ar
    27    27    28   ar
    28    28    29   ar
    29    29    30   ar
    30    30    31    1
    31    30    32   ar
    32    25    33   ar
    33    33    34   ar
    34    34    35    1
    35    34    36   ar
    36    36    37    1
    37     6    38   ar
    38    38    39   ar
    39    39     3   ar
    40    15    10   ar
    41    22    16    1
    42    36    23   ar
    43    37    13    1
    44    32    26   ar
    45     1    40    1
    46     1    41    1
    47     1    42    1
    48     4    43    1
    49     9    44    1
    50    11    45    1
    51    12    46    1
    52    15    47    1
    53    17    48    1
    54    17    49    1
    55    18    50    1
    56    18    51    1
    57    21    52    1
    58    21    53    1
    59    24    54    1
    60    27    55    1
    61    28    56    1
    62    32    57    1
    63    33    58    1
    64    38    59    1
