
     RDKit          3D

 59 64  0  0  0  0  0  0  0  0999 V2000
    9.9739    2.4400   -0.3443 C   0  0  0  0  0  0  0  0  0  0  0  0
    9.1907    1.8408   -1.3562 O   0  0  0  0  0  0  0  0  0  0  0  0
    7.9799    1.2678   -1.0036 C   0  0  0  0  0  0  0  0  0  0  0  0
    7.1514    0.6611   -1.9265 C   0  0  0  0  0  0  0  0  0  0  0  0
    5.9767    0.1045   -1.5889 N   0  0  0  0  0  0  0  0  0  0  0  0
    5.5579    0.1192   -0.3117 C   0  0  0  0  0  0  0  0  0  0  0  0
    4.2982   -0.4653    0.1118 C   0  0  0  0  0  0  0  0  0  0  0  0
    3.9732   -0.4150    1.3213 O   0  0  0  0  0  0  0  0  0  0  0  0
    3.4235   -1.0924   -0.8069 N   0  0  0  0  0  0  0  0  0  0  0  0
    2.1716   -1.6714   -0.3771 C   0  0  0  0  0  0  0  0  0  0  0  0
    2.0957   -2.9848    0.0207 C   0  0  0  0  0  0  0  0  0  0  0  0
    0.8791   -3.4734    0.4177 C   0  0  0  0  0  0  0  0  0  0  0  0
   -0.2914   -2.6767    0.4316 C   0  0  0  0  0  0  0  0  0  0  0  0
   -0.1900   -1.3802    0.0342 C   0  0  0  0  0  0  0  0  0  0  0  0
    1.0633   -0.8706   -0.3773 C   0  0  0  0  0  0  0  0  0  0  0  0
   -1.3403   -0.4612    0.0192 C   0  0  0  0  0  0  0  0  0  0  0  0
   -1.1172    0.7628    0.8320 C   0  0  0  0  0  0  0  0  0  0  0  0
   -0.9375    2.0239    0.0741 C   0  0  0  0  0  0  0  0  0  0  0  0
   -1.8222    2.0929   -1.0172 O   0  0  0  0  0  0  0  0  0  0  0  0
   -1.8118    0.9873   -1.8741 C   0  0  0  0  0  0  0  0  0  0  0  0
   -2.0573    1.2336   -3.2682 N   0  0  0  0  0  0  0  0  0  0  0  0
   -1.5901   -0.1554   -1.3758 N   0  0  0  0  0  0  0  0  0  0  0  0
   -2.5867   -1.1691    0.4698 C   0  0  0  0  0  0  0  0  0  0  0  0
   -3.7837   -0.4347    0.5029 C   0  0  0  0  0  0  0  0  0  0  0  0
   -4.9812   -0.9621    0.9026 C   0  0  0  0  0  0  0  0  0  0  0  0
   -6.1735   -0.1248    0.9050 C   0  0  0  0  0  0  0  0  0  0  0  0
   -7.1838   -0.3325    1.8244 C   0  0  0  0  0  0  0  0  0  0  0  0
   -8.3257    0.4503    1.8457 C   0  0  0  0  0  0  0  0  0  0  0  0
   -8.4663    1.4436    0.9513 N   0  0  0  0  0  0  0  0  0  0  0  0
   -7.5031    1.6900    0.0266 C   0  0  0  0  0  0  0  0  0  0  0  0
   -7.7063    2.7051   -0.8457 F   0  0  0  0  0  0  0  0  0  0  0  0
   -6.3592    0.9043    0.0067 C   0  0  0  0  0  0  0  0  0  0  0  0
   -4.9782   -2.2853    1.2865 C   0  0  0  0  0  0  0  0  0  0  0  0
   -3.8281   -3.0354    1.2675 C   0  0  0  0  0  0  0  0  0  0  0  0
   -3.8070   -4.3487    1.6447 F   0  0  0  0  0  0  0  0  0  0  0  0
   -2.6089   -2.4671    0.8512 C   0  0  0  0  0  0  0  0  0  0  0  0
   -1.4707   -3.2711    0.8490 O   0  0  0  0  0  0  0  0  0  0  0  0
    6.3816    0.7259    0.6254 C   0  0  0  0  0  0  0  0  0  0  0  0
    7.5530    1.2774    0.2685 N   0  0  0  0  0  0  0  0  0  0  0  0
    9.8679    1.8661    0.6050 H   0  0  0  0  0  0  0  0  0  0  0  0
    9.5273    3.4442   -0.1272 H   0  0  0  0  0  0  0  0  0  0  0  0
   11.0439    2.5099   -0.6295 H   0  0  0  0  0  0  0  0  0  0  0  0
    7.5023    0.6570   -2.9510 H   0  0  0  0  0  0  0  0  0  0  0  0
    3.7191   -1.1200   -1.8074 H   0  0  0  0  0  0  0  0  0  0  0  0
    2.9731   -3.6241    0.0229 H   0  0  0  0  0  0  0  0  0  0  0  0
    0.7718   -4.5138    0.7422 H   0  0  0  0  0  0  0  0  0  0  0  0
    1.1047    0.1564   -0.6905 H   0  0  0  0  0  0  0  0  0  0  0  0
   -2.0373    0.9050    1.4663 H   0  0  0  0  0  0  0  0  0  0  0  0
   -0.3128    0.6133    1.6074 H   0  0  0  0  0  0  0  0  0  0  0  0
    0.0932    2.2002   -0.3210 H   0  0  0  0  0  0  0  0  0  0  0  0
   -1.2206    2.9123    0.7308 H   0  0  0  0  0  0  0  0  0  0  0  0
   -1.2846    1.0950   -3.9520 H   0  0  0  0  0  0  0  0  0  0  0  0
   -2.9998    1.5447   -3.5645 H   0  0  0  0  0  0  0  0  0  0  0  0
   -3.7549    0.6232    0.1908 H   0  0  0  0  0  0  0  0  0  0  0  0
   -7.1273   -1.1141    2.5660 H   0  0  0  0  0  0  0  0  0  0  0  0
   -9.1269    0.3056    2.5550 H   0  0  0  0  0  0  0  0  0  0  0  0
   -5.6078    1.1091   -0.7273 H   0  0  0  0  0  0  0  0  0  0  0  0
   -5.9156   -2.7184    1.6056 H   0  0  0  0  0  0  0  0  0  0  0  0
    6.0348    0.7343    1.6618 H   0  0  0  0  0  0  0  0  0  0  0  0
  1  2  1  0
  2  3  1  0
  3  4  2  0
  4  5  1  0
  5  6  2  0
  6  7  1  0
  7  8  2  0
  7  9  1  0
  9 10  1  0
 10 11  2  0
 11 12  1  0
 12 13  2  0
 13 14  1  0
 14 15  2  0
 14 16  1  0
 16 17  1  0
 17 18  1  0
 18 19  1  0
 19 20  1  0
 20 21  1  0
 20 22  2  0
 16 23  1  0
 23 24  2  0
 24 25  1  0
 25 26  1  0
 26 27  2  0
 27 28  1  0
 28 29  2  0
 29 30  1  0
 30 31  1  0
 30 32  2  0
 25 33  2  0
 33 34  1  0
 34 35  1  0
 34 36  2  0
 36 37  1  0
  6 38  1  0
 38 39  2  0
 39  3  1  0
 15 10  1  0
 22 16  1  0
 36 23  1  0
 37 13  1  0
 32 26  1  0
  1 40  1  0
  1 41  1  0
  1 42  1  0
  4 43  1  0
  9 44  1  0
 11 45  1  0
 12 46  1  0
 15 47  1  0
 17 48  1  0
 17 49  1  0
 18 50  1  0
 18 51  1  0
 21 52  1  0
 21 53  1  0
 24 54  1  0
 27 55  1  0
 28 56  1  0
 32 57  1  0
 33 58  1  0
 38 59  1  0
M  END
$$$$
