@<TRIPOS>MOLECULE
*****
 45 47 0 0 0
SMALL
GASTEIGER

@<TRIPOS>ATOM
      1 CL         -7.5136    1.7031   -2.0701 Cl      1  UNL1       -0.0835
      2 C          -6.6908    0.7341   -0.8410 C.ar    1  UNL1        0.0413
      3 C          -7.1510    0.6732    0.4547 C.ar    1  UNL1       -0.0434
      4 C          -6.4882   -0.0807    1.3747 C.ar    1  UNL1       -0.0601
      5 C          -5.3791   -0.7433    0.9320 C.ar    1  UNL1       -0.0573
      6 C          -4.8691   -0.7150   -0.3779 C.ar    1  UNL1       -0.0322
      7 C          -3.6221   -1.5400   -0.5934 C.3     1  UNL1        0.0213
      8 N          -2.5102   -0.6593   -0.2280 N.3     1  UNL1       -0.3117
      9 C          -2.3752    0.4817   -1.0756 C.3     1  UNL1        0.0002
     10 C          -1.3443    1.4777   -0.6550 C.3     1  UNL1       -0.0151
     11 C           0.0347    0.9584   -0.5486 C.ar    1  UNL1       -0.0459
     12 C           0.2966    0.4497    0.7285 C.ar    1  UNL1       -0.0547
     13 C           1.5312   -0.0641    1.0584 C.ar    1  UNL1       -0.0168
     14 C           2.5804   -0.1040    0.1413 C.ar    1  UNL1        0.1187
     15 N           3.8463   -0.6275    0.5211 N.pl3   1  UNL1       -0.2001
     16 C           4.9642   -0.7429   -0.3344 C.2     1  UNL1        0.3218
     17 N           4.7442   -1.1505   -1.5068 N.2     1  UNL1       -0.0985
     18 C           6.2526   -0.3590    0.2659 C.ar    1  UNL1        0.1024
     19 C           6.6118   -0.5731    1.6192 C.ar    1  UNL1       -0.0397
     20 C           7.8526   -0.1290    1.9510 C.ar    1  UNL1       -0.0539
     21 C           8.7015    0.4778    1.0638 C.ar    1  UNL1       -0.0235
     22 S           7.7147    0.4719   -0.4752 S.2     1  UNL1       -0.0894
     23 C           2.2941    0.4012   -1.1073 C.ar    1  UNL1       -0.0168
     24 C           1.0672    0.9187   -1.4560 C.ar    1  UNL1       -0.0547
     25 C          -5.5770    0.0632   -1.2704 C.ar    1  UNL1       -0.0390
     26 H          -8.0392    1.2181    0.7669 H       1  UNL1        0.0632
     27 H          -6.8139   -0.1586    2.4031 H       1  UNL1        0.0618
     28 H          -4.8605   -1.3511    1.6968 H       1  UNL1        0.0621
     29 H          -3.6654   -2.4036    0.0946 H       1  UNL1        0.0473
     30 H          -3.5931   -1.8126   -1.6494 H       1  UNL1        0.0473
     31 H          -2.5177   -0.4364    0.7768 H       1  UNL1        0.1223
     32 H          -3.3584    1.0336   -1.0106 H       1  UNL1        0.0427
     33 H          -2.3023    0.2129   -2.1517 H       1  UNL1        0.0427
     34 H          -1.6815    1.9766    0.2736 H       1  UNL1        0.0325
     35 H          -1.3326    2.2667   -1.4613 H       1  UNL1        0.0325
     36 H          -0.4172    0.4112    1.5436 H       1  UNL1        0.0622
     37 H           1.7344   -0.4646    2.0614 H       1  UNL1        0.0658
     38 H           3.9520   -0.9468    1.5332 H       1  UNL1        0.2985
     39 H           5.4060   -1.3029   -2.2752 H       1  UNL1        0.3633
     40 H           5.9243   -1.0538    2.2923 H       1  UNL1        0.0631
     41 H           8.2555   -0.2327    2.9693 H       1  UNL1        0.0623
     42 H           9.6492    0.8743    1.1076 H       1  UNL1        0.0693
     43 H           3.0496    0.4130   -1.8726 H       1  UNL1        0.0658
     44 H           0.7864    1.3264   -2.4111 H       1  UNL1        0.0622
     45 H          -5.1471    0.0489   -2.2581 H       1  UNL1        0.0635
@<TRIPOS>BOND
     1     1     2    1
     2     2     3   ar
     3     3     4   ar
     4     4     5   ar
     5     5     6   ar
     6     6     7    1
     7     7     8    1
     8     8     9    1
     9     9    10    1
    10    10    11    1
    11    11    12   ar
    12    12    13   ar
    13    13    14   ar
    14    14    15    1
    15    15    16    1
    16    16    17    2
    17    16    18    1
    18    18    19   ar
    19    19    20   ar
    20    20    21   ar
    21    21    22   ar
    22    14    23   ar
    23    23    24   ar
    24     6    25   ar
    25    25     2   ar
    26    24    11   ar
    27    22    18   ar
    28     3    26    1
    29     4    27    1
    30     5    28    1
    31     7    29    1
    32     7    30    1
    33     8    31    1
    34     9    32    1
    35     9    33    1
    36    10    34    1
    37    10    35    1
    38    12    36    1
    39    13    37    1
    40    15    38    1
    41    17    39    1
    42    19    40    1
    43    20    41    1
    44    21    42    1
    45    23    43    1
    46    24    44    1
    47    25    45    1
