@<TRIPOS>MOLECULE
*****
 56 58 0 0 0
SMALL
GASTEIGER

@<TRIPOS>ATOM
      1 C          10.7382   -0.5952    0.0854 C.2     1  UNL1       -0.0938
      2 C           9.6210   -1.1182    0.5423 C.2     1  UNL1       -0.0066
      3 C           8.3511   -0.5506    0.1301 C.2     1  UNL1        0.2405
      4 O           8.3039    0.4305   -0.6539 O.2     1  UNL1       -0.2705
      5 N           7.0972   -1.0676    0.5856 N.am    1  UNL1       -0.2820
      6 C           5.8584   -0.5003    0.1716 C.ar    1  UNL1        0.0338
      7 C           5.1919   -0.9403   -0.9526 C.ar    1  UNL1       -0.0386
      8 C           3.9877   -0.3493   -1.3096 C.ar    1  UNL1       -0.0336
      9 C           3.4352    0.6772   -0.5612 C.ar    1  UNL1        0.1056
     10 S           1.9404    1.3869   -1.0413 S.O2    1  UNL1        0.0609
     11 O           1.8671    1.3142   -2.5573 O.2     1  UNL1       -0.1528
     12 O           1.9403    2.8495   -0.6671 O.2     1  UNL1       -0.1528
     13 N           0.5461    0.6631   -0.4250 N.3     1  UNL1       -0.1736
     14 C           0.3963    0.6646    0.9932 C.3     1  UNL1        0.0364
     15 C          -1.1174    0.6554    1.2591 C.3     1  UNL1        0.0323
     16 N          -1.8262    0.0985    0.1542 N.am    1  UNL1       -0.2649
     17 C          -3.2066    0.4833   -0.0411 C.2     1  UNL1        0.4033
     18 O          -3.6940    1.2772    0.7667 O.2     1  UNL1       -0.2262
     19 O          -3.9591    0.0161   -1.0501 O.3     1  UNL1       -0.4455
     20 C          -5.2250    0.1570   -1.5118 C.3     1  UNL1        0.1194
     21 C          -6.3525   -0.2075   -0.6459 C.ar    1  UNL1       -0.0073
     22 C          -6.8072   -1.5455   -0.7109 C.ar    1  UNL1       -0.0551
     23 C          -7.8145   -2.0044    0.0900 C.ar    1  UNL1       -0.0614
     24 C          -8.4192   -1.1450    0.9985 C.ar    1  UNL1       -0.0615
     25 C          -7.9762    0.1488    1.0566 C.ar    1  UNL1       -0.0585
     26 C          -6.9426    0.6144    0.2315 C.ar    1  UNL1       -0.0441
     27 C          -6.6231    2.0424    0.3699 C.3     1  UNL1       -0.0393
     28 C          -1.2671   -0.8314   -0.7969 C.3     1  UNL1        0.0323
     29 C           0.2387   -0.6316   -0.9408 C.3     1  UNL1        0.0364
     30 C           4.1138    1.1010    0.5543 C.ar    1  UNL1       -0.0336
     31 C           5.3217    0.5252    0.9332 C.ar    1  UNL1       -0.0386
     32 H          10.7000    0.2354   -0.5796 H       1  UNL1        0.0536
     33 H          11.7094   -0.9805    0.3614 H       1  UNL1        0.0536
     34 H           9.6769   -1.9545    1.2109 H       1  UNL1        0.0663
     35 H           7.1060   -1.8769    1.2339 H       1  UNL1        0.1551
     36 H           5.6064   -1.7356   -1.5443 H       1  UNL1        0.0637
     37 H           3.4417   -0.6785   -2.1928 H       1  UNL1        0.0638
     38 H           0.9079    1.4605    1.5313 H       1  UNL1        0.0459
     39 H           0.7550   -0.3066    1.4428 H       1  UNL1        0.0459
     40 H          -1.3247    0.1572    2.2305 H       1  UNL1        0.0479
     41 H          -1.3908    1.7323    1.3986 H       1  UNL1        0.0479
     42 H          -5.3342   -0.4353   -2.5007 H       1  UNL1        0.0749
     43 H          -5.4615    1.2020   -1.9033 H       1  UNL1        0.0749
     44 H          -6.3312   -2.2031   -1.4194 H       1  UNL1        0.0621
     45 H          -8.1832   -3.0268    0.0611 H       1  UNL1        0.0618
     46 H          -9.2163   -1.5253    1.6266 H       1  UNL1        0.0618
     47 H          -8.4283    0.8328    1.7510 H       1  UNL1        0.0620
     48 H          -5.9055    2.3520   -0.3930 H       1  UNL1        0.0278
     49 H          -6.1735    2.2814    1.3580 H       1  UNL1        0.0278
     50 H          -7.5338    2.6872    0.2585 H       1  UNL1        0.0278
     51 H          -1.7053   -0.6222   -1.7967 H       1  UNL1        0.0479
     52 H          -1.5145   -1.8763   -0.5476 H       1  UNL1        0.0479
     53 H           0.7617   -1.4566   -0.3810 H       1  UNL1        0.0459
     54 H           0.5441   -0.6586   -2.0063 H       1  UNL1        0.0459
     55 H           3.7439    1.8949    1.1839 H       1  UNL1        0.0638
     56 H           5.8315    0.8825    1.8175 H       1  UNL1        0.0637
@<TRIPOS>BOND
     1     1     2    2
     2     2     3    1
     3     3     4    2
     4     3     5   am
     5     5     6    1
     6     6     7   ar
     7     7     8   ar
     8     8     9   ar
     9     9    10    1
    10    10    11    2
    11    10    12    2
    12    10    13    1
    13    13    14    1
    14    14    15    1
    15    15    16    1
    16    16    17   am
    17    17    18    2
    18    17    19    1
    19    19    20    1
    20    20    21    1
    21    21    22   ar
    22    22    23   ar
    23    23    24   ar
    24    24    25   ar
    25    25    26   ar
    26    26    27    1
    27    16    28    1
    28    28    29    1
    29     9    30   ar
    30    30    31   ar
    31    31     6   ar
    32    29    13    1
    33    26    21   ar
    34     1    32    1
    35     1    33    1
    36     2    34    1
    37     5    35    1
    38     7    36    1
    39     8    37    1
    40    14    38    1
    41    14    39    1
    42    15    40    1
    43    15    41    1
    44    20    42    1
    45    20    43    1
    46    22    44    1
    47    23    45    1
    48    24    46    1
    49    25    47    1
    50    27    48    1
    51    27    49    1
    52    27    50    1
    53    28    51    1
    54    28    52    1
    55    29    53    1
    56    29    54    1
    57    30    55    1
    58    31    56    1
