@<TRIPOS>MOLECULE
*****
 61 66 0 0 0
SMALL
GASTEIGER

@<TRIPOS>ATOM
      1 C           7.8061    1.7184   -0.4183 C.3     1  UNL1       -0.0375
      2 C           7.5729    0.4039    0.2755 C.ar    1  UNL1       -0.0186
      3 C           8.6574   -0.3189    0.7619 C.ar    1  UNL1       -0.0368
      4 C           8.4740   -1.5228    1.3999 C.ar    1  UNL1        0.0593
      5 CL          9.8401   -2.4463    2.0197 Cl      1  UNL1       -0.0820
      6 C           7.1984   -2.0226    1.5610 C.ar    1  UNL1        0.0467
      7 N           6.1742   -1.2900    1.0745 N.ar    1  UNL1       -0.2486
      8 C           6.3303   -0.1289    0.4574 C.ar    1  UNL1        0.1286
      9 C           5.1653    0.6292   -0.0552 C.2     1  UNL1        0.2668
     10 O           5.3527    1.7142   -0.6284 O.2     1  UNL1       -0.2682
     11 N           3.8601    0.1386    0.0984 N.am    1  UNL1       -0.2802
     12 C           2.6473    0.7612   -0.3448 C.ar    1  UNL1        0.0343
     13 C           2.5694    1.9530   -1.0001 C.ar    1  UNL1       -0.0370
     14 C           1.3891    2.4779   -1.3857 C.ar    1  UNL1       -0.0172
     15 C           0.1993    1.7809   -1.1075 C.ar    1  UNL1        0.1346
     16 C           0.2235    0.5837   -0.4576 C.ar    1  UNL1        0.0285
     17 C           1.4588    0.0970   -0.0854 C.ar    1  UNL1       -0.0312
     18 C          -1.0050   -0.1922   -0.1898 C.3     1  UNL1        0.1217
     19 C          -1.0142   -1.3871   -1.1110 C.3     1  UNL1       -0.0096
     20 C          -0.2496   -2.5870   -0.7392 C.3     1  UNL1        0.0037
     21 S          -0.5116   -3.0118    0.9897 S.3     1  UNL1       -0.0910
     22 C          -1.0413   -1.5417    1.8449 C.2     1  UNL1        0.1478
     23 N          -1.2869   -1.6139    3.2683 N.pl3   1  UNL1       -0.3380
     24 N          -1.1891   -0.4763    1.1908 N.2     1  UNL1       -0.2472
     25 C          -2.2120    0.5920   -0.6386 C.ar    1  UNL1        0.0332
     26 C          -3.4769    0.0487   -0.4249 C.ar    1  UNL1       -0.0265
     27 C          -4.6200    0.6775   -0.8393 C.ar    1  UNL1        0.0705
     28 C          -5.9449    0.1264   -0.6252 C.2     1  UNL1       -0.0215
     29 C          -6.1676   -1.0253   -0.0147 C.2     1  UNL1       -0.0534
     30 C          -7.6162   -1.4188    0.1059 C.3     1  UNL1        0.0665
     31 O          -8.4003   -0.4051    0.5919 O.3     1  UNL1       -0.3754
     32 C          -8.1446    0.8301    0.0537 C.3     1  UNL1        0.0521
     33 C          -7.1790    0.8362   -1.0891 C.3     1  UNL1       -0.0024
     34 N          -4.5468    1.8661   -1.4795 N.ar    1  UNL1       -0.2164
     35 C          -3.3573    2.4132   -1.6992 C.ar    1  UNL1        0.2566
     36 F          -3.2578    3.5901   -2.3313 F       1  UNL1       -0.1799
     37 C          -2.1677    1.7858   -1.2816 C.ar    1  UNL1        0.1883
     38 O          -0.9602    2.4032   -1.5303 O.3     1  UNL1       -0.4508
     39 H           7.3751    2.5254    0.1821 H       1  UNL1        0.0278
     40 H           7.5174    1.6933   -1.4758 H       1  UNL1        0.0278
     41 H           8.9092    1.8990   -0.4076 H       1  UNL1        0.0278
     42 H           9.6631    0.0571    0.6447 H       1  UNL1        0.0636
     43 H           7.0020   -2.9768    2.0623 H       1  UNL1        0.0844
     44 H           3.7820   -0.8009    0.6018 H       1  UNL1        0.1552
     45 H           3.4657    2.4954   -1.2197 H       1  UNL1        0.0637
     46 H           1.3490    3.4428   -1.9138 H       1  UNL1        0.0655
     47 H           1.4761   -0.8451    0.4557 H       1  UNL1        0.0641
     48 H          -2.0701   -1.7117   -1.3365 H       1  UNL1        0.0303
     49 H          -0.5749   -0.9970   -2.0827 H       1  UNL1        0.0303
     50 H           0.8515   -2.5458   -0.9265 H       1  UNL1        0.0381
     51 H          -0.6543   -3.4358   -1.3958 H       1  UNL1        0.0381
     52 H          -0.7906   -1.0401    3.9633 H       1  UNL1        0.1442
     53 H          -2.0040   -2.2861    3.5761 H       1  UNL1        0.1442
     54 H          -3.5154   -0.9023    0.0886 H       1  UNL1        0.0644
     55 H          -5.3738   -1.6223    0.3600 H       1  UNL1        0.0598
     56 H          -7.9452   -1.6508   -0.9437 H       1  UNL1        0.0604
     57 H          -7.7076   -2.3319    0.7027 H       1  UNL1        0.0604
     58 H          -9.1144    1.2511   -0.3010 H       1  UNL1        0.0563
     59 H          -7.7109    1.5028    0.8482 H       1  UNL1        0.0563
     60 H          -7.5859    0.3727   -2.0091 H       1  UNL1        0.0336
     61 H          -6.9142    1.8686   -1.3316 H       1  UNL1        0.0336
@<TRIPOS>BOND
     1     1     2    1
     2     2     3   ar
     3     3     4   ar
     4     4     5    1
     5     4     6   ar
     6     6     7   ar
     7     7     8   ar
     8     8     9    1
     9     9    10    2
    10     9    11   am
    11    11    12    1
    12    12    13   ar
    13    13    14   ar
    14    14    15   ar
    15    15    16   ar
    16    16    17   ar
    17    16    18    1
    18    18    19    1
    19    19    20    1
    20    20    21    1
    21    21    22    1
    22    22    23    1
    23    22    24    2
    24    18    25    1
    25    25    26   ar
    26    26    27   ar
    27    27    28    1
    28    28    29    2
    29    29    30    1
    30    30    31    1
    31    31    32    1
    32    32    33    1
    33    27    34   ar
    34    34    35   ar
    35    35    36    1
    36    35    37   ar
    37    37    38    1
    38     8     2   ar
    39    17    12   ar
    40    24    18    1
    41    37    25   ar
    42    38    15    1
    43    33    28    1
    44     1    39    1
    45     1    40    1
    46     1    41    1
    47     3    42    1
    48     6    43    1
    49    11    44    1
    50    13    45    1
    51    14    46    1
    52    17    47    1
    53    19    48    1
    54    19    49    1
    55    20    50    1
    56    20    51    1
    57    23    52    1
    58    23    53    1
    59    26    54    1
    60    29    55    1
    61    30    56    1
    62    30    57    1
    63    32    58    1
    64    32    59    1
    65    33    60    1
    66    33    61    1
