
     RDKit          3D

 61 66  0  0  0  0  0  0  0  0999 V2000
    7.8061    1.7184   -0.4183 C   0  0  0  0  0  0  0  0  0  0  0  0
    7.5729    0.4039    0.2755 C   0  0  0  0  0  0  0  0  0  0  0  0
    8.6574   -0.3189    0.7619 C   0  0  0  0  0  0  0  0  0  0  0  0
    8.4740   -1.5228    1.3999 C   0  0  0  0  0  0  0  0  0  0  0  0
    9.8401   -2.4463    2.0197 Cl  0  0  0  0  0  0  0  0  0  0  0  0
    7.1984   -2.0226    1.5610 C   0  0  0  0  0  0  0  0  0  0  0  0
    6.1742   -1.2900    1.0745 N   0  0  0  0  0  0  0  0  0  0  0  0
    6.3303   -0.1289    0.4574 C   0  0  0  0  0  0  0  0  0  0  0  0
    5.1653    0.6292   -0.0552 C   0  0  0  0  0  0  0  0  0  0  0  0
    5.3527    1.7142   -0.6284 O   0  0  0  0  0  0  0  0  0  0  0  0
    3.8601    0.1386    0.0984 N   0  0  0  0  0  0  0  0  0  0  0  0
    2.6473    0.7612   -0.3448 C   0  0  0  0  0  0  0  0  0  0  0  0
    2.5694    1.9530   -1.0001 C   0  0  0  0  0  0  0  0  0  0  0  0
    1.3891    2.4779   -1.3857 C   0  0  0  0  0  0  0  0  0  0  0  0
    0.1993    1.7809   -1.1075 C   0  0  0  0  0  0  0  0  0  0  0  0
    0.2235    0.5837   -0.4576 C   0  0  0  0  0  0  0  0  0  0  0  0
    1.4588    0.0970   -0.0854 C   0  0  0  0  0  0  0  0  0  0  0  0
   -1.0050   -0.1922   -0.1898 C   0  0  0  0  0  0  0  0  0  0  0  0
   -1.0142   -1.3871   -1.1110 C   0  0  0  0  0  0  0  0  0  0  0  0
   -0.2496   -2.5870   -0.7392 C   0  0  0  0  0  0  0  0  0  0  0  0
   -0.5116   -3.0118    0.9897 S   0  0  0  0  0  0  0  0  0  0  0  0
   -1.0413   -1.5417    1.8449 C   0  0  0  0  0  0  0  0  0  0  0  0
   -1.2869   -1.6139    3.2683 N   0  0  0  0  0  0  0  0  0  0  0  0
   -1.1891   -0.4763    1.1908 N   0  0  0  0  0  0  0  0  0  0  0  0
   -2.2120    0.5920   -0.6386 C   0  0  0  0  0  0  0  0  0  0  0  0
   -3.4769    0.0487   -0.4249 C   0  0  0  0  0  0  0  0  0  0  0  0
   -4.6200    0.6775   -0.8393 C   0  0  0  0  0  0  0  0  0  0  0  0
   -5.9449    0.1264   -0.6252 C   0  0  0  0  0  0  0  0  0  0  0  0
   -6.1676   -1.0253   -0.0147 C   0  0  0  0  0  0  0  0  0  0  0  0
   -7.6162   -1.4188    0.1059 C   0  0  0  0  0  0  0  0  0  0  0  0
   -8.4003   -0.4051    0.5919 O   0  0  0  0  0  0  0  0  0  0  0  0
   -8.1446    0.8301    0.0537 C   0  0  0  0  0  0  0  0  0  0  0  0
   -7.1790    0.8362   -1.0891 C   0  0  0  0  0  0  0  0  0  0  0  0
   -4.5468    1.8661   -1.4795 N   0  0  0  0  0  0  0  0  0  0  0  0
   -3.3573    2.4132   -1.6992 C   0  0  0  0  0  0  0  0  0  0  0  0
   -3.2578    3.5901   -2.3313 F   0  0  0  0  0  0  0  0  0  0  0  0
   -2.1677    1.7858   -1.2816 C   0  0  0  0  0  0  0  0  0  0  0  0
   -0.9602    2.4032   -1.5303 O   0  0  0  0  0  0  0  0  0  0  0  0
    7.3751    2.5254    0.1821 H   0  0  0  0  0  0  0  0  0  0  0  0
    7.5174    1.6933   -1.4758 H   0  0  0  0  0  0  0  0  0  0  0  0
    8.9092    1.8990   -0.4076 H   0  0  0  0  0  0  0  0  0  0  0  0
    9.6631    0.0571    0.6447 H   0  0  0  0  0  0  0  0  0  0  0  0
    7.0020   -2.9768    2.0623 H   0  0  0  0  0  0  0  0  0  0  0  0
    3.7820   -0.8009    0.6018 H   0  0  0  0  0  0  0  0  0  0  0  0
    3.4657    2.4954   -1.2197 H   0  0  0  0  0  0  0  0  0  0  0  0
    1.3490    3.4428   -1.9138 H   0  0  0  0  0  0  0  0  0  0  0  0
    1.4761   -0.8451    0.4557 H   0  0  0  0  0  0  0  0  0  0  0  0
   -2.0701   -1.7117   -1.3365 H   0  0  0  0  0  0  0  0  0  0  0  0
   -0.5749   -0.9970   -2.0827 H   0  0  0  0  0  0  0  0  0  0  0  0
    0.8515   -2.5458   -0.9265 H   0  0  0  0  0  0  0  0  0  0  0  0
   -0.6543   -3.4358   -1.3958 H   0  0  0  0  0  0  0  0  0  0  0  0
   -0.7906   -1.0401    3.9633 H   0  0  0  0  0  0  0  0  0  0  0  0
   -2.0040   -2.2861    3.5761 H   0  0  0  0  0  0  0  0  0  0  0  0
   -3.5154   -0.9023    0.0886 H   0  0  0  0  0  0  0  0  0  0  0  0
   -5.3738   -1.6223    0.3600 H   0  0  0  0  0  0  0  0  0  0  0  0
   -7.9452   -1.6508   -0.9437 H   0  0  0  0  0  0  0  0  0  0  0  0
   -7.7076   -2.3319    0.7027 H   0  0  0  0  0  0  0  0  0  0  0  0
   -9.1144    1.2511   -0.3010 H   0  0  0  0  0  0  0  0  0  0  0  0
   -7.7109    1.5028    0.8482 H   0  0  0  0  0  0  0  0  0  0  0  0
   -7.5859    0.3727   -2.0091 H   0  0  0  0  0  0  0  0  0  0  0  0
   -6.9142    1.8686   -1.3316 H   0  0  0  0  0  0  0  0  0  0  0  0
  1  2  1  0
  2  3  2  0
  3  4  1  0
  4  5  1  0
  4  6  2  0
  6  7  1  0
  7  8  2  0
  8  9  1  0
  9 10  2  0
  9 11  1  0
 11 12  1  0
 12 13  2  0
 13 14  1  0
 14 15  2  0
 15 16  1  0
 16 17  2  0
 16 18  1  0
 18 19  1  0
 19 20  1  0
 20 21  1  0
 21 22  1  0
 22 23  1  0
 22 24  2  0
 18 25  1  0
 25 26  2  0
 26 27  1  0
 27 28  1  0
 28 29  2  0
 29 30  1  0
 30 31  1  0
 31 32  1  0
 32 33  1  0
 27 34  2  0
 34 35  1  0
 35 36  1  0
 35 37  2  0
 37 38  1  0
  8  2  1  0
 17 12  1  0
 24 18  1  0
 37 25  1  0
 38 15  1  0
 33 28  1  0
  1 39  1  0
  1 40  1  0
  1 41  1  0
  3 42  1  0
  6 43  1  0
 11 44  1  0
 13 45  1  0
 14 46  1  0
 17 47  1  0
 19 48  1  0
 19 49  1  0
 20 50  1  0
 20 51  1  0
 23 52  1  0
 23 53  1  0
 26 54  1  0
 29 55  1  0
 30 56  1  0
 30 57  1  0
 32 58  1  0
 32 59  1  0
 33 60  1  0
 33 61  1  0
M  END
$$$$
