@<TRIPOS>MOLECULE
*****
 53 56 0 0 0
SMALL
GASTEIGER

@<TRIPOS>ATOM
      1 C          -4.0244    2.5770   -0.8878 C.3     1  UNL1       -0.0650
      2 C          -3.9273    1.1075   -0.4051 C.3     1  UNL1       -0.0519
      3 C          -3.2132    1.0734    0.9274 C.3     1  UNL1       -0.0269
      4 C          -1.8475    1.5886    0.8727 C.ar    1  UNL1       -0.0264
      5 C          -1.5304    2.9279    1.1672 C.ar    1  UNL1        0.0269
      6 C          -0.2837    3.4725    1.0786 C.ar    1  UNL1        0.3375
      7 O          -0.1079    4.6839    1.3648 O.2     1  UNL1       -0.2452
      8 O           0.7211    2.7569    0.7031 O.2     1  UNL1       -0.4215
      9 C           0.5157    1.4789    0.4059 C.ar    1  UNL1        0.1520
     10 C          -0.7358    0.8566    0.4753 C.ar    1  UNL1        0.0636
     11 C          -0.8757   -0.4793    0.1601 C.ar    1  UNL1        0.1433
     12 C           0.2668   -1.1465   -0.2237 C.ar    1  UNL1        0.0593
     13 C           0.2212   -2.5660   -0.5759 C.2     1  UNL1       -0.0478
     14 C          -0.9882   -3.0784   -0.4794 C.2     1  UNL1       -0.0408
     15 C          -2.2608   -2.4319   -0.0765 C.3     1  UNL1        0.1235
     16 C          -2.7811   -3.1929    1.1324 C.3     1  UNL1       -0.0215
     17 C          -3.2592   -2.6317   -1.2049 C.3     1  UNL1       -0.0215
     18 O          -2.0958   -1.0757    0.2387 O.3     1  UNL1       -0.4808
     19 C           1.5328   -0.5472   -0.3054 C.ar    1  UNL1        0.1407
     20 C           1.6509    0.7931    0.0185 C.ar    1  UNL1        0.0665
     21 C           2.9813    1.4461   -0.0629 C.3     1  UNL1        0.0930
     22 O           2.9730    2.6305    0.6716 O.3     1  UNL1       -0.3865
     23 C           4.0136    0.4842    0.4483 C.3     1  UNL1        0.0233
     24 C           5.3779    1.0987    0.1195 C.3     1  UNL1       -0.0564
     25 C           3.9475   -0.8244   -0.2608 C.3     1  UNL1        0.1027
     26 C           4.5292   -1.8930    0.6724 C.3     1  UNL1       -0.0275
     27 O           2.6645   -1.2121   -0.6884 O.3     1  UNL1       -0.4875
     28 H          -4.3645    3.1758   -0.0242 H       1  UNL1        0.0230
     29 H          -4.6860    2.6230   -1.7703 H       1  UNL1        0.0230
     30 H          -3.0153    2.9534   -1.1609 H       1  UNL1        0.0230
     31 H          -3.3837    0.6417   -1.2457 H       1  UNL1        0.0266
     32 H          -4.9786    0.7795   -0.2965 H       1  UNL1        0.0266
     33 H          -3.4136    0.2041    1.5564 H       1  UNL1        0.0313
     34 H          -3.7766    1.8703    1.5181 H       1  UNL1        0.0313
     35 H          -2.3423    3.5930    1.4932 H       1  UNL1        0.0692
     36 H           1.0482   -3.1800   -0.8881 H       1  UNL1        0.0624
     37 H          -1.1713   -4.1265   -0.7117 H       1  UNL1        0.0611
     38 H          -2.0110   -3.1073    1.9266 H       1  UNL1        0.0271
     39 H          -2.8170   -4.2660    0.8172 H       1  UNL1        0.0271
     40 H          -3.7727   -2.8215    1.4469 H       1  UNL1        0.0271
     41 H          -2.8548   -3.3539   -1.9745 H       1  UNL1        0.0271
     42 H          -3.4695   -1.7007   -1.7545 H       1  UNL1        0.0271
     43 H          -4.1865   -3.1109   -0.8339 H       1  UNL1        0.0271
     44 H           3.2070    1.6544   -1.1417 H       1  UNL1        0.0650
     45 H           3.0312    3.3916    0.0414 H       1  UNL1        0.2102
     46 H           3.8821    0.3772    1.5351 H       1  UNL1        0.0362
     47 H           5.3642    1.2019   -1.0030 H       1  UNL1        0.0234
     48 H           6.1735    0.4072    0.4239 H       1  UNL1        0.0234
     49 H           5.4255    2.1075    0.5336 H       1  UNL1        0.0234
     50 H           4.5821   -0.7927   -1.1710 H       1  UNL1        0.0734
     51 H           4.6184   -1.4859    1.7070 H       1  UNL1        0.0265
     52 H           3.8889   -2.8018    0.6728 H       1  UNL1        0.0265
     53 H           5.5579   -2.1303    0.3433 H       1  UNL1        0.0265
@<TRIPOS>BOND
     1     1     2    1
     2     2     3    1
     3     3     4    1
     4     4     5   ar
     5     5     6   ar
     6     6     7    2
     7     6     8   ar
     8     8     9   ar
     9     9    10   ar
    10    10    11   ar
    11    11    12   ar
    12    12    13    1
    13    13    14    2
    14    14    15    1
    15    15    16    1
    16    15    17    1
    17    15    18    1
    18    12    19   ar
    19    19    20   ar
    20    20    21    1
    21    21    22    1
    22    21    23    1
    23    23    24    1
    24    23    25    1
    25    25    26    1
    26    25    27    1
    27    10     4   ar
    28    18    11    1
    29    27    19    1
    30    20     9   ar
    31     1    28    1
    32     1    29    1
    33     1    30    1
    34     2    31    1
    35     2    32    1
    36     3    33    1
    37     3    34    1
    38     5    35    1
    39    13    36    1
    40    14    37    1
    41    16    38    1
    42    16    39    1
    43    16    40    1
    44    17    41    1
    45    17    42    1
    46    17    43    1
    47    21    44    1
    48    22    45    1
    49    23    46    1
    50    24    47    1
    51    24    48    1
    52    24    49    1
    53    25    50    1
    54    26    51    1
    55    26    52    1
    56    26    53    1
