
     RDKit          3D

 60 64  0  0  0  0  0  0  0  0999 V2000
    8.4023    0.4493    2.9094 C   0  0  0  0  0  0  0  0  0  0  0  0
    7.6553   -0.6501    2.4775 O   0  0  0  0  0  0  0  0  0  0  0  0
    6.8385   -0.5530    1.3686 C   0  0  0  0  0  0  0  0  0  0  0  0
    6.0815   -1.5975    0.8943 C   0  0  0  0  0  0  0  0  0  0  0  0
    5.2585   -1.4907   -0.2271 C   0  0  0  0  0  0  0  0  0  0  0  0
    5.1892   -0.2913   -0.9017 C   0  0  0  0  0  0  0  0  0  0  0  0
    4.3198   -0.1604   -2.0966 C   0  0  0  0  0  0  0  0  0  0  0  0
    2.9700    0.2410   -1.7441 N   0  0  0  0  0  0  0  0  0  0  0  0
    2.5854    1.5414   -1.6493 C   0  0  0  0  0  0  0  0  0  0  0  0
    1.2529    1.5706   -1.2943 C   0  0  0  0  0  0  0  0  0  0  0  0
    0.8125    0.2836   -1.1696 C   0  0  0  0  0  0  0  0  0  0  0  0
   -0.4308   -0.2399   -0.8359 C   0  0  0  0  0  0  0  0  0  0  0  0
   -1.4890    0.6439   -0.5186 N   0  0  0  0  0  0  0  0  0  0  0  0
   -2.8201    0.2384   -0.2894 C   0  0  0  0  0  0  0  0  0  0  0  0
   -3.3957    0.3847    0.9861 C   0  0  0  0  0  0  0  0  0  0  0  0
   -4.6960    0.0255    1.2377 C   0  0  0  0  0  0  0  0  0  0  0  0
   -5.2969    0.1726    2.5589 C   0  0  0  0  0  0  0  0  0  0  0  0
   -6.0330   -0.8357    3.0544 N   0  0  0  0  0  0  0  0  0  0  0  0
   -6.6159   -0.7697    4.2686 C   0  0  0  0  0  0  0  0  0  0  0  0
   -6.4938    0.3381    5.0814 C   0  0  0  0  0  0  0  0  0  0  0  0
   -5.7397    1.3966    4.5989 C   0  0  0  0  0  0  0  0  0  0  0  0
   -5.1595    1.2898    3.3506 C   0  0  0  0  0  0  0  0  0  0  0  0
   -4.4286    2.3307    2.8982 F   0  0  0  0  0  0  0  0  0  0  0  0
   -5.3972   -0.4740    0.2053 N   0  0  0  0  0  0  0  0  0  0  0  0
   -4.8846   -0.6275   -1.0234 C   0  0  0  0  0  0  0  0  0  0  0  0
   -3.5585   -0.2730   -1.3270 C   0  0  0  0  0  0  0  0  0  0  0  0
   -3.0923   -0.4374   -2.7225 C   0  0  0  0  0  0  0  0  0  0  0  0
   -3.4111    0.8205   -3.5490 C   0  0  0  0  0  0  0  0  0  0  0  0
   -3.8677   -1.5738   -3.4083 C   0  0  0  0  0  0  0  0  0  0  0  0
   -0.5200   -1.5754   -0.8058 N   0  0  0  0  0  0  0  0  0  0  0  0
    0.5339   -2.3756   -1.0824 C   0  0  0  0  0  0  0  0  0  0  0  0
    1.7319   -1.8461   -1.4036 N   0  0  0  0  0  0  0  0  0  0  0  0
    1.8967   -0.5078   -1.4541 C   0  0  0  0  0  0  0  0  0  0  0  0
    5.9495    0.7580   -0.4253 C   0  0  0  0  0  0  0  0  0  0  0  0
    6.7542    0.6428    0.6761 C   0  0  0  0  0  0  0  0  0  0  0  0
    9.2212    0.6636    2.1942 H   0  0  0  0  0  0  0  0  0  0  0  0
    7.7684    1.3583    3.0179 H   0  0  0  0  0  0  0  0  0  0  0  0
    8.8546    0.2654    3.9167 H   0  0  0  0  0  0  0  0  0  0  0  0
    6.1571   -2.5428    1.4548 H   0  0  0  0  0  0  0  0  0  0  0  0
    4.7003   -2.3786   -0.5194 H   0  0  0  0  0  0  0  0  0  0  0  0
    4.7892    0.5331   -2.8227 H   0  0  0  0  0  0  0  0  0  0  0  0
    4.2958   -1.1639   -2.6103 H   0  0  0  0  0  0  0  0  0  0  0  0
    3.2171    2.4036   -1.8229 H   0  0  0  0  0  0  0  0  0  0  0  0
    0.6403    2.4480   -1.1354 H   0  0  0  0  0  0  0  0  0  0  0  0
   -1.2998    1.6844   -0.4401 H   0  0  0  0  0  0  0  0  0  0  0  0
   -2.7930    0.7899    1.7772 H   0  0  0  0  0  0  0  0  0  0  0  0
   -7.1995   -1.5926    4.6396 H   0  0  0  0  0  0  0  0  0  0  0  0
   -6.9684    0.3879    6.0660 H   0  0  0  0  0  0  0  0  0  0  0  0
   -5.6288    2.2788    5.2179 H   0  0  0  0  0  0  0  0  0  0  0  0
   -5.4900   -1.0396   -1.8432 H   0  0  0  0  0  0  0  0  0  0  0  0
   -2.0331   -0.6995   -2.8361 H   0  0  0  0  0  0  0  0  0  0  0  0
   -3.9845    0.5689   -4.4541 H   0  0  0  0  0  0  0  0  0  0  0  0
   -2.4622    1.3382   -3.8289 H   0  0  0  0  0  0  0  0  0  0  0  0
   -4.0423    1.4571   -2.8981 H   0  0  0  0  0  0  0  0  0  0  0  0
   -4.1596   -2.3569   -2.6774 H   0  0  0  0  0  0  0  0  0  0  0  0
   -4.8150   -1.1182   -3.7649 H   0  0  0  0  0  0  0  0  0  0  0  0
   -3.3455   -1.9629   -4.2830 H   0  0  0  0  0  0  0  0  0  0  0  0
    0.4434   -3.4647   -1.0532 H   0  0  0  0  0  0  0  0  0  0  0  0
    5.8908    1.6962   -0.9601 H   0  0  0  0  0  0  0  0  0  0  0  0
    7.3418    1.4892    1.0279 H   0  0  0  0  0  0  0  0  0  0  0  0
  1  2  1  0
  2  3  1  0
  3  4  2  0
  4  5  1  0
  5  6  2  0
  6  7  1  0
  7  8  1  0
  8  9  1  0
  9 10  2  0
 10 11  1  0
 11 12  2  0
 12 13  1  0
 13 14  1  0
 14 15  2  0
 15 16  1  0
 16 17  1  0
 17 18  2  0
 18 19  1  0
 19 20  2  0
 20 21  1  0
 21 22  2  0
 22 23  1  0
 16 24  2  0
 24 25  1  0
 25 26  2  0
 26 27  1  0
 27 28  1  0
 27 29  1  0
 12 30  1  0
 30 31  2  0
 31 32  1  0
 32 33  2  0
  6 34  1  0
 34 35  2  0
 35  3  1  0
 33  8  1  0
 33 11  1  0
 26 14  1  0
 22 17  1  0
  1 36  1  0
  1 37  1  0
  1 38  1  0
  4 39  1  0
  5 40  1  0
  7 41  1  0
  7 42  1  0
  9 43  1  0
 10 44  1  0
 13 45  1  0
 15 46  1  0
 19 47  1  0
 20 48  1  0
 21 49  1  0
 25 50  1  0
 27 51  1  0
 28 52  1  0
 28 53  1  0
 28 54  1  0
 29 55  1  0
 29 56  1  0
 29 57  1  0
 31 58  1  0
 34 59  1  0
 35 60  1  0
M  END
$$$$
