@<TRIPOS>MOLECULE
*****
 60 64 0 0 0
SMALL
GASTEIGER

@<TRIPOS>ATOM
      1 C           8.4023    0.4493    2.9094 C.3     1  UNL1        0.0788
      2 O           7.6553   -0.6501    2.4775 O.3     1  UNL1       -0.4951
      3 C           6.8385   -0.5530    1.3686 C.ar    1  UNL1        0.1201
      4 C           6.0815   -1.5975    0.8943 C.ar    1  UNL1       -0.0196
      5 C           5.2585   -1.4907   -0.2271 C.ar    1  UNL1       -0.0534
      6 C           5.1892   -0.2913   -0.9017 C.ar    1  UNL1       -0.0275
      7 C           4.3198   -0.1604   -2.0966 C.3     1  UNL1        0.0497
      8 N           2.9700    0.2410   -1.7441 N.ar    1  UNL1       -0.3274
      9 C           2.5854    1.5414   -1.6493 C.ar    1  UNL1        0.0076
     10 C           1.2529    1.5706   -1.2943 C.ar    1  UNL1       -0.0315
     11 C           0.8125    0.2836   -1.1696 C.ar    1  UNL1        0.0589
     12 C          -0.4308   -0.2399   -0.8359 C.ar    1  UNL1        0.1354
     13 N          -1.4890    0.6439   -0.5186 N.pl3   1  UNL1       -0.2985
     14 C          -2.8201    0.2384   -0.2894 C.ar    1  UNL1        0.0394
     15 C          -3.3957    0.3847    0.9861 C.ar    1  UNL1       -0.0126
     16 C          -4.6960    0.0255    1.2377 C.ar    1  UNL1        0.0937
     17 C          -5.2969    0.1726    2.5589 C.ar    1  UNL1        0.1242
     18 N          -6.0330   -0.8357    3.0544 N.ar    1  UNL1       -0.2505
     19 C          -6.6159   -0.7697    4.2686 C.ar    1  UNL1        0.0285
     20 C          -6.4938    0.3381    5.0814 C.ar    1  UNL1       -0.0408
     21 C          -5.7397    1.3966    4.5989 C.ar    1  UNL1       -0.0228
     22 C          -5.1595    1.2898    3.3506 C.ar    1  UNL1        0.1507
     23 F          -4.4286    2.3307    2.8982 F       1  UNL1       -0.2032
     24 N          -5.3972   -0.4740    0.2053 N.ar    1  UNL1       -0.2529
     25 C          -4.8846   -0.6275   -1.0234 C.ar    1  UNL1        0.0335
     26 C          -3.5585   -0.2730   -1.3270 C.ar    1  UNL1       -0.0055
     27 C          -3.0923   -0.4374   -2.7225 C.3     1  UNL1       -0.0183
     28 C          -3.4111    0.8205   -3.5490 C.3     1  UNL1       -0.0585
     29 C          -3.8677   -1.5738   -3.4083 C.3     1  UNL1       -0.0585
     30 N          -0.5200   -1.5754   -0.8058 N.ar    1  UNL1       -0.2199
     31 C           0.5339   -2.3756   -1.0824 C.ar    1  UNL1        0.1204
     32 N           1.7319   -1.8461   -1.4036 N.ar    1  UNL1       -0.2176
     33 C           1.8967   -0.5078   -1.4541 C.ar    1  UNL1        0.1460
     34 C           5.9495    0.7580   -0.4253 C.ar    1  UNL1       -0.0534
     35 C           6.7542    0.6428    0.6761 C.ar    1  UNL1       -0.0196
     36 H           9.2212    0.6636    2.1942 H       1  UNL1        0.0660
     37 H           7.7684    1.3583    3.0179 H       1  UNL1        0.0660
     38 H           8.8546    0.2654    3.9167 H       1  UNL1        0.0660
     39 H           6.1571   -2.5428    1.4548 H       1  UNL1        0.0654
     40 H           4.7003   -2.3786   -0.5194 H       1  UNL1        0.0622
     41 H           4.7892    0.5331   -2.8227 H       1  UNL1        0.0542
     42 H           4.2958   -1.1639   -2.6103 H       1  UNL1        0.0542
     43 H           3.2171    2.4036   -1.8229 H       1  UNL1        0.0810
     44 H           0.6403    2.4480   -1.1354 H       1  UNL1        0.0640
     45 H          -1.2998    1.6844   -0.4401 H       1  UNL1        0.1536
     46 H          -2.7930    0.7899    1.7772 H       1  UNL1        0.0658
     47 H          -7.1995   -1.5926    4.6396 H       1  UNL1        0.0830
     48 H          -6.9684    0.3879    6.0660 H       1  UNL1        0.0634
     49 H          -5.6288    2.2788    5.2179 H       1  UNL1        0.0647
     50 H          -5.4900   -1.0396   -1.8432 H       1  UNL1        0.0833
     51 H          -2.0331   -0.6995   -2.8361 H       1  UNL1        0.0344
     52 H          -3.9845    0.5689   -4.4541 H       1  UNL1        0.0235
     53 H          -2.4622    1.3382   -3.8289 H       1  UNL1        0.0235
     54 H          -4.0423    1.4571   -2.8981 H       1  UNL1        0.0235
     55 H          -4.1596   -2.3569   -2.6774 H       1  UNL1        0.0235
     56 H          -4.8150   -1.1182   -3.7649 H       1  UNL1        0.0235
     57 H          -3.3455   -1.9629   -4.2830 H       1  UNL1        0.0235
     58 H           0.4434   -3.4647   -1.0532 H       1  UNL1        0.1048
     59 H           5.8908    1.6962   -0.9601 H       1  UNL1        0.0622
     60 H           7.3418    1.4892    1.0279 H       1  UNL1        0.0654
@<TRIPOS>BOND
     1     1     2    1
     2     2     3    1
     3     3     4   ar
     4     4     5   ar
     5     5     6   ar
     6     6     7    1
     7     7     8    1
     8     8     9   ar
     9     9    10   ar
    10    10    11   ar
    11    11    12   ar
    12    12    13    1
    13    13    14    1
    14    14    15   ar
    15    15    16   ar
    16    16    17    1
    17    17    18   ar
    18    18    19   ar
    19    19    20   ar
    20    20    21   ar
    21    21    22   ar
    22    22    23    1
    23    16    24   ar
    24    24    25   ar
    25    25    26   ar
    26    26    27    1
    27    27    28    1
    28    27    29    1
    29    12    30   ar
    30    30    31   ar
    31    31    32   ar
    32    32    33   ar
    33     6    34   ar
    34    34    35   ar
    35    35     3   ar
    36    33     8   ar
    37    33    11   ar
    38    26    14   ar
    39    22    17   ar
    40     1    36    1
    41     1    37    1
    42     1    38    1
    43     4    39    1
    44     5    40    1
    45     7    41    1
    46     7    42    1
    47     9    43    1
    48    10    44    1
    49    13    45    1
    50    15    46    1
    51    19    47    1
    52    20    48    1
    53    21    49    1
    54    25    50    1
    55    27    51    1
    56    28    52    1
    57    28    53    1
    58    28    54    1
    59    29    55    1
    60    29    56    1
    61    29    57    1
    62    31    58    1
    63    34    59    1
    64    35    60    1
