@<TRIPOS>MOLECULE
*****
 56 59 0 0 0
SMALL
GASTEIGER

@<TRIPOS>ATOM
      1 C           9.1239    2.2164   -0.6374 C.3     1  UNL1        0.0788
      2 O           8.9429    0.8915   -0.1955 O.3     1  UNL1       -0.4950
      3 C           7.6573    0.3637   -0.1192 C.ar    1  UNL1        0.1221
      4 C           6.5928    1.1660   -0.4822 C.ar    1  UNL1       -0.0192
      5 C           5.2950    0.7067   -0.4304 C.ar    1  UNL1       -0.0456
      6 C           5.0450   -0.5799   -0.0083 C.ar    1  UNL1        0.0429
      7 C           3.7467   -1.0473    0.0441 C.ar    1  UNL1        0.1390
      8 O           2.7361   -0.2001   -0.3301 O.3     1  UNL1       -0.4552
      9 C           1.3921   -0.5438   -0.3356 C.ar    1  UNL1        0.1320
     10 C           0.8114   -1.0682   -1.4692 C.ar    1  UNL1       -0.0188
     11 C          -0.5229   -1.4061   -1.4633 C.ar    1  UNL1       -0.0512
     12 C          -1.3380   -1.2489   -0.3644 C.ar    1  UNL1        0.0032
     13 C          -2.7790   -1.6073   -0.3426 C.3     1  UNL1        0.0529
     14 C          -3.6397   -0.3928   -0.4359 C.2     1  UNL1        0.2217
     15 O          -3.1716    0.7598   -0.5313 O.2     1  UNL1       -0.2751
     16 N          -5.0397   -0.5701   -0.4142 N.am    1  UNL1       -0.2826
     17 C          -5.9986    0.4715   -0.4943 C.ar    1  UNL1        0.0742
     18 C          -5.7942    1.8238   -0.6201 C.ar    1  UNL1        0.0467
     19 N          -7.0010    2.4497   -0.6571 N.ar    1  UNL1       -0.2724
     20 C          -7.2397    3.8649   -0.7824 C.3     1  UNL1        0.0303
     21 N          -7.9406    1.5364   -0.5589 N.ar    1  UNL1       -0.1748
     22 C          -7.3713    0.3142   -0.4575 C.ar    1  UNL1        0.0811
     23 C          -8.0995   -0.9682   -0.3277 C.3     1  UNL1       -0.0188
     24 C          -0.7319   -0.7176    0.7712 C.ar    1  UNL1        0.1272
     25 O          -1.5586   -0.5604    1.8797 O.3     1  UNL1       -0.4947
     26 C          -0.9970   -0.0253    3.0615 C.3     1  UNL1        0.0788
     27 C           0.6024   -0.3754    0.7779 C.ar    1  UNL1        0.0227
     28 C           3.5505   -2.3413    0.4710 C.ar    1  UNL1       -0.0006
     29 C           4.6325   -3.1190    0.8274 C.ar    1  UNL1        0.0318
     30 N           5.8880   -2.6432    0.7686 N.ar    1  UNL1       -0.2546
     31 C           6.1314   -1.3761    0.3545 C.ar    1  UNL1        0.0779
     32 C           7.4339   -0.9342    0.3090 C.ar    1  UNL1        0.0061
     33 H          10.1936    2.4697   -0.7826 H       1  UNL1        0.0660
     34 H           8.6051    2.2909   -1.6282 H       1  UNL1        0.0660
     35 H           8.6415    2.9466    0.0277 H       1  UNL1        0.0660
     36 H           6.7176    2.1848   -0.8225 H       1  UNL1        0.0654
     37 H           4.4540    1.3259   -0.7124 H       1  UNL1        0.0626
     38 H           1.4270   -1.2107   -2.3721 H       1  UNL1        0.0654
     39 H          -0.9830   -1.8235   -2.3698 H       1  UNL1        0.0623
     40 H          -3.0323   -2.2177    0.5635 H       1  UNL1        0.0408
     41 H          -2.9720   -2.2732   -1.2168 H       1  UNL1        0.0408
     42 H          -5.4148   -1.5636   -0.3311 H       1  UNL1        0.1549
     43 H          -4.8508    2.3237   -0.6810 H       1  UNL1        0.0845
     44 H          -7.6385    4.2658    0.1790 H       1  UNL1        0.0473
     45 H          -6.3459    4.4249   -1.1197 H       1  UNL1        0.0473
     46 H          -8.0921    3.9863   -1.5115 H       1  UNL1        0.0473
     47 H          -7.5325   -1.6964    0.3204 H       1  UNL1        0.0294
     48 H          -8.2422   -1.4197   -1.3232 H       1  UNL1        0.0294
     49 H          -9.0637   -0.8264    0.2001 H       1  UNL1        0.0294
     50 H          -1.7946    0.2813    3.7744 H       1  UNL1        0.0660
     51 H          -0.3417   -0.7722    3.5823 H       1  UNL1        0.0660
     52 H          -0.3753    0.8687    2.8876 H       1  UNL1        0.0660
     53 H           1.0433    0.0379    1.6861 H       1  UNL1        0.0691
     54 H           2.5489   -2.7474    0.5270 H       1  UNL1        0.0670
     55 H           4.4178   -4.1417    1.1602 H       1  UNL1        0.0831
     56 H           8.2718   -1.5536    0.5903 H       1  UNL1        0.0676
@<TRIPOS>BOND
     1     1     2    1
     2     2     3    1
     3     3     4   ar
     4     4     5   ar
     5     5     6   ar
     6     6     7   ar
     7     7     8    1
     8     8     9    1
     9     9    10   ar
    10    10    11   ar
    11    11    12   ar
    12    12    13    1
    13    13    14    1
    14    14    15    2
    15    14    16   am
    16    16    17    1
    17    17    18   ar
    18    18    19   ar
    19    19    20    1
    20    19    21   ar
    21    21    22   ar
    22    22    23    1
    23    12    24   ar
    24    24    25    1
    25    25    26    1
    26    24    27   ar
    27     7    28   ar
    28    28    29   ar
    29    29    30   ar
    30    30    31   ar
    31    31    32   ar
    32    32     3   ar
    33    31     6   ar
    34    27     9   ar
    35    22    17   ar
    36     1    33    1
    37     1    34    1
    38     1    35    1
    39     4    36    1
    40     5    37    1
    41    10    38    1
    42    11    39    1
    43    13    40    1
    44    13    41    1
    45    16    42    1
    46    18    43    1
    47    20    44    1
    48    20    45    1
    49    20    46    1
    50    23    47    1
    51    23    48    1
    52    23    49    1
    53    26    50    1
    54    26    51    1
    55    26    52    1
    56    27    53    1
    57    28    54    1
    58    29    55    1
    59    32    56    1
