
     RDKit          3D

 56 59  0  0  0  0  0  0  0  0999 V2000
    9.1239    2.2164   -0.6374 C   0  0  0  0  0  0  0  0  0  0  0  0
    8.9429    0.8915   -0.1955 O   0  0  0  0  0  0  0  0  0  0  0  0
    7.6573    0.3637   -0.1192 C   0  0  0  0  0  0  0  0  0  0  0  0
    6.5928    1.1660   -0.4822 C   0  0  0  0  0  0  0  0  0  0  0  0
    5.2950    0.7067   -0.4304 C   0  0  0  0  0  0  0  0  0  0  0  0
    5.0450   -0.5799   -0.0083 C   0  0  0  0  0  0  0  0  0  0  0  0
    3.7467   -1.0473    0.0441 C   0  0  0  0  0  0  0  0  0  0  0  0
    2.7361   -0.2001   -0.3301 O   0  0  0  0  0  0  0  0  0  0  0  0
    1.3921   -0.5438   -0.3356 C   0  0  0  0  0  0  0  0  0  0  0  0
    0.8114   -1.0682   -1.4692 C   0  0  0  0  0  0  0  0  0  0  0  0
   -0.5229   -1.4061   -1.4633 C   0  0  0  0  0  0  0  0  0  0  0  0
   -1.3380   -1.2489   -0.3644 C   0  0  0  0  0  0  0  0  0  0  0  0
   -2.7790   -1.6073   -0.3426 C   0  0  0  0  0  0  0  0  0  0  0  0
   -3.6397   -0.3928   -0.4359 C   0  0  0  0  0  0  0  0  0  0  0  0
   -3.1716    0.7598   -0.5313 O   0  0  0  0  0  0  0  0  0  0  0  0
   -5.0397   -0.5701   -0.4142 N   0  0  0  0  0  0  0  0  0  0  0  0
   -5.9986    0.4715   -0.4943 C   0  0  0  0  0  0  0  0  0  0  0  0
   -5.7942    1.8238   -0.6201 C   0  0  0  0  0  0  0  0  0  0  0  0
   -7.0010    2.4497   -0.6571 N   0  0  0  0  0  0  0  0  0  0  0  0
   -7.2397    3.8649   -0.7824 C   0  0  0  0  0  0  0  0  0  0  0  0
   -7.9406    1.5364   -0.5589 N   0  0  0  0  0  0  0  0  0  0  0  0
   -7.3713    0.3142   -0.4575 C   0  0  0  0  0  0  0  0  0  0  0  0
   -8.0995   -0.9682   -0.3277 C   0  0  0  0  0  0  0  0  0  0  0  0
   -0.7319   -0.7176    0.7712 C   0  0  0  0  0  0  0  0  0  0  0  0
   -1.5586   -0.5604    1.8797 O   0  0  0  0  0  0  0  0  0  0  0  0
   -0.9970   -0.0253    3.0615 C   0  0  0  0  0  0  0  0  0  0  0  0
    0.6024   -0.3754    0.7779 C   0  0  0  0  0  0  0  0  0  0  0  0
    3.5505   -2.3413    0.4710 C   0  0  0  0  0  0  0  0  0  0  0  0
    4.6325   -3.1190    0.8274 C   0  0  0  0  0  0  0  0  0  0  0  0
    5.8880   -2.6432    0.7686 N   0  0  0  0  0  0  0  0  0  0  0  0
    6.1314   -1.3761    0.3545 C   0  0  0  0  0  0  0  0  0  0  0  0
    7.4339   -0.9342    0.3090 C   0  0  0  0  0  0  0  0  0  0  0  0
   10.1936    2.4697   -0.7826 H   0  0  0  0  0  0  0  0  0  0  0  0
    8.6051    2.2909   -1.6282 H   0  0  0  0  0  0  0  0  0  0  0  0
    8.6415    2.9466    0.0277 H   0  0  0  0  0  0  0  0  0  0  0  0
    6.7176    2.1848   -0.8225 H   0  0  0  0  0  0  0  0  0  0  0  0
    4.4540    1.3259   -0.7124 H   0  0  0  0  0  0  0  0  0  0  0  0
    1.4270   -1.2107   -2.3721 H   0  0  0  0  0  0  0  0  0  0  0  0
   -0.9830   -1.8235   -2.3698 H   0  0  0  0  0  0  0  0  0  0  0  0
   -3.0323   -2.2177    0.5635 H   0  0  0  0  0  0  0  0  0  0  0  0
   -2.9720   -2.2732   -1.2168 H   0  0  0  0  0  0  0  0  0  0  0  0
   -5.4148   -1.5636   -0.3311 H   0  0  0  0  0  0  0  0  0  0  0  0
   -4.8508    2.3237   -0.6810 H   0  0  0  0  0  0  0  0  0  0  0  0
   -7.6385    4.2658    0.1790 H   0  0  0  0  0  0  0  0  0  0  0  0
   -6.3459    4.4249   -1.1197 H   0  0  0  0  0  0  0  0  0  0  0  0
   -8.0921    3.9863   -1.5115 H   0  0  0  0  0  0  0  0  0  0  0  0
   -7.5325   -1.6964    0.3204 H   0  0  0  0  0  0  0  0  0  0  0  0
   -8.2422   -1.4197   -1.3232 H   0  0  0  0  0  0  0  0  0  0  0  0
   -9.0637   -0.8264    0.2001 H   0  0  0  0  0  0  0  0  0  0  0  0
   -1.7946    0.2813    3.7744 H   0  0  0  0  0  0  0  0  0  0  0  0
   -0.3417   -0.7722    3.5823 H   0  0  0  0  0  0  0  0  0  0  0  0
   -0.3753    0.8687    2.8876 H   0  0  0  0  0  0  0  0  0  0  0  0
    1.0433    0.0379    1.6861 H   0  0  0  0  0  0  0  0  0  0  0  0
    2.5489   -2.7474    0.5270 H   0  0  0  0  0  0  0  0  0  0  0  0
    4.4178   -4.1417    1.1602 H   0  0  0  0  0  0  0  0  0  0  0  0
    8.2718   -1.5536    0.5903 H   0  0  0  0  0  0  0  0  0  0  0  0
  1  2  1  0
  2  3  1  0
  3  4  2  0
  4  5  1  0
  5  6  2  0
  6  7  1  0
  7  8  1  0
  8  9  1  0
  9 10  2  0
 10 11  1  0
 11 12  2  0
 12 13  1  0
 13 14  1  0
 14 15  2  0
 14 16  1  0
 16 17  1  0
 17 18  2  0
 18 19  1  0
 19 20  1  0
 19 21  1  0
 21 22  2  0
 22 23  1  0
 12 24  1  0
 24 25  1  0
 25 26  1  0
 24 27  2  0
  7 28  2  0
 28 29  1  0
 29 30  2  0
 30 31  1  0
 31 32  2  0
 32  3  1  0
 31  6  1  0
 27  9  1  0
 22 17  1  0
  1 33  1  0
  1 34  1  0
  1 35  1  0
  4 36  1  0
  5 37  1  0
 10 38  1  0
 11 39  1  0
 13 40  1  0
 13 41  1  0
 16 42  1  0
 18 43  1  0
 20 44  1  0
 20 45  1  0
 20 46  1  0
 23 47  1  0
 23 48  1  0
 23 49  1  0
 26 50  1  0
 26 51  1  0
 26 52  1  0
 27 53  1  0
 28 54  1  0
 29 55  1  0
 32 56  1  0
M  END
$$$$
