@<TRIPOS>MOLECULE
*****
 77 82 0 0 0
SMALL
GASTEIGER

@<TRIPOS>ATOM
      1 C           9.9495    1.5915    0.0152 C.3     1  UNL1       -0.0127
      2 N           8.8752    1.2205   -0.8578 N.3     1  UNL1       -0.3047
      3 C           7.6060    1.3432   -0.1960 C.3     1  UNL1        0.0032
      4 C           7.6162    0.1668    0.7965 C.3     1  UNL1       -0.0076
      5 C           6.2298   -0.0981    1.2116 C.3     1  UNL1        0.0241
      6 N           5.5893   -1.2659    0.6783 N.am    1  UNL1       -0.2697
      7 C           4.1973   -1.3545    0.4090 C.ar    1  UNL1        0.0545
      8 C           3.6013   -2.4511   -0.1720 C.ar    1  UNL1       -0.0355
      9 C           2.2276   -2.5215   -0.4134 C.ar    1  UNL1       -0.0197
     10 C           1.4319   -1.4612   -0.0616 C.ar    1  UNL1        0.1251
     11 N           0.0451   -1.5139   -0.2943 N.pl3   1  UNL1       -0.2684
     12 C          -0.8028   -0.4129    0.0528 C.ar    1  UNL1        0.2224
     13 N          -0.2788    0.7147    0.6122 N.ar    1  UNL1       -0.2219
     14 C          -1.0619    1.7583    0.9405 C.ar    1  UNL1        0.0419
     15 C          -2.4173    1.6786    0.7042 C.ar    1  UNL1        0.0378
     16 C          -3.5028    2.5291    0.9036 C.ar    1  UNL1       -0.0209
     17 C          -4.6635    1.9236    0.4714 C.ar    1  UNL1        0.1070
     18 C          -5.9990    2.5207    0.5238 C.2     1  UNL1        0.2627
     19 O          -6.9253    1.9806    1.2022 O.2     1  UNL1       -0.2684
     20 N          -6.2896    3.6996   -0.1709 N.am    1  UNL1       -0.3024
     21 C          -7.6101    4.2901   -0.1201 C.3     1  UNL1        0.0032
     22 C          -5.2924    4.4045   -0.9868 C.3     1  UNL1        0.0032
     23 N          -4.3054    0.7145    0.0100 N.ar    1  UNL1       -0.3180
     24 C          -5.2296   -0.2530   -0.5368 C.3     1  UNL1        0.0366
     25 C          -4.5949   -1.1629   -1.5496 C.3     1  UNL1       -0.0320
     26 C          -5.6771   -2.0170   -2.1632 C.3     1  UNL1       -0.0512
     27 C          -6.1443   -3.1158   -1.2604 C.3     1  UNL1       -0.0530
     28 C          -7.3090   -2.7456   -0.3973 C.3     1  UNL1       -0.0530
     29 C          -7.0798   -1.5817    0.5065 C.3     1  UNL1       -0.0512
     30 C          -5.6598   -1.1513    0.6317 C.3     1  UNL1       -0.0320
     31 C          -2.9776    0.5389    0.1343 C.ar    1  UNL1        0.1466
     32 N          -2.1264   -0.4576   -0.1638 N.ar    1  UNL1       -0.1962
     33 N           2.0072   -0.4050    0.4981 N.ar    1  UNL1       -0.2383
     34 C           3.3554   -0.3226    0.7413 C.ar    1  UNL1        0.0511
     35 C           6.4529   -2.3832    0.4244 C.2     1  UNL1        0.2201
     36 O           6.0749   -3.5559    0.6890 O.2     1  UNL1       -0.2752
     37 C           7.7743   -2.1731   -0.1409 C.3     1  UNL1        0.0288
     38 C           8.4128   -0.8727    0.1572 C.3     1  UNL1       -0.0146
     39 C           8.9294   -0.2029   -1.1217 C.3     1  UNL1        0.0022
     40 H           9.7935    2.5251    0.5720 H       1  UNL1        0.0391
     41 H          10.8724    1.7215   -0.6045 H       1  UNL1        0.0391
     42 H          10.2051    0.7848    0.7433 H       1  UNL1        0.0391
     43 H           7.5126    2.3040    0.3647 H       1  UNL1        0.0430
     44 H           6.7461    1.2878   -0.8664 H       1  UNL1        0.0430
     45 H           8.1638    0.6078    1.6895 H       1  UNL1        0.0332
     46 H           6.1872   -0.1813    2.3425 H       1  UNL1        0.0472
     47 H           5.6344    0.8418    1.0202 H       1  UNL1        0.0472
     48 H           4.1586   -3.3187   -0.4819 H       1  UNL1        0.0638
     49 H           1.7959   -3.4070   -0.8746 H       1  UNL1        0.0652
     50 H          -0.3979   -2.3490   -0.7224 H       1  UNL1        0.1564
     51 H          -0.6855    2.6623    1.3817 H       1  UNL1        0.0838
     52 H          -3.4433    3.5135    1.3311 H       1  UNL1        0.0647
     53 H          -7.7187    5.1508   -0.8114 H       1  UNL1        0.0428
     54 H          -7.8688    4.6818    0.8923 H       1  UNL1        0.0428
     55 H          -8.3843    3.5508   -0.4643 H       1  UNL1        0.0428
     56 H          -4.9761    5.3232   -0.4381 H       1  UNL1        0.0428
     57 H          -5.7570    4.7724   -1.9417 H       1  UNL1        0.0428
     58 H          -4.4543    3.7603   -1.2726 H       1  UNL1        0.0428
     59 H          -6.1372    0.2065   -0.9690 H       1  UNL1        0.0528
     60 H          -4.0670   -0.6579   -2.3575 H       1  UNL1        0.0285
     61 H          -3.9097   -1.8482   -0.9751 H       1  UNL1        0.0285
     62 H          -5.2293   -2.4829   -3.0857 H       1  UNL1        0.0266
     63 H          -6.5473   -1.4320   -2.4885 H       1  UNL1        0.0266
     64 H          -6.5127   -3.9443   -1.9360 H       1  UNL1        0.0265
     65 H          -5.3044   -3.5889   -0.6904 H       1  UNL1        0.0265
     66 H          -7.6226   -3.6709    0.1467 H       1  UNL1        0.0265
     67 H          -8.1615   -2.5116   -1.0734 H       1  UNL1        0.0265
     68 H          -7.4380   -1.8881    1.5301 H       1  UNL1        0.0266
     69 H          -7.6996   -0.7097    0.2402 H       1  UNL1        0.0266
     70 H          -5.5621   -0.5812    1.5984 H       1  UNL1        0.0285
     71 H          -4.9470   -1.9977    0.7324 H       1  UNL1        0.0285
     72 H           3.7135    0.5778    1.2040 H       1  UNL1        0.0849
     73 H           7.6863   -2.2728   -1.2633 H       1  UNL1        0.0362
     74 H           8.4300   -3.0281    0.1554 H       1  UNL1        0.0362
     75 H           9.3415   -1.0673    0.7617 H       1  UNL1        0.0321
     76 H           8.1975   -0.4143   -1.9350 H       1  UNL1        0.0429
     77 H           9.9568   -0.5162   -1.3625 H       1  UNL1        0.0429
@<TRIPOS>BOND
     1     1     2    1
     2     2     3    1
     3     3     4    1
     4     4     5    1
     5     5     6    1
     6     6     7    1
     7     7     8   ar
     8     8     9   ar
     9     9    10   ar
    10    10    11    1
    11    11    12    1
    12    12    13   ar
    13    13    14   ar
    14    14    15   ar
    15    15    16   ar
    16    16    17   ar
    17    17    18    1
    18    18    19    2
    19    18    20   am
    20    20    21    1
    21    20    22    1
    22    17    23   ar
    23    23    24    1
    24    24    25    1
    25    25    26    1
    26    26    27    1
    27    27    28    1
    28    28    29    1
    29    29    30    1
    30    23    31   ar
    31    31    32   ar
    32    10    33   ar
    33    33    34   ar
    34     6    35   am
    35    35    36    2
    36    35    37    1
    37    37    38    1
    38    38    39    1
    39    39     2    1
    40    38     4    1
    41    34     7   ar
    42    32    12   ar
    43    31    15   ar
    44    30    24    1
    45     1    40    1
    46     1    41    1
    47     1    42    1
    48     3    43    1
    49     3    44    1
    50     4    45    1
    51     5    46    1
    52     5    47    1
    53     8    48    1
    54     9    49    1
    55    11    50    1
    56    14    51    1
    57    16    52    1
    58    21    53    1
    59    21    54    1
    60    21    55    1
    61    22    56    1
    62    22    57    1
    63    22    58    1
    64    24    59    1
    65    25    60    1
    66    25    61    1
    67    26    62    1
    68    26    63    1
    69    27    64    1
    70    27    65    1
    71    28    66    1
    72    28    67    1
    73    29    68    1
    74    29    69    1
    75    30    70    1
    76    30    71    1
    77    34    72    1
    78    37    73    1
    79    37    74    1
    80    38    75    1
    81    39    76    1
    82    39    77    1
