
     RDKit          3D

 77 82  0  0  0  0  0  0  0  0999 V2000
    9.9495    1.5915    0.0152 C   0  0  0  0  0  0  0  0  0  0  0  0
    8.8752    1.2205   -0.8578 N   0  0  0  0  0  0  0  0  0  0  0  0
    7.6060    1.3432   -0.1960 C   0  0  0  0  0  0  0  0  0  0  0  0
    7.6162    0.1668    0.7965 C   0  0  1  0  0  0  0  0  0  0  0  0
    6.2298   -0.0981    1.2116 C   0  0  0  0  0  0  0  0  0  0  0  0
    5.5893   -1.2659    0.6783 N   0  0  0  0  0  0  0  0  0  0  0  0
    4.1973   -1.3545    0.4090 C   0  0  0  0  0  0  0  0  0  0  0  0
    3.6013   -2.4511   -0.1720 C   0  0  0  0  0  0  0  0  0  0  0  0
    2.2276   -2.5215   -0.4134 C   0  0  0  0  0  0  0  0  0  0  0  0
    1.4319   -1.4612   -0.0616 C   0  0  0  0  0  0  0  0  0  0  0  0
    0.0451   -1.5139   -0.2943 N   0  0  0  0  0  0  0  0  0  0  0  0
   -0.8028   -0.4129    0.0528 C   0  0  0  0  0  0  0  0  0  0  0  0
   -0.2788    0.7147    0.6122 N   0  0  0  0  0  0  0  0  0  0  0  0
   -1.0619    1.7583    0.9405 C   0  0  0  0  0  0  0  0  0  0  0  0
   -2.4173    1.6786    0.7042 C   0  0  0  0  0  0  0  0  0  0  0  0
   -3.5028    2.5291    0.9036 C   0  0  0  0  0  0  0  0  0  0  0  0
   -4.6635    1.9236    0.4714 C   0  0  0  0  0  0  0  0  0  0  0  0
   -5.9990    2.5207    0.5238 C   0  0  0  0  0  0  0  0  0  0  0  0
   -6.9253    1.9806    1.2022 O   0  0  0  0  0  0  0  0  0  0  0  0
   -6.2896    3.6996   -0.1709 N   0  0  0  0  0  0  0  0  0  0  0  0
   -7.6101    4.2901   -0.1201 C   0  0  0  0  0  0  0  0  0  0  0  0
   -5.2924    4.4045   -0.9868 C   0  0  0  0  0  0  0  0  0  0  0  0
   -4.3054    0.7145    0.0100 N   0  0  0  0  0  0  0  0  0  0  0  0
   -5.2296   -0.2530   -0.5368 C   0  0  0  0  0  0  0  0  0  0  0  0
   -4.5949   -1.1629   -1.5496 C   0  0  0  0  0  0  0  0  0  0  0  0
   -5.6771   -2.0170   -2.1632 C   0  0  0  0  0  0  0  0  0  0  0  0
   -6.1443   -3.1158   -1.2604 C   0  0  0  0  0  0  0  0  0  0  0  0
   -7.3090   -2.7456   -0.3973 C   0  0  0  0  0  0  0  0  0  0  0  0
   -7.0798   -1.5817    0.5065 C   0  0  0  0  0  0  0  0  0  0  0  0
   -5.6598   -1.1513    0.6317 C   0  0  0  0  0  0  0  0  0  0  0  0
   -2.9776    0.5389    0.1343 C   0  0  0  0  0  0  0  0  0  0  0  0
   -2.1264   -0.4576   -0.1638 N   0  0  0  0  0  0  0  0  0  0  0  0
    2.0072   -0.4050    0.4981 N   0  0  0  0  0  0  0  0  0  0  0  0
    3.3554   -0.3226    0.7413 C   0  0  0  0  0  0  0  0  0  0  0  0
    6.4529   -2.3832    0.4244 C   0  0  0  0  0  0  0  0  0  0  0  0
    6.0749   -3.5559    0.6890 O   0  0  0  0  0  0  0  0  0  0  0  0
    7.7743   -2.1731   -0.1409 C   0  0  0  0  0  0  0  0  0  0  0  0
    8.4128   -0.8727    0.1572 C   0  0  1  0  0  0  0  0  0  0  0  0
    8.9294   -0.2029   -1.1217 C   0  0  0  0  0  0  0  0  0  0  0  0
    9.7935    2.5251    0.5720 H   0  0  0  0  0  0  0  0  0  0  0  0
   10.8724    1.7215   -0.6045 H   0  0  0  0  0  0  0  0  0  0  0  0
   10.2051    0.7848    0.7433 H   0  0  0  0  0  0  0  0  0  0  0  0
    7.5126    2.3040    0.3647 H   0  0  0  0  0  0  0  0  0  0  0  0
    6.7461    1.2878   -0.8664 H   0  0  0  0  0  0  0  0  0  0  0  0
    8.1638    0.6078    1.6895 H   0  0  0  0  0  0  0  0  0  0  0  0
    6.1872   -0.1813    2.3425 H   0  0  0  0  0  0  0  0  0  0  0  0
    5.6344    0.8418    1.0202 H   0  0  0  0  0  0  0  0  0  0  0  0
    4.1586   -3.3187   -0.4819 H   0  0  0  0  0  0  0  0  0  0  0  0
    1.7959   -3.4070   -0.8746 H   0  0  0  0  0  0  0  0  0  0  0  0
   -0.3979   -2.3490   -0.7224 H   0  0  0  0  0  0  0  0  0  0  0  0
   -0.6855    2.6623    1.3817 H   0  0  0  0  0  0  0  0  0  0  0  0
   -3.4433    3.5135    1.3311 H   0  0  0  0  0  0  0  0  0  0  0  0
   -7.7187    5.1508   -0.8114 H   0  0  0  0  0  0  0  0  0  0  0  0
   -7.8688    4.6818    0.8923 H   0  0  0  0  0  0  0  0  0  0  0  0
   -8.3843    3.5508   -0.4643 H   0  0  0  0  0  0  0  0  0  0  0  0
   -4.9761    5.3232   -0.4381 H   0  0  0  0  0  0  0  0  0  0  0  0
   -5.7570    4.7724   -1.9417 H   0  0  0  0  0  0  0  0  0  0  0  0
   -4.4543    3.7603   -1.2726 H   0  0  0  0  0  0  0  0  0  0  0  0
   -6.1372    0.2065   -0.9690 H   0  0  0  0  0  0  0  0  0  0  0  0
   -4.0670   -0.6579   -2.3575 H   0  0  0  0  0  0  0  0  0  0  0  0
   -3.9097   -1.8482   -0.9751 H   0  0  0  0  0  0  0  0  0  0  0  0
   -5.2293   -2.4829   -3.0857 H   0  0  0  0  0  0  0  0  0  0  0  0
   -6.5473   -1.4320   -2.4885 H   0  0  0  0  0  0  0  0  0  0  0  0
   -6.5127   -3.9443   -1.9360 H   0  0  0  0  0  0  0  0  0  0  0  0
   -5.3044   -3.5889   -0.6904 H   0  0  0  0  0  0  0  0  0  0  0  0
   -7.6226   -3.6709    0.1467 H   0  0  0  0  0  0  0  0  0  0  0  0
   -8.1615   -2.5116   -1.0734 H   0  0  0  0  0  0  0  0  0  0  0  0
   -7.4380   -1.8881    1.5301 H   0  0  0  0  0  0  0  0  0  0  0  0
   -7.6996   -0.7097    0.2402 H   0  0  0  0  0  0  0  0  0  0  0  0
   -5.5621   -0.5812    1.5984 H   0  0  0  0  0  0  0  0  0  0  0  0
   -4.9470   -1.9977    0.7324 H   0  0  0  0  0  0  0  0  0  0  0  0
    3.7135    0.5778    1.2040 H   0  0  0  0  0  0  0  0  0  0  0  0
    7.6863   -2.2728   -1.2633 H   0  0  0  0  0  0  0  0  0  0  0  0
    8.4300   -3.0281    0.1554 H   0  0  0  0  0  0  0  0  0  0  0  0
    9.3415   -1.0673    0.7617 H   0  0  0  0  0  0  0  0  0  0  0  0
    8.1975   -0.4143   -1.9350 H   0  0  0  0  0  0  0  0  0  0  0  0
    9.9568   -0.5162   -1.3625 H   0  0  0  0  0  0  0  0  0  0  0  0
  1  2  1  0
  2  3  1  0
  3  4  1  0
  4  5  1  0
  5  6  1  0
  6  7  1  0
  7  8  2  0
  8  9  1  0
  9 10  2  0
 10 11  1  0
 11 12  1  0
 12 13  2  0
 13 14  1  0
 14 15  2  0
 15 16  1  0
 16 17  2  0
 17 18  1  0
 18 19  2  0
 18 20  1  0
 20 21  1  0
 20 22  1  0
 17 23  1  0
 23 24  1  0
 24 25  1  0
 25 26  1  0
 26 27  1  0
 27 28  1  0
 28 29  1  0
 29 30  1  0
 23 31  1  0
 31 32  2  0
 10 33  1  0
 33 34  2  0
  6 35  1  0
 35 36  2  0
 35 37  1  0
 37 38  1  0
 38 39  1  0
 39  2  1  0
 38  4  1  0
 34  7  1  0
 32 12  1  0
 31 15  1  0
 30 24  1  0
  1 40  1  0
  1 41  1  0
  1 42  1  0
  3 43  1  0
  3 44  1  0
  4 45  1  1
  5 46  1  0
  5 47  1  0
  8 48  1  0
  9 49  1  0
 11 50  1  0
 14 51  1  0
 16 52  1  0
 21 53  1  0
 21 54  1  0
 21 55  1  0
 22 56  1  0
 22 57  1  0
 22 58  1  0
 24 59  1  0
 25 60  1  0
 25 61  1  0
 26 62  1  0
 26 63  1  0
 27 64  1  0
 27 65  1  0
 28 66  1  0
 28 67  1  0
 29 68  1  0
 29 69  1  0
 30 70  1  0
 30 71  1  0
 34 72  1  0
 37 73  1  0
 37 74  1  0
 38 75  1  1
 39 76  1  0
 39 77  1  0
M  END
$$$$
