@<TRIPOS>MOLECULE
*****
 50 52 0 0 0
SMALL
GASTEIGER

@<TRIPOS>ATOM
      1 C          -1.8334   -4.9255    0.8245 C.3     1  UNL1        0.0790
      2 O          -0.7663   -4.0515    0.5142 O.3     1  UNL1       -0.4914
      3 C          -0.7953   -2.6937    0.6544 C.ar    1  UNL1        0.1630
      4 C          -1.9337   -2.0486    1.1507 C.ar    1  UNL1       -0.0127
      5 C          -1.9631   -0.6843    1.2906 C.ar    1  UNL1       -0.0381
      6 C          -3.0915    0.0979    1.8097 C.3     1  UNL1        0.0024
      7 C          -4.0341    0.6239    0.8261 C.ar    1  UNL1        0.0146
      8 C          -3.9669    1.9658    0.4183 C.ar    1  UNL1        0.0379
      9 N          -4.8311    2.4488   -0.4910 N.ar    1  UNL1       -0.2227
     10 C          -5.7957    1.6976   -1.0584 C.ar    1  UNL1        0.2142
     11 N          -6.6969    2.2522   -2.0222 N.pl3   1  UNL1       -0.3274
     12 N          -5.8741    0.4120   -0.6799 N.ar    1  UNL1       -0.1999
     13 C          -5.0189   -0.1263    0.2412 C.ar    1  UNL1        0.1247
     14 N          -5.1730   -1.5075    0.6043 N.pl3   1  UNL1       -0.3428
     15 C          -0.8051    0.0160    0.9135 C.ar    1  UNL1       -0.0390
     16 C           0.3091   -0.6016    0.4291 C.ar    1  UNL1        0.0708
     17 C           1.5009    0.1304    0.0412 C.1     1  UNL1       -0.0573
     18 C           2.5040    0.7295   -0.2771 C.1     1  UNL1       -0.0609
     19 C           3.6963    1.4279   -0.6307 C.ar    1  UNL1        0.0253
     20 C           4.1434    1.5098   -1.9456 C.ar    1  UNL1       -0.0455
     21 C           5.2989    2.1876   -2.2622 C.ar    1  UNL1       -0.0466
     22 C           6.0332    2.7988   -1.2714 C.ar    1  UNL1        0.0589
     23 C           7.2505    3.5170   -1.5828 C.2     1  UNL1        0.3368
     24 O           7.9243    4.0797   -0.6553 O.2     1  UNL1       -0.2451
     25 O           7.7609    3.6457   -2.8621 O.3     1  UNL1       -0.4771
     26 C           5.6102    2.7358    0.0649 C.ar    1  UNL1       -0.0466
     27 C           4.4457    2.0457    0.3400 C.ar    1  UNL1       -0.0455
     28 C           0.3394   -1.9696    0.2886 C.ar    1  UNL1        0.1768
     29 O           1.4418   -2.6690   -0.1988 O.3     1  UNL1       -0.4903
     30 C           2.4378   -3.1326    0.7109 C.3     1  UNL1        0.0790
     31 H          -1.4932   -5.9639    0.9852 H       1  UNL1        0.0660
     32 H          -2.5968   -4.9434    0.0081 H       1  UNL1        0.0660
     33 H          -2.3660   -4.5783    1.7317 H       1  UNL1        0.0660
     34 H          -2.8061   -2.6155    1.4380 H       1  UNL1        0.0658
     35 H          -2.6611    0.9088    2.4518 H       1  UNL1        0.0363
     36 H          -3.6335   -0.5571    2.5282 H       1  UNL1        0.0363
     37 H          -3.1839    2.5646    0.8813 H       1  UNL1        0.0834
     38 H          -7.6862    2.3812   -1.7284 H       1  UNL1        0.1452
     39 H          -6.4369    2.5325   -2.9851 H       1  UNL1        0.1452
     40 H          -5.0297   -1.7442    1.6165 H       1  UNL1        0.1437
     41 H          -5.4131   -2.2554   -0.0765 H       1  UNL1        0.1437
     42 H          -0.8017    1.0911    1.0137 H       1  UNL1        0.0634
     43 H           3.5939    1.0434   -2.7494 H       1  UNL1        0.0630
     44 H           5.6742    2.2700   -3.2731 H       1  UNL1        0.0626
     45 H           8.3090    4.4969   -3.0670 H       1  UNL1        0.2954
     46 H           6.1823    3.2160    0.8590 H       1  UNL1        0.0626
     47 H           4.1535    2.0217    1.3906 H       1  UNL1        0.0630
     48 H           3.3554   -2.5285    0.6849 H       1  UNL1        0.0660
     49 H           2.6579   -4.1793    0.4015 H       1  UNL1        0.0660
     50 H           2.0649   -3.0727    1.7649 H       1  UNL1        0.0660
@<TRIPOS>BOND
     1     1     2    1
     2     2     3    1
     3     3     4   ar
     4     4     5   ar
     5     5     6    1
     6     6     7    1
     7     7     8   ar
     8     8     9   ar
     9     9    10   ar
    10    10    11    1
    11    10    12   ar
    12    12    13   ar
    13    13    14    1
    14     5    15   ar
    15    15    16   ar
    16    16    17    1
    17    17    18    3
    18    18    19    1
    19    19    20   ar
    20    20    21   ar
    21    21    22   ar
    22    22    23    1
    23    23    24    2
    24    23    25    1
    25    22    26   ar
    26    26    27   ar
    27    16    28   ar
    28    28    29    1
    29    29    30    1
    30    28     3   ar
    31    13     7   ar
    32    27    19   ar
    33     1    31    1
    34     1    32    1
    35     1    33    1
    36     4    34    1
    37     6    35    1
    38     6    36    1
    39     8    37    1
    40    11    38    1
    41    11    39    1
    42    14    40    1
    43    14    41    1
    44    15    42    1
    45    20    43    1
    46    21    44    1
    47    25    45    1
    48    26    46    1
    49    27    47    1
    50    30    48    1
    51    30    49    1
    52    30    50    1
