
     RDKit          3D

 50 52  0  0  0  0  0  0  0  0999 V2000
   -1.8334   -4.9255    0.8245 C   0  0  0  0  0  0  0  0  0  0  0  0
   -0.7663   -4.0515    0.5142 O   0  0  0  0  0  0  0  0  0  0  0  0
   -0.7953   -2.6937    0.6544 C   0  0  0  0  0  0  0  0  0  0  0  0
   -1.9337   -2.0486    1.1507 C   0  0  0  0  0  0  0  0  0  0  0  0
   -1.9631   -0.6843    1.2906 C   0  0  0  0  0  0  0  0  0  0  0  0
   -3.0915    0.0979    1.8097 C   0  0  0  0  0  0  0  0  0  0  0  0
   -4.0341    0.6239    0.8261 C   0  0  0  0  0  0  0  0  0  0  0  0
   -3.9669    1.9658    0.4183 C   0  0  0  0  0  0  0  0  0  0  0  0
   -4.8311    2.4488   -0.4910 N   0  0  0  0  0  0  0  0  0  0  0  0
   -5.7957    1.6976   -1.0584 C   0  0  0  0  0  0  0  0  0  0  0  0
   -6.6969    2.2522   -2.0222 N   0  0  0  0  0  0  0  0  0  0  0  0
   -5.8741    0.4120   -0.6799 N   0  0  0  0  0  0  0  0  0  0  0  0
   -5.0189   -0.1263    0.2412 C   0  0  0  0  0  0  0  0  0  0  0  0
   -5.1730   -1.5075    0.6043 N   0  0  0  0  0  0  0  0  0  0  0  0
   -0.8051    0.0160    0.9135 C   0  0  0  0  0  0  0  0  0  0  0  0
    0.3091   -0.6016    0.4291 C   0  0  0  0  0  0  0  0  0  0  0  0
    1.5009    0.1304    0.0412 C   0  0  0  0  0  0  0  0  0  0  0  0
    2.5040    0.7295   -0.2771 C   0  0  0  0  0  0  0  0  0  0  0  0
    3.6963    1.4279   -0.6307 C   0  0  0  0  0  0  0  0  0  0  0  0
    4.1434    1.5098   -1.9456 C   0  0  0  0  0  0  0  0  0  0  0  0
    5.2989    2.1876   -2.2622 C   0  0  0  0  0  0  0  0  0  0  0  0
    6.0332    2.7988   -1.2714 C   0  0  0  0  0  0  0  0  0  0  0  0
    7.2505    3.5170   -1.5828 C   0  0  0  0  0  0  0  0  0  0  0  0
    7.9243    4.0797   -0.6553 O   0  0  0  0  0  0  0  0  0  0  0  0
    7.7609    3.6457   -2.8621 O   0  0  0  0  0  0  0  0  0  0  0  0
    5.6102    2.7358    0.0649 C   0  0  0  0  0  0  0  0  0  0  0  0
    4.4457    2.0457    0.3400 C   0  0  0  0  0  0  0  0  0  0  0  0
    0.3394   -1.9696    0.2886 C   0  0  0  0  0  0  0  0  0  0  0  0
    1.4418   -2.6690   -0.1988 O   0  0  0  0  0  0  0  0  0  0  0  0
    2.4378   -3.1326    0.7109 C   0  0  0  0  0  0  0  0  0  0  0  0
   -1.4932   -5.9639    0.9852 H   0  0  0  0  0  0  0  0  0  0  0  0
   -2.5968   -4.9434    0.0081 H   0  0  0  0  0  0  0  0  0  0  0  0
   -2.3660   -4.5783    1.7317 H   0  0  0  0  0  0  0  0  0  0  0  0
   -2.8061   -2.6155    1.4380 H   0  0  0  0  0  0  0  0  0  0  0  0
   -2.6611    0.9088    2.4518 H   0  0  0  0  0  0  0  0  0  0  0  0
   -3.6335   -0.5571    2.5282 H   0  0  0  0  0  0  0  0  0  0  0  0
   -3.1839    2.5646    0.8813 H   0  0  0  0  0  0  0  0  0  0  0  0
   -7.6862    2.3812   -1.7284 H   0  0  0  0  0  0  0  0  0  0  0  0
   -6.4369    2.5325   -2.9851 H   0  0  0  0  0  0  0  0  0  0  0  0
   -5.0297   -1.7442    1.6165 H   0  0  0  0  0  0  0  0  0  0  0  0
   -5.4131   -2.2554   -0.0765 H   0  0  0  0  0  0  0  0  0  0  0  0
   -0.8017    1.0911    1.0137 H   0  0  0  0  0  0  0  0  0  0  0  0
    3.5939    1.0434   -2.7494 H   0  0  0  0  0  0  0  0  0  0  0  0
    5.6742    2.2700   -3.2731 H   0  0  0  0  0  0  0  0  0  0  0  0
    8.3090    4.4969   -3.0670 H   0  0  0  0  0  0  0  0  0  0  0  0
    6.1823    3.2160    0.8590 H   0  0  0  0  0  0  0  0  0  0  0  0
    4.1535    2.0217    1.3906 H   0  0  0  0  0  0  0  0  0  0  0  0
    3.3554   -2.5285    0.6849 H   0  0  0  0  0  0  0  0  0  0  0  0
    2.6579   -4.1793    0.4015 H   0  0  0  0  0  0  0  0  0  0  0  0
    2.0649   -3.0727    1.7649 H   0  0  0  0  0  0  0  0  0  0  0  0
  1  2  1  0
  2  3  1  0
  3  4  2  0
  4  5  1  0
  5  6  1  0
  6  7  1  0
  7  8  2  0
  8  9  1  0
  9 10  2  0
 10 11  1  0
 10 12  1  0
 12 13  2  0
 13 14  1  0
  5 15  2  0
 15 16  1  0
 16 17  1  0
 17 18  3  0
 18 19  1  0
 19 20  2  0
 20 21  1  0
 21 22  2  0
 22 23  1  0
 23 24  2  0
 23 25  1  0
 22 26  1  0
 26 27  2  0
 16 28  2  0
 28 29  1  0
 29 30  1  0
 28  3  1  0
 13  7  1  0
 27 19  1  0
  1 31  1  0
  1 32  1  0
  1 33  1  0
  4 34  1  0
  6 35  1  0
  6 36  1  0
  8 37  1  0
 11 38  1  0
 11 39  1  0
 14 40  1  0
 14 41  1  0
 15 42  1  0
 20 43  1  0
 21 44  1  0
 25 45  1  0
 26 46  1  0
 27 47  1  0
 30 48  1  0
 30 49  1  0
 30 50  1  0
M  END
$$$$
