@<TRIPOS>MOLECULE
*****
 63 67 0 0 0
SMALL
GASTEIGER

@<TRIPOS>ATOM
      1 C          -5.7446   -2.2220   -0.0121 C.3     1  UNL1       -0.0425
      2 C          -5.4237   -1.1884   -1.0679 C.3     1  UNL1        0.0444
      3 N          -4.0022   -1.0599   -1.2886 N.pl3   1  UNL1       -0.3225
      4 C          -3.1610   -0.6631   -0.1964 C.ar    1  UNL1        0.1197
      5 C          -1.8020   -0.5465   -0.4104 C.ar    1  UNL1       -0.0136
      6 C          -0.9460   -0.1690    0.5974 C.ar    1  UNL1       -0.0045
      7 C           0.4862   -0.0206    0.4740 C.ar    1  UNL1        0.0471
      8 S           1.4153    1.4891    0.6870 S.2     1  UNL1       -0.0712
      9 C           3.0234    0.7395    0.3583 C.ar    1  UNL1        0.0827
     10 C           4.3063    1.4909    0.3754 C.3     1  UNL1        0.0101
     11 C           4.9833    1.4206   -0.9518 C.3     1  UNL1       -0.0314
     12 C           6.0970    2.4451   -0.9818 C.3     1  UNL1       -0.0008
     13 N           6.3690    2.9101    0.3825 N.3     1  UNL1       -0.3053
     14 C           7.5844    3.6904    0.4164 C.3     1  UNL1       -0.0128
     15 C           6.5431    1.7836    1.2815 C.3     1  UNL1       -0.0008
     16 C           5.2571    0.9853    1.4335 C.3     1  UNL1       -0.0314
     17 N           2.6911   -0.4812    0.1410 N.ar    1  UNL1       -0.2431
     18 C           1.4735   -0.9042    0.1844 C.ar    1  UNL1        0.0862
     19 C           1.1104   -2.3327   -0.0726 C.ar    1  UNL1        0.0016
     20 C           0.5231   -3.0995    0.9113 C.ar    1  UNL1       -0.0498
     21 C           0.1792   -4.4178    0.6969 C.ar    1  UNL1       -0.0258
     22 C           0.4313   -4.9808   -0.5359 C.ar    1  UNL1        0.1234
     23 F           0.1098   -6.2869   -0.8030 F       1  UNL1       -0.2055
     24 C           1.0184   -4.2408   -1.5435 C.ar    1  UNL1       -0.0258
     25 C           1.3475   -2.9256   -1.2903 C.ar    1  UNL1       -0.0498
     26 C          -1.5427    0.0790    1.8147 C.ar    1  UNL1       -0.0352
     27 C          -2.9033   -0.0436    2.0067 C.ar    1  UNL1        0.0303
     28 N          -3.7147   -0.4125    1.0103 N.ar    1  UNL1       -0.2405
     29 C          -5.9378    0.1467   -0.6974 C.ar    1  UNL1       -0.0275
     30 C          -6.8198    0.3537    0.3447 C.ar    1  UNL1       -0.0568
     31 C          -7.2675    1.6320    0.6455 C.ar    1  UNL1       -0.0614
     32 C          -6.8181    2.6983   -0.1132 C.ar    1  UNL1       -0.0617
     33 C          -5.9347    2.5204   -1.1628 C.ar    1  UNL1       -0.0614
     34 C          -5.5071    1.2283   -1.4362 C.ar    1  UNL1       -0.0568
     35 H          -6.8132   -2.5200   -0.1860 H       1  UNL1        0.0251
     36 H          -5.0502   -3.0769   -0.1624 H       1  UNL1        0.0251
     37 H          -5.6192   -1.8386    1.0043 H       1  UNL1        0.0251
     38 H          -5.8862   -1.5021   -2.0176 H       1  UNL1        0.0545
     39 H          -3.5492   -1.2404   -2.2034 H       1  UNL1        0.1480
     40 H          -1.4032   -0.7560   -1.3876 H       1  UNL1        0.0658
     41 H           4.1225    2.5771    0.6193 H       1  UNL1        0.0370
     42 H           5.4077    0.3962   -1.0601 H       1  UNL1        0.0284
     43 H           4.2635    1.5451   -1.7859 H       1  UNL1        0.0284
     44 H           5.8242    3.3124   -1.5979 H       1  UNL1        0.0427
     45 H           7.0389    1.9971   -1.3707 H       1  UNL1        0.0427
     46 H           8.0976    3.5953    1.3992 H       1  UNL1        0.0391
     47 H           8.2898    3.3372   -0.3566 H       1  UNL1        0.0391
     48 H           7.3594    4.7845    0.2971 H       1  UNL1        0.0391
     49 H           6.8663    2.1941    2.2567 H       1  UNL1        0.0427
     50 H           7.3482    1.1453    0.8171 H       1  UNL1        0.0427
     51 H           4.8059    1.2908    2.4213 H       1  UNL1        0.0284
     52 H           5.4239   -0.0936    1.3864 H       1  UNL1        0.0284
     53 H           0.3149   -2.6773    1.8907 H       1  UNL1        0.0625
     54 H          -0.2834   -5.0404    1.4544 H       1  UNL1        0.0646
     55 H           1.2023   -4.7158   -2.5018 H       1  UNL1        0.0646
     56 H           1.8062   -2.3629   -2.0915 H       1  UNL1        0.0625
     57 H          -0.9693    0.3858    2.6923 H       1  UNL1        0.0639
     58 H          -3.3681    0.1536    2.9704 H       1  UNL1        0.0830
     59 H          -7.1607   -0.4913    0.9272 H       1  UNL1        0.0621
     60 H          -7.9576    1.8422    1.4511 H       1  UNL1        0.0618
     61 H          -7.1552    3.6855    0.1089 H       1  UNL1        0.0618
     62 H          -5.5729    3.3408   -1.7667 H       1  UNL1        0.0618
     63 H          -4.8069    1.1143   -2.2733 H       1  UNL1        0.0621
@<TRIPOS>BOND
     1     1     2    1
     2     2     3    1
     3     3     4    1
     4     4     5   ar
     5     5     6   ar
     6     6     7    1
     7     7     8   ar
     8     8     9   ar
     9     9    10    1
    10    10    11    1
    11    11    12    1
    12    12    13    1
    13    13    14    1
    14    13    15    1
    15    15    16    1
    16     9    17   ar
    17    17    18   ar
    18    18    19    1
    19    19    20   ar
    20    20    21   ar
    21    21    22   ar
    22    22    23    1
    23    22    24   ar
    24    24    25   ar
    25     6    26   ar
    26    26    27   ar
    27    27    28   ar
    28     2    29    1
    29    29    30   ar
    30    30    31   ar
    31    31    32   ar
    32    32    33   ar
    33    33    34   ar
    34    28     4   ar
    35    34    29   ar
    36    18     7   ar
    37    25    19   ar
    38    16    10    1
    39     1    35    1
    40     1    36    1
    41     1    37    1
    42     2    38    1
    43     3    39    1
    44     5    40    1
    45    10    41    1
    46    11    42    1
    47    11    43    1
    48    12    44    1
    49    12    45    1
    50    14    46    1
    51    14    47    1
    52    14    48    1
    53    15    49    1
    54    15    50    1
    55    16    51    1
    56    16    52    1
    57    20    53    1
    58    21    54    1
    59    24    55    1
    60    25    56    1
    61    26    57    1
    62    27    58    1
    63    30    59    1
    64    31    60    1
    65    32    61    1
    66    33    62    1
    67    34    63    1
