
     RDKit          3D

 63 67  0  0  0  0  0  0  0  0999 V2000
   -5.7446   -2.2220   -0.0121 C   0  0  0  0  0  0  0  0  0  0  0  0
   -5.4237   -1.1884   -1.0679 C   0  0  2  0  0  0  0  0  0  0  0  0
   -4.0022   -1.0599   -1.2886 N   0  0  0  0  0  0  0  0  0  0  0  0
   -3.1610   -0.6631   -0.1964 C   0  0  0  0  0  0  0  0  0  0  0  0
   -1.8020   -0.5465   -0.4104 C   0  0  0  0  0  0  0  0  0  0  0  0
   -0.9460   -0.1690    0.5974 C   0  0  0  0  0  0  0  0  0  0  0  0
    0.4862   -0.0206    0.4740 C   0  0  0  0  0  0  0  0  0  0  0  0
    1.4153    1.4891    0.6870 S   0  0  0  0  0  0  0  0  0  0  0  0
    3.0234    0.7395    0.3583 C   0  0  0  0  0  0  0  0  0  0  0  0
    4.3063    1.4909    0.3754 C   0  0  0  0  0  0  0  0  0  0  0  0
    4.9833    1.4206   -0.9518 C   0  0  0  0  0  0  0  0  0  0  0  0
    6.0970    2.4451   -0.9818 C   0  0  0  0  0  0  0  0  0  0  0  0
    6.3690    2.9101    0.3825 N   0  0  0  0  0  0  0  0  0  0  0  0
    7.5844    3.6904    0.4164 C   0  0  0  0  0  0  0  0  0  0  0  0
    6.5431    1.7836    1.2815 C   0  0  0  0  0  0  0  0  0  0  0  0
    5.2571    0.9853    1.4335 C   0  0  0  0  0  0  0  0  0  0  0  0
    2.6911   -0.4812    0.1410 N   0  0  0  0  0  0  0  0  0  0  0  0
    1.4735   -0.9042    0.1844 C   0  0  0  0  0  0  0  0  0  0  0  0
    1.1104   -2.3327   -0.0726 C   0  0  0  0  0  0  0  0  0  0  0  0
    0.5231   -3.0995    0.9113 C   0  0  0  0  0  0  0  0  0  0  0  0
    0.1792   -4.4178    0.6969 C   0  0  0  0  0  0  0  0  0  0  0  0
    0.4313   -4.9808   -0.5359 C   0  0  0  0  0  0  0  0  0  0  0  0
    0.1098   -6.2869   -0.8030 F   0  0  0  0  0  0  0  0  0  0  0  0
    1.0184   -4.2408   -1.5435 C   0  0  0  0  0  0  0  0  0  0  0  0
    1.3475   -2.9256   -1.2903 C   0  0  0  0  0  0  0  0  0  0  0  0
   -1.5427    0.0790    1.8147 C   0  0  0  0  0  0  0  0  0  0  0  0
   -2.9033   -0.0436    2.0067 C   0  0  0  0  0  0  0  0  0  0  0  0
   -3.7147   -0.4125    1.0103 N   0  0  0  0  0  0  0  0  0  0  0  0
   -5.9378    0.1467   -0.6974 C   0  0  0  0  0  0  0  0  0  0  0  0
   -6.8198    0.3537    0.3447 C   0  0  0  0  0  0  0  0  0  0  0  0
   -7.2675    1.6320    0.6455 C   0  0  0  0  0  0  0  0  0  0  0  0
   -6.8181    2.6983   -0.1132 C   0  0  0  0  0  0  0  0  0  0  0  0
   -5.9347    2.5204   -1.1628 C   0  0  0  0  0  0  0  0  0  0  0  0
   -5.5071    1.2283   -1.4362 C   0  0  0  0  0  0  0  0  0  0  0  0
   -6.8132   -2.5200   -0.1860 H   0  0  0  0  0  0  0  0  0  0  0  0
   -5.0502   -3.0769   -0.1624 H   0  0  0  0  0  0  0  0  0  0  0  0
   -5.6192   -1.8386    1.0043 H   0  0  0  0  0  0  0  0  0  0  0  0
   -5.8862   -1.5021   -2.0176 H   0  0  0  0  0  0  0  0  0  0  0  0
   -3.5492   -1.2404   -2.2034 H   0  0  0  0  0  0  0  0  0  0  0  0
   -1.4032   -0.7560   -1.3876 H   0  0  0  0  0  0  0  0  0  0  0  0
    4.1225    2.5771    0.6193 H   0  0  0  0  0  0  0  0  0  0  0  0
    5.4077    0.3962   -1.0601 H   0  0  0  0  0  0  0  0  0  0  0  0
    4.2635    1.5451   -1.7859 H   0  0  0  0  0  0  0  0  0  0  0  0
    5.8242    3.3124   -1.5979 H   0  0  0  0  0  0  0  0  0  0  0  0
    7.0389    1.9971   -1.3707 H   0  0  0  0  0  0  0  0  0  0  0  0
    8.0976    3.5953    1.3992 H   0  0  0  0  0  0  0  0  0  0  0  0
    8.2898    3.3372   -0.3566 H   0  0  0  0  0  0  0  0  0  0  0  0
    7.3594    4.7845    0.2971 H   0  0  0  0  0  0  0  0  0  0  0  0
    6.8663    2.1941    2.2567 H   0  0  0  0  0  0  0  0  0  0  0  0
    7.3482    1.1453    0.8171 H   0  0  0  0  0  0  0  0  0  0  0  0
    4.8059    1.2908    2.4213 H   0  0  0  0  0  0  0  0  0  0  0  0
    5.4239   -0.0936    1.3864 H   0  0  0  0  0  0  0  0  0  0  0  0
    0.3149   -2.6773    1.8907 H   0  0  0  0  0  0  0  0  0  0  0  0
   -0.2834   -5.0404    1.4544 H   0  0  0  0  0  0  0  0  0  0  0  0
    1.2023   -4.7158   -2.5018 H   0  0  0  0  0  0  0  0  0  0  0  0
    1.8062   -2.3629   -2.0915 H   0  0  0  0  0  0  0  0  0  0  0  0
   -0.9693    0.3858    2.6923 H   0  0  0  0  0  0  0  0  0  0  0  0
   -3.3681    0.1536    2.9704 H   0  0  0  0  0  0  0  0  0  0  0  0
   -7.1607   -0.4913    0.9272 H   0  0  0  0  0  0  0  0  0  0  0  0
   -7.9576    1.8422    1.4511 H   0  0  0  0  0  0  0  0  0  0  0  0
   -7.1552    3.6855    0.1089 H   0  0  0  0  0  0  0  0  0  0  0  0
   -5.5729    3.3408   -1.7667 H   0  0  0  0  0  0  0  0  0  0  0  0
   -4.8069    1.1143   -2.2733 H   0  0  0  0  0  0  0  0  0  0  0  0
  1  2  1  0
  2  3  1  0
  3  4  1  0
  4  5  2  0
  5  6  1  0
  6  7  1  0
  7  8  1  0
  8  9  1  0
  9 10  1  0
 10 11  1  0
 11 12  1  0
 12 13  1  0
 13 14  1  0
 13 15  1  0
 15 16  1  0
  9 17  2  0
 17 18  1  0
 18 19  1  0
 19 20  2  0
 20 21  1  0
 21 22  2  0
 22 23  1  0
 22 24  1  0
 24 25  2  0
  6 26  2  0
 26 27  1  0
 27 28  2  0
  2 29  1  0
 29 30  2  0
 30 31  1  0
 31 32  2  0
 32 33  1  0
 33 34  2  0
 28  4  1  0
 34 29  1  0
 18  7  2  0
 25 19  1  0
 16 10  1  0
  1 35  1  0
  1 36  1  0
  1 37  1  0
  2 38  1  6
  3 39  1  0
  5 40  1  0
 10 41  1  0
 11 42  1  0
 11 43  1  0
 12 44  1  0
 12 45  1  0
 14 46  1  0
 14 47  1  0
 14 48  1  0
 15 49  1  0
 15 50  1  0
 16 51  1  0
 16 52  1  0
 20 53  1  0
 21 54  1  0
 24 55  1  0
 25 56  1  0
 26 57  1  0
 27 58  1  0
 30 59  1  0
 31 60  1  0
 32 61  1  0
 33 62  1  0
 34 63  1  0
M  END
$$$$
