@<TRIPOS>MOLECULE
*****
 55 56 0 0 0
SMALL
GASTEIGER

@<TRIPOS>ATOM
      1 C          -2.6942   -3.1462   -2.7209 C.3     1  UNL1       -0.0650
      2 C          -2.7805   -1.8865   -1.8933 C.3     1  UNL1       -0.0517
      3 C          -3.7345   -2.0336   -0.7321 C.3     1  UNL1       -0.0210
      4 C          -3.7322   -0.7280   -0.0000 C.ar    1  UNL1        0.0363
      5 C          -2.6954   -0.3297    0.8535 C.ar    1  UNL1        0.1272
      6 O          -1.6959   -1.2299    0.9473 O.3     1  UNL1       -0.4915
      7 C          -0.5172   -1.2812    1.6324 C.3     1  UNL1        0.0927
      8 C           0.5148   -0.2296    1.3673 C.3     1  UNL1        0.0157
      9 C           0.8889   -0.2968   -0.0958 C.3     1  UNL1        0.0927
     10 O           1.8369    0.5949   -0.5321 O.3     1  UNL1       -0.4918
     11 C           3.1409    0.7405   -0.1696 C.ar    1  UNL1        0.1207
     12 C           3.6379    1.8148   -0.9158 C.ar    1  UNL1       -0.0165
     13 C           4.9647    2.2515   -0.7990 C.ar    1  UNL1       -0.0165
     14 C           5.8179    1.5941    0.0900 C.ar    1  UNL1        0.1215
     15 O           7.1279    1.9528    0.2690 O.3     1  UNL1       -0.4808
     16 C           8.0410    1.3322    1.1447 C.3     1  UNL1        0.1857
     17 C           8.1890   -0.1084    0.7490 C.2     1  UNL1        0.3427
     18 O           7.8006   -1.0981   -0.1363 O.3     1  UNL1       -0.4783
     19 O           8.9803   -0.7478    1.4807 O.2     1  UNL1       -0.2472
     20 C           5.3433    0.5433    0.8239 C.ar    1  UNL1       -0.0165
     21 C           4.0380    0.1439    0.6825 C.ar    1  UNL1       -0.0165
     22 C          -2.8665    0.8997    1.4484 C.ar    1  UNL1       -0.0188
     23 C          -3.9397    1.7437    1.2777 C.ar    1  UNL1       -0.0443
     24 C          -4.9329    1.3058    0.4275 C.ar    1  UNL1        0.0590
     25 C          -6.0715    2.2180    0.2563 C.2     1  UNL1        0.1636
     26 C          -7.1771    1.8048   -0.6469 C.3     1  UNL1       -0.0013
     27 O          -6.1564    3.3492    0.8468 O.2     1  UNL1       -0.2922
     28 C          -4.8228    0.0960   -0.1927 C.ar    1  UNL1        0.1339
     29 O          -5.8607   -0.3104   -1.0520 O.3     1  UNL1       -0.5057
     30 H          -3.2204   -2.9822   -3.6900 H       1  UNL1        0.0230
     31 H          -1.6078   -3.2887   -2.9766 H       1  UNL1        0.0230
     32 H          -3.0792   -4.0464   -2.2161 H       1  UNL1        0.0230
     33 H          -3.0465   -1.0347   -2.5486 H       1  UNL1        0.0266
     34 H          -1.7944   -1.6363   -1.4544 H       1  UNL1        0.0266
     35 H          -3.3518   -2.8482   -0.0466 H       1  UNL1        0.0315
     36 H          -4.7593   -2.2734   -1.0725 H       1  UNL1        0.0315
     37 H          -0.0164   -2.2773    1.4985 H       1  UNL1        0.0697
     38 H          -0.7356   -1.2506    2.7385 H       1  UNL1        0.0697
     39 H           1.4124   -0.4616    1.9730 H       1  UNL1        0.0331
     40 H           0.2020    0.8038    1.6385 H       1  UNL1        0.0331
     41 H          -0.0524   -0.2134   -0.6915 H       1  UNL1        0.0697
     42 H           1.2718   -1.3468   -0.2781 H       1  UNL1        0.0697
     43 H           3.1548    2.4616   -1.6573 H       1  UNL1        0.0655
     44 H           5.4440    3.0561   -1.3181 H       1  UNL1        0.0655
     45 H           9.0390    1.8092    1.0907 H       1  UNL1        0.0815
     46 H           7.6710    1.3609    2.1877 H       1  UNL1        0.0815
     47 H           8.4018   -1.4616   -0.8730 H       1  UNL1        0.2952
     48 H           5.8662   -0.0541    1.5390 H       1  UNL1        0.0655
     49 H           3.5793   -0.6707    1.2030 H       1  UNL1        0.0655
     50 H          -2.0708    1.2021    2.1091 H       1  UNL1        0.0654
     51 H          -3.9643    2.6914    1.8010 H       1  UNL1        0.0627
     52 H          -6.8856    1.6854   -1.6961 H       1  UNL1        0.0309
     53 H          -7.6583    0.9032   -0.1915 H       1  UNL1        0.0309
     54 H          -7.9810    2.5746   -0.6415 H       1  UNL1        0.0309
     55 H          -6.4628   -1.0895   -0.8375 H       1  UNL1        0.2922
@<TRIPOS>BOND
     1     1     2    1
     2     2     3    1
     3     3     4    1
     4     4     5   ar
     5     5     6    1
     6     6     7    1
     7     7     8    1
     8     8     9    1
     9     9    10    1
    10    10    11    1
    11    11    12   ar
    12    12    13   ar
    13    13    14   ar
    14    14    15    1
    15    15    16    1
    16    16    17    1
    17    17    18    1
    18    17    19    2
    19    14    20   ar
    20    20    21   ar
    21     5    22   ar
    22    22    23   ar
    23    23    24   ar
    24    24    25    1
    25    25    26    1
    26    25    27    2
    27    24    28   ar
    28    28    29    1
    29    28     4   ar
    30    21    11   ar
    31     1    30    1
    32     1    31    1
    33     1    32    1
    34     2    33    1
    35     2    34    1
    36     3    35    1
    37     3    36    1
    38     7    37    1
    39     7    38    1
    40     8    39    1
    41     8    40    1
    42     9    41    1
    43     9    42    1
    44    12    43    1
    45    13    44    1
    46    16    45    1
    47    16    46    1
    48    18    47    1
    49    20    48    1
    50    21    49    1
    51    22    50    1
    52    23    51    1
    53    26    52    1
    54    26    53    1
    55    26    54    1
    56    29    55    1
