
     RDKit          3D

 55 56  0  0  0  0  0  0  0  0999 V2000
   -2.6942   -3.1462   -2.7209 C   0  0  0  0  0  0  0  0  0  0  0  0
   -2.7805   -1.8865   -1.8933 C   0  0  0  0  0  0  0  0  0  0  0  0
   -3.7345   -2.0336   -0.7321 C   0  0  0  0  0  0  0  0  0  0  0  0
   -3.7322   -0.7280   -0.0000 C   0  0  0  0  0  0  0  0  0  0  0  0
   -2.6954   -0.3297    0.8535 C   0  0  0  0  0  0  0  0  0  0  0  0
   -1.6959   -1.2299    0.9473 O   0  0  0  0  0  0  0  0  0  0  0  0
   -0.5172   -1.2812    1.6324 C   0  0  0  0  0  0  0  0  0  0  0  0
    0.5148   -0.2296    1.3673 C   0  0  0  0  0  0  0  0  0  0  0  0
    0.8889   -0.2968   -0.0958 C   0  0  0  0  0  0  0  0  0  0  0  0
    1.8369    0.5949   -0.5321 O   0  0  0  0  0  0  0  0  0  0  0  0
    3.1409    0.7405   -0.1696 C   0  0  0  0  0  0  0  0  0  0  0  0
    3.6379    1.8148   -0.9158 C   0  0  0  0  0  0  0  0  0  0  0  0
    4.9647    2.2515   -0.7990 C   0  0  0  0  0  0  0  0  0  0  0  0
    5.8179    1.5941    0.0900 C   0  0  0  0  0  0  0  0  0  0  0  0
    7.1279    1.9528    0.2690 O   0  0  0  0  0  0  0  0  0  0  0  0
    8.0410    1.3322    1.1447 C   0  0  0  0  0  0  0  0  0  0  0  0
    8.1890   -0.1084    0.7490 C   0  0  0  0  0  0  0  0  0  0  0  0
    7.8006   -1.0981   -0.1363 O   0  0  0  0  0  0  0  0  0  0  0  0
    8.9803   -0.7478    1.4807 O   0  0  0  0  0  0  0  0  0  0  0  0
    5.3433    0.5433    0.8239 C   0  0  0  0  0  0  0  0  0  0  0  0
    4.0380    0.1439    0.6825 C   0  0  0  0  0  0  0  0  0  0  0  0
   -2.8665    0.8997    1.4484 C   0  0  0  0  0  0  0  0  0  0  0  0
   -3.9397    1.7437    1.2777 C   0  0  0  0  0  0  0  0  0  0  0  0
   -4.9329    1.3058    0.4275 C   0  0  0  0  0  0  0  0  0  0  0  0
   -6.0715    2.2180    0.2563 C   0  0  0  0  0  0  0  0  0  0  0  0
   -7.1771    1.8048   -0.6469 C   0  0  0  0  0  0  0  0  0  0  0  0
   -6.1564    3.3492    0.8468 O   0  0  0  0  0  0  0  0  0  0  0  0
   -4.8228    0.0960   -0.1927 C   0  0  0  0  0  0  0  0  0  0  0  0
   -5.8607   -0.3104   -1.0520 O   0  0  0  0  0  0  0  0  0  0  0  0
   -3.2204   -2.9822   -3.6900 H   0  0  0  0  0  0  0  0  0  0  0  0
   -1.6078   -3.2887   -2.9766 H   0  0  0  0  0  0  0  0  0  0  0  0
   -3.0792   -4.0464   -2.2161 H   0  0  0  0  0  0  0  0  0  0  0  0
   -3.0465   -1.0347   -2.5486 H   0  0  0  0  0  0  0  0  0  0  0  0
   -1.7944   -1.6363   -1.4544 H   0  0  0  0  0  0  0  0  0  0  0  0
   -3.3518   -2.8482   -0.0466 H   0  0  0  0  0  0  0  0  0  0  0  0
   -4.7593   -2.2734   -1.0725 H   0  0  0  0  0  0  0  0  0  0  0  0
   -0.0164   -2.2773    1.4985 H   0  0  0  0  0  0  0  0  0  0  0  0
   -0.7356   -1.2506    2.7385 H   0  0  0  0  0  0  0  0  0  0  0  0
    1.4124   -0.4616    1.9730 H   0  0  0  0  0  0  0  0  0  0  0  0
    0.2020    0.8038    1.6385 H   0  0  0  0  0  0  0  0  0  0  0  0
   -0.0524   -0.2134   -0.6915 H   0  0  0  0  0  0  0  0  0  0  0  0
    1.2718   -1.3468   -0.2781 H   0  0  0  0  0  0  0  0  0  0  0  0
    3.1548    2.4616   -1.6573 H   0  0  0  0  0  0  0  0  0  0  0  0
    5.4440    3.0561   -1.3181 H   0  0  0  0  0  0  0  0  0  0  0  0
    9.0390    1.8092    1.0907 H   0  0  0  0  0  0  0  0  0  0  0  0
    7.6710    1.3609    2.1877 H   0  0  0  0  0  0  0  0  0  0  0  0
    8.4018   -1.4616   -0.8730 H   0  0  0  0  0  0  0  0  0  0  0  0
    5.8662   -0.0541    1.5390 H   0  0  0  0  0  0  0  0  0  0  0  0
    3.5793   -0.6707    1.2030 H   0  0  0  0  0  0  0  0  0  0  0  0
   -2.0708    1.2021    2.1091 H   0  0  0  0  0  0  0  0  0  0  0  0
   -3.9643    2.6914    1.8010 H   0  0  0  0  0  0  0  0  0  0  0  0
   -6.8856    1.6854   -1.6961 H   0  0  0  0  0  0  0  0  0  0  0  0
   -7.6583    0.9032   -0.1915 H   0  0  0  0  0  0  0  0  0  0  0  0
   -7.9810    2.5746   -0.6415 H   0  0  0  0  0  0  0  0  0  0  0  0
   -6.4628   -1.0895   -0.8375 H   0  0  0  0  0  0  0  0  0  0  0  0
  1  2  1  0
  2  3  1  0
  3  4  1  0
  4  5  2  0
  5  6  1  0
  6  7  1  0
  7  8  1  0
  8  9  1  0
  9 10  1  0
 10 11  1  0
 11 12  2  0
 12 13  1  0
 13 14  2  0
 14 15  1  0
 15 16  1  0
 16 17  1  0
 17 18  1  0
 17 19  2  0
 14 20  1  0
 20 21  2  0
  5 22  1  0
 22 23  2  0
 23 24  1  0
 24 25  1  0
 25 26  1  0
 25 27  2  0
 24 28  2  0
 28 29  1  0
 28  4  1  0
 21 11  1  0
  1 30  1  0
  1 31  1  0
  1 32  1  0
  2 33  1  0
  2 34  1  0
  3 35  1  0
  3 36  1  0
  7 37  1  0
  7 38  1  0
  8 39  1  0
  8 40  1  0
  9 41  1  0
  9 42  1  0
 12 43  1  0
 13 44  1  0
 16 45  1  0
 16 46  1  0
 18 47  1  0
 20 48  1  0
 21 49  1  0
 22 50  1  0
 23 51  1  0
 26 52  1  0
 26 53  1  0
 26 54  1  0
 29 55  1  0
M  END
$$$$
