@<TRIPOS>MOLECULE
*****
 42 45 0 0 0
SMALL
GASTEIGER

@<TRIPOS>ATOM
      1 N          -4.2322   -2.5362   -2.3732 N.1     1  UNL1       -0.1892
      2 C          -3.7998   -2.4069   -1.3147 C.1     1  UNL1        0.1208
      3 C          -3.2472   -2.2600    0.0242 C.ar    1  UNL1        0.1618
      4 C          -3.7861   -2.7646    1.1835 C.ar    1  UNL1        0.0659
      5 N          -3.0232   -2.4416    2.2333 N.ar    1  UNL1       -0.2333
      6 C          -1.9787   -1.7204    1.7541 C.ar    1  UNL1        0.1555
      7 C          -0.8911   -1.1174    2.3199 C.ar    1  UNL1       -0.0153
      8 C           0.0013   -0.4395    1.5271 C.ar    1  UNL1       -0.0290
      9 C          -0.1493   -0.3364    0.1622 C.ar    1  UNL1        0.1103
     10 C           0.8047    0.3859   -0.6623 C.ar    1  UNL1        0.0966
     11 C           0.5330    1.6601   -1.1826 C.ar    1  UNL1        0.0983
     12 C          -0.6977    2.4155   -0.9714 C.ar    1  UNL1        0.0040
     13 C          -1.4540    2.7993   -2.0580 C.ar    1  UNL1       -0.0497
     14 C          -2.6371    3.5133   -1.9503 C.ar    1  UNL1       -0.0244
     15 C          -3.0702    3.8516   -0.6858 C.ar    1  UNL1        0.1417
     16 F          -4.2277    4.5512   -0.5746 F       1  UNL1       -0.2040
     17 C          -2.3366    3.4838    0.4422 C.ar    1  UNL1        0.0767
     18 CL         -2.9390    3.9430    2.0164 Cl      1  UNL1       -0.0806
     19 C          -1.1656    2.7735    0.2760 C.ar    1  UNL1       -0.0313
     20 N           1.5594    2.0736   -1.9052 N.ar    1  UNL1       -0.2351
     21 C           2.4739    1.1015   -1.8595 C.ar    1  UNL1        0.0971
     22 N           2.0279    0.0561   -1.1004 N.ar    1  UNL1       -0.3283
     23 C           2.7561   -1.1662   -0.8235 C.3     1  UNL1        0.0268
     24 C           3.6246   -0.9251    0.3857 C.3     1  UNL1       -0.0116
     25 C           4.4388   -2.1464    0.7615 C.3     1  UNL1        0.0458
     26 O           3.6582   -3.2372    1.0554 O.3     1  UNL1       -0.3949
     27 N          -1.2440   -0.9516   -0.3470 N.ar    1  UNL1       -0.1623
     28 N          -2.1231   -1.6135    0.3984 N.ar    1  UNL1       -0.2023
     29 H          -4.7073   -3.3496    1.2657 H       1  UNL1        0.0859
     30 H          -0.7466   -1.1811    3.3849 H       1  UNL1        0.0655
     31 H           0.8710    0.0576    1.9664 H       1  UNL1        0.0641
     32 H          -1.0971    2.5255   -3.0290 H       1  UNL1        0.0625
     33 H          -3.2176    3.8049   -2.8391 H       1  UNL1        0.0647
     34 H          -0.5756    2.4752    1.1313 H       1  UNL1        0.0640
     35 H           3.4322    1.1275   -2.3481 H       1  UNL1        0.1029
     36 H           2.0512   -2.0249   -0.6566 H       1  UNL1        0.0493
     37 H           3.3833   -1.4251   -1.7280 H       1  UNL1        0.0493
     38 H           2.9915   -0.5490    1.2018 H       1  UNL1        0.0304
     39 H           4.3224   -0.0878    0.0771 H       1  UNL1        0.0304
     40 H           5.2009   -2.2998   -0.0221 H       1  UNL1        0.0558
     41 H           5.0294   -1.8149    1.6684 H       1  UNL1        0.0558
     42 H           4.1870   -3.8040    1.6972 H       1  UNL1        0.2094
@<TRIPOS>BOND
     1     1     2    3
     2     2     3    1
     3     3     4   ar
     4     4     5   ar
     5     5     6   ar
     6     6     7   ar
     7     7     8   ar
     8     8     9   ar
     9     9    10    1
    10    10    11   ar
    11    11    12    1
    12    12    13   ar
    13    13    14   ar
    14    14    15   ar
    15    15    16    1
    16    15    17   ar
    17    17    18    1
    18    17    19   ar
    19    11    20   ar
    20    20    21   ar
    21    21    22   ar
    22    22    23    1
    23    23    24    1
    24    24    25    1
    25    25    26    1
    26     9    27   ar
    27    27    28   ar
    28    28     3   ar
    29    28     6   ar
    30    22    10   ar
    31    19    12   ar
    32     4    29    1
    33     7    30    1
    34     8    31    1
    35    13    32    1
    36    14    33    1
    37    19    34    1
    38    21    35    1
    39    23    36    1
    40    23    37    1
    41    24    38    1
    42    24    39    1
    43    25    40    1
    44    25    41    1
    45    26    42    1
