
     RDKit          3D

 42 45  0  0  0  0  0  0  0  0999 V2000
   -4.2322   -2.5362   -2.3732 N   0  0  0  0  0  0  0  0  0  0  0  0
   -3.7998   -2.4069   -1.3147 C   0  0  0  0  0  0  0  0  0  0  0  0
   -3.2472   -2.2600    0.0242 C   0  0  0  0  0  0  0  0  0  0  0  0
   -3.7861   -2.7646    1.1835 C   0  0  0  0  0  0  0  0  0  0  0  0
   -3.0232   -2.4416    2.2333 N   0  0  0  0  0  0  0  0  0  0  0  0
   -1.9787   -1.7204    1.7541 C   0  0  0  0  0  0  0  0  0  0  0  0
   -0.8911   -1.1174    2.3199 C   0  0  0  0  0  0  0  0  0  0  0  0
    0.0013   -0.4395    1.5271 C   0  0  0  0  0  0  0  0  0  0  0  0
   -0.1493   -0.3364    0.1622 C   0  0  0  0  0  0  0  0  0  0  0  0
    0.8047    0.3859   -0.6623 C   0  0  0  0  0  0  0  0  0  0  0  0
    0.5330    1.6601   -1.1826 C   0  0  0  0  0  0  0  0  0  0  0  0
   -0.6977    2.4155   -0.9714 C   0  0  0  0  0  0  0  0  0  0  0  0
   -1.4540    2.7993   -2.0580 C   0  0  0  0  0  0  0  0  0  0  0  0
   -2.6371    3.5133   -1.9503 C   0  0  0  0  0  0  0  0  0  0  0  0
   -3.0702    3.8516   -0.6858 C   0  0  0  0  0  0  0  0  0  0  0  0
   -4.2277    4.5512   -0.5746 F   0  0  0  0  0  0  0  0  0  0  0  0
   -2.3366    3.4838    0.4422 C   0  0  0  0  0  0  0  0  0  0  0  0
   -2.9390    3.9430    2.0164 Cl  0  0  0  0  0  0  0  0  0  0  0  0
   -1.1656    2.7735    0.2760 C   0  0  0  0  0  0  0  0  0  0  0  0
    1.5594    2.0736   -1.9052 N   0  0  0  0  0  0  0  0  0  0  0  0
    2.4739    1.1015   -1.8595 C   0  0  0  0  0  0  0  0  0  0  0  0
    2.0279    0.0561   -1.1004 N   0  0  0  0  0  0  0  0  0  0  0  0
    2.7561   -1.1662   -0.8235 C   0  0  0  0  0  0  0  0  0  0  0  0
    3.6246   -0.9251    0.3857 C   0  0  0  0  0  0  0  0  0  0  0  0
    4.4388   -2.1464    0.7615 C   0  0  0  0  0  0  0  0  0  0  0  0
    3.6582   -3.2372    1.0554 O   0  0  0  0  0  0  0  0  0  0  0  0
   -1.2440   -0.9516   -0.3470 N   0  0  0  0  0  0  0  0  0  0  0  0
   -2.1231   -1.6135    0.3984 N   0  0  0  0  0  0  0  0  0  0  0  0
   -4.7073   -3.3496    1.2657 H   0  0  0  0  0  0  0  0  0  0  0  0
   -0.7466   -1.1811    3.3849 H   0  0  0  0  0  0  0  0  0  0  0  0
    0.8710    0.0576    1.9664 H   0  0  0  0  0  0  0  0  0  0  0  0
   -1.0971    2.5255   -3.0290 H   0  0  0  0  0  0  0  0  0  0  0  0
   -3.2176    3.8049   -2.8391 H   0  0  0  0  0  0  0  0  0  0  0  0
   -0.5756    2.4752    1.1313 H   0  0  0  0  0  0  0  0  0  0  0  0
    3.4322    1.1275   -2.3481 H   0  0  0  0  0  0  0  0  0  0  0  0
    2.0512   -2.0249   -0.6566 H   0  0  0  0  0  0  0  0  0  0  0  0
    3.3833   -1.4251   -1.7280 H   0  0  0  0  0  0  0  0  0  0  0  0
    2.9915   -0.5490    1.2018 H   0  0  0  0  0  0  0  0  0  0  0  0
    4.3224   -0.0878    0.0771 H   0  0  0  0  0  0  0  0  0  0  0  0
    5.2009   -2.2998   -0.0221 H   0  0  0  0  0  0  0  0  0  0  0  0
    5.0294   -1.8149    1.6684 H   0  0  0  0  0  0  0  0  0  0  0  0
    4.1870   -3.8040    1.6972 H   0  0  0  0  0  0  0  0  0  0  0  0
  1  2  3  0
  2  3  1  0
  3  4  2  0
  4  5  1  0
  5  6  2  0
  6  7  1  0
  7  8  2  0
  8  9  1  0
  9 10  1  0
 10 11  2  0
 11 12  1  0
 12 13  2  0
 13 14  1  0
 14 15  2  0
 15 16  1  0
 15 17  1  0
 17 18  1  0
 17 19  2  0
 11 20  1  0
 20 21  2  0
 21 22  1  0
 22 23  1  0
 23 24  1  0
 24 25  1  0
 25 26  1  0
  9 27  2  0
 27 28  1  0
 28  3  1  0
 28  6  1  0
 22 10  1  0
 19 12  1  0
  4 29  1  0
  7 30  1  0
  8 31  1  0
 13 32  1  0
 14 33  1  0
 19 34  1  0
 21 35  1  0
 23 36  1  0
 23 37  1  0
 24 38  1  0
 24 39  1  0
 25 40  1  0
 25 41  1  0
 26 42  1  0
M  END
$$$$
