@<TRIPOS>MOLECULE
*****
 49 52 0 0 0
SMALL
GASTEIGER

@<TRIPOS>ATOM
      1 C          -3.1140   -0.3489    1.7158 C.3     1  UNL1        0.0434
      2 N          -3.1692    1.0679    1.9526 N.3     1  UNL1       -0.3242
      3 C          -1.8966   -1.0654    2.1392 C.3     1  UNL1        0.1050
      4 O          -0.6552   -0.7946    1.6614 O.3     1  UNL1       -0.4889
      5 C          -0.1419   -0.8601    0.3319 C.ar    1  UNL1        0.1392
      6 C           1.1830   -0.4202    0.8434 C.ar    1  UNL1       -0.0093
      7 C           2.2459   -0.2636   -0.0541 C.ar    1  UNL1        0.0037
      8 C           1.8907   -0.5727   -1.4263 C.ar    1  UNL1        0.0355
      9 N           0.6669   -0.9529   -1.7366 N.ar    1  UNL1       -0.2590
     10 C          -0.3439   -1.1018   -0.8882 C.ar    1  UNL1        0.0692
     11 C           3.6087    0.1556    0.0696 C.ar    1  UNL1       -0.0156
     12 C           4.3611    0.4137    1.1113 C.ar    1  UNL1       -0.0520
     13 C           5.6363    0.7935    1.4273 C.ar    1  UNL1       -0.0357
     14 C           6.2740    0.9436    0.1673 C.ar    1  UNL1        0.0660
     15 N           7.5661    1.3342   -0.1082 N.ar    1  UNL1       -0.2767
     16 N           7.7616    1.3568   -1.4589 N.ar    1  UNL1       -0.1780
     17 C           6.6299    0.9909   -2.0800 C.ar    1  UNL1        0.0674
     18 C           6.3307    0.8863   -3.5540 C.3     1  UNL1       -0.0200
     19 C           5.7030    0.7337   -1.1041 C.ar    1  UNL1        0.0230
     20 C           4.4116    0.3512   -1.0582 C.ar    1  UNL1       -0.0430
     21 C          -3.6406   -0.6882    0.3564 C.3     1  UNL1       -0.0093
     22 C          -5.0754   -0.3338    0.2053 C.ar    1  UNL1       -0.0458
     23 C          -5.7325    0.7846   -0.2648 C.ar    1  UNL1       -0.0585
     24 C          -7.1019    0.8298   -0.2362 C.ar    1  UNL1       -0.0615
     25 C          -7.8961   -0.1919    0.2434 C.ar    1  UNL1       -0.0617
     26 C          -7.2871   -1.3466    0.7267 C.ar    1  UNL1       -0.0615
     27 C          -5.8756   -1.3559    0.6833 C.ar    1  UNL1       -0.0585
     28 H          -3.9914   -0.7767    2.4058 H       1  UNL1        0.0495
     29 H          -2.9005    1.3691    2.8979 H       1  UNL1        0.1186
     30 H          -3.8522    1.5948    1.4412 H       1  UNL1        0.1186
     31 H          -2.1461   -2.1678    2.2227 H       1  UNL1        0.0712
     32 H          -1.8029   -0.7432    3.2768 H       1  UNL1        0.0712
     33 H           1.7146   -0.1489    1.7738 H       1  UNL1        0.0661
     34 H           2.3895   -0.5702   -2.3703 H       1  UNL1        0.0836
     35 H          -1.3473   -1.4167   -1.0524 H       1  UNL1        0.0867
     36 H           3.8295    0.3026    2.0994 H       1  UNL1        0.0624
     37 H           6.1177    0.9648    2.3504 H       1  UNL1        0.0639
     38 H           8.3555    1.5856    0.5124 H       1  UNL1        0.1889
     39 H           5.2204    0.9194   -3.6842 H       1  UNL1        0.0293
     40 H           6.8182    1.7062   -4.1045 H       1  UNL1        0.0293
     41 H           6.6945   -0.0726   -3.9772 H       1  UNL1        0.0293
     42 H           4.0346    0.2038   -2.0816 H       1  UNL1        0.0631
     43 H          -3.4949   -1.7485    0.1635 H       1  UNL1        0.0329
     44 H          -3.0916   -0.0533   -0.4042 H       1  UNL1        0.0329
     45 H          -5.0325    1.5228   -0.6151 H       1  UNL1        0.0620
     46 H          -7.5001    1.7777   -0.6420 H       1  UNL1        0.0618
     47 H          -8.9616   -0.1259    0.2431 H       1  UNL1        0.0618
     48 H          -7.8716   -2.1530    1.0958 H       1  UNL1        0.0618
     49 H          -5.5212   -2.3152    1.0918 H       1  UNL1        0.0620
@<TRIPOS>BOND
     1     1     2    1
     2     1     3    1
     3     3     4    1
     4     4     5    1
     5     5     6   ar
     6     6     7   ar
     7     7     8   ar
     8     8     9   ar
     9     9    10   ar
    10     7    11    1
    11    11    12   ar
    12    12    13   ar
    13    13    14   ar
    14    14    15   ar
    15    15    16   ar
    16    16    17   ar
    17    17    18    1
    18    17    19   ar
    19    19    20   ar
    20     1    21    1
    21    21    22    1
    22    22    23   ar
    23    23    24   ar
    24    24    25   ar
    25    25    26   ar
    26    26    27   ar
    27    10     5   ar
    28    20    11   ar
    29    27    22   ar
    30    19    14   ar
    31     1    28    1
    32     2    29    1
    33     2    30    1
    34     3    31    1
    35     3    32    1
    36     6    33    1
    37     8    34    1
    38    10    35    1
    39    12    36    1
    40    13    37    1
    41    15    38    1
    42    18    39    1
    43    18    40    1
    44    18    41    1
    45    20    42    1
    46    21    43    1
    47    21    44    1
    48    23    45    1
    49    24    46    1
    50    25    47    1
    51    26    48    1
    52    27    49    1
