
     RDKit          3D

 69 71  0  0  0  0  0  0  0  0999 V2000
   -0.9888   -4.0191   -0.9650 C   0  0  0  0  0  0  0  0  0  0  0  0
    0.3597   -3.3844   -0.6801 C   0  0  0  0  0  0  0  0  0  0  0  0
    0.0767   -2.0180   -0.0589 C   0  0  0  0  0  0  0  0  0  0  0  0
   -0.7191   -1.1586   -1.0120 C   0  0  0  0  0  0  0  0  0  0  0  0
   -0.9569    0.1188   -0.4133 N   0  0  0  0  0  0  0  0  0  0  0  0
   -2.1369    0.1951    0.4370 C   0  0  0  0  0  0  0  0  0  0  0  0
   -1.9884   -0.0809    1.7686 C   0  0  0  0  0  0  0  0  0  0  0  0
   -3.0944   -0.0125    2.6195 C   0  0  0  0  0  0  0  0  0  0  0  0
   -4.3317    0.3418    2.0681 C   0  0  0  0  0  0  0  0  0  0  0  0
   -4.5003    0.6239    0.7265 C   0  0  0  0  0  0  0  0  0  0  0  0
   -5.7679    0.9816    0.1914 C   0  0  0  0  0  0  0  0  0  0  0  0
   -5.9410    2.0292   -0.6891 C   0  0  0  0  0  0  0  0  0  0  0  0
   -7.1800    2.3664   -1.2018 C   0  0  0  0  0  0  0  0  0  0  0  0
   -8.2998    1.6463   -0.8368 C   0  0  0  0  0  0  0  0  0  0  0  0
   -9.8855    2.0661   -1.4835 Cl  0  0  0  0  0  0  0  0  0  0  0  0
   -8.1555    0.5932    0.0425 C   0  0  0  0  0  0  0  0  0  0  0  0
   -6.9145    0.2701    0.5443 C   0  0  0  0  0  0  0  0  0  0  0  0
   -3.3613    0.5386   -0.0698 C   0  0  0  0  0  0  0  0  0  0  0  0
   -3.5437    0.8207   -1.3955 O   0  0  0  0  0  0  0  0  0  0  0  0
   -3.8777   -0.0953   -2.4032 C   0  0  0  0  0  0  0  0  0  0  0  0
    0.0382    1.4633   -0.6596 S   0  0  0  0  0  6  0  0  0  0  0  0
   -0.6177    2.6383    0.0727 O   0  0  0  0  0  0  0  0  0  0  0  0
   -0.0092    1.9223   -2.1257 O   0  0  0  0  0  0  0  0  0  0  0  0
    1.6862    1.3330   -0.1336 C   0  0  0  0  0  0  0  0  0  0  0  0
    2.0901    2.0556    0.9975 C   0  0  0  0  0  0  0  0  0  0  0  0
    3.3407    1.9847    1.5050 C   0  0  0  0  0  0  0  0  0  0  0  0
    4.3490    1.1665    0.9278 C   0  0  0  0  0  0  0  0  0  0  0  0
    5.5596    1.1573    1.4942 O   0  0  0  0  0  0  0  0  0  0  0  0
    6.7707    0.6353    1.2874 C   0  0  0  0  0  0  0  0  0  0  0  0
    7.0552   -0.5913    2.2082 C   0  0  0  0  0  0  0  0  0  0  0  0
    7.8941    1.5916    1.6771 C   0  0  0  0  0  0  0  0  0  0  0  0
    7.5762    2.6958    2.1211 O   0  0  0  0  0  0  0  0  0  0  0  0
    9.1739    1.1775    1.5149 O   0  0  0  0  0  0  0  0  0  0  0  0
    3.9425    0.4495   -0.1941 C   0  0  0  0  0  0  0  0  0  0  0  0
    4.8863   -0.4922   -0.8476 C   0  0  0  0  0  0  0  0  0  0  0  0
    2.6430    0.5369   -0.7087 C   0  0  0  0  0  0  0  0  0  0  0  0
    2.3542   -0.2271   -1.9500 C   0  0  0  0  0  0  0  0  0  0  0  0
   -1.7962   -3.5364   -0.3745 H   0  0  0  0  0  0  0  0  0  0  0  0
   -1.2692   -3.9582   -2.0245 H   0  0  0  0  0  0  0  0  0  0  0  0
   -0.9681   -5.0932   -0.6566 H   0  0  0  0  0  0  0  0  0  0  0  0
    0.9811   -3.3157   -1.5798 H   0  0  0  0  0  0  0  0  0  0  0  0
    0.8615   -3.9852    0.1058 H   0  0  0  0  0  0  0  0  0  0  0  0
   -0.5938   -2.2334    0.8099 H   0  0  0  0  0  0  0  0  0  0  0  0
    1.0328   -1.5805    0.2470 H   0  0  0  0  0  0  0  0  0  0  0  0
   -1.7474   -1.6187   -1.1644 H   0  0  0  0  0  0  0  0  0  0  0  0
   -0.2905   -1.1514   -2.0224 H   0  0  0  0  0  0  0  0  0  0  0  0
   -1.0340   -0.3465    2.1785 H   0  0  0  0  0  0  0  0  0  0  0  0
   -3.0082   -0.2219    3.6583 H   0  0  0  0  0  0  0  0  0  0  0  0
   -5.1917    0.3942    2.7339 H   0  0  0  0  0  0  0  0  0  0  0  0
   -5.0377    2.5661   -0.9479 H   0  0  0  0  0  0  0  0  0  0  0  0
   -7.2336    3.2015   -1.8874 H   0  0  0  0  0  0  0  0  0  0  0  0
   -9.0230    0.0204    0.3375 H   0  0  0  0  0  0  0  0  0  0  0  0
   -6.8612   -0.5787    1.2409 H   0  0  0  0  0  0  0  0  0  0  0  0
   -4.2448   -1.0680   -2.0194 H   0  0  0  0  0  0  0  0  0  0  0  0
   -3.0396   -0.2854   -3.1101 H   0  0  0  0  0  0  0  0  0  0  0  0
   -4.7243    0.3416   -2.9856 H   0  0  0  0  0  0  0  0  0  0  0  0
    1.3354    2.6934    1.4638 H   0  0  0  0  0  0  0  0  0  0  0  0
    3.6570    2.5451    2.3829 H   0  0  0  0  0  0  0  0  0  0  0  0
    7.0069    0.2378    0.2787 H   0  0  0  0  0  0  0  0  0  0  0  0
    8.0216   -0.9942    1.8542 H   0  0  0  0  0  0  0  0  0  0  0  0
    7.1844   -0.2222    3.2567 H   0  0  0  0  0  0  0  0  0  0  0  0
    6.2586   -1.3241    2.0994 H   0  0  0  0  0  0  0  0  0  0  0  0
    9.9841    1.7358    1.8021 H   0  0  0  0  0  0  0  0  0  0  0  0
    5.3666   -1.1781   -0.1143 H   0  0  0  0  0  0  0  0  0  0  0  0
    5.6047   -0.0430   -1.5202 H   0  0  0  0  0  0  0  0  0  0  0  0
    4.2335   -1.2293   -1.4334 H   0  0  0  0  0  0  0  0  0  0  0  0
    1.5149    0.2508   -2.5194 H   0  0  0  0  0  0  0  0  0  0  0  0
    2.2556   -1.2975   -1.8292 H   0  0  0  0  0  0  0  0  0  0  0  0
    3.2389   -0.0452   -2.6363 H   0  0  0  0  0  0  0  0  0  0  0  0
  1  2  1  0
  2  3  1  0
  3  4  1  0
  4  5  1  0
  5  6  1  0
  6  7  2  0
  7  8  1  0
  8  9  2  0
  9 10  1  0
 10 11  1  0
 11 12  2  0
 12 13  1  0
 13 14  2  0
 14 15  1  0
 14 16  1  0
 16 17  2  0
 10 18  2  0
 18 19  1  0
 19 20  1  0
  5 21  1  0
 21 22  2  0
 21 23  2  0
 21 24  1  0
 24 25  2  0
 25 26  1  0
 26 27  2  0
 27 28  1  0
 28 29  1  0
 29 30  1  0
 29 31  1  0
 31 32  2  0
 31 33  1  0
 27 34  1  0
 34 35  1  0
 34 36  2  0
 36 37  1  0
 18  6  1  0
 36 24  1  0
 17 11  1  0
  1 38  1  0
  1 39  1  0
  1 40  1  0
  2 41  1  0
  2 42  1  0
  3 43  1  0
  3 44  1  0
  4 45  1  0
  4 46  1  0
  7 47  1  0
  8 48  1  0
  9 49  1  0
 12 50  1  0
 13 51  1  0
 16 52  1  0
 17 53  1  0
 20 54  1  0
 20 55  1  0
 20 56  1  0
 25 57  1  0
 26 58  1  0
 29 59  1  0
 30 60  1  0
 30 61  1  0
 30 62  1  0
 33 63  1  0
 35 64  1  0
 35 65  1  0
 35 66  1  0
 37 67  1  0
 37 68  1  0
 37 69  1  0
M  END
$$$$
