@<TRIPOS>MOLECULE
*****
 69 71 0 0 0
SMALL
GASTEIGER

@<TRIPOS>ATOM
      1 C          -0.9888   -4.0191   -0.9650 C.3     1  UNL1       -0.0652
      2 C           0.3597   -3.3844   -0.6801 C.3     1  UNL1       -0.0544
      3 C           0.0767   -2.0180   -0.0589 C.3     1  UNL1       -0.0357
      4 C          -0.7191   -1.1586   -1.0120 C.3     1  UNL1        0.0351
      5 N          -0.9569    0.1188   -0.4133 N.pl3   1  UNL1       -0.1995
      6 C          -2.1369    0.1951    0.4370 C.ar    1  UNL1        0.0934
      7 C          -1.9884   -0.0809    1.7686 C.ar    1  UNL1       -0.0355
      8 C          -3.0944   -0.0125    2.6195 C.ar    1  UNL1       -0.0592
      9 C          -4.3317    0.3418    2.0681 C.ar    1  UNL1       -0.0504
     10 C          -4.5003    0.6239    0.7265 C.ar    1  UNL1        0.0257
     11 C          -5.7679    0.9816    0.1914 C.ar    1  UNL1       -0.0142
     12 C          -5.9410    2.0292   -0.6891 C.ar    1  UNL1       -0.0525
     13 C          -7.1800    2.3664   -1.2018 C.ar    1  UNL1       -0.0428
     14 C          -8.2998    1.6463   -0.8368 C.ar    1  UNL1        0.0410
     15 CL         -9.8855    2.0661   -1.4835 Cl      1  UNL1       -0.0835
     16 C          -8.1555    0.5932    0.0425 C.ar    1  UNL1       -0.0428
     17 C          -6.9145    0.2701    0.5443 C.ar    1  UNL1       -0.0525
     18 C          -3.3613    0.5386   -0.0698 C.ar    1  UNL1        0.1502
     19 O          -3.5437    0.8207   -1.3955 O.3     1  UNL1       -0.4926
     20 C          -3.8777   -0.0953   -2.4032 C.3     1  UNL1        0.0789
     21 S           0.0382    1.4633   -0.6596 S.O2    1  UNL1        0.0751
     22 O          -0.6177    2.6383    0.0727 O.2     1  UNL1       -0.1498
     23 O          -0.0092    1.9223   -2.1257 O.2     1  UNL1       -0.1498
     24 C           1.6862    1.3330   -0.1336 C.ar    1  UNL1        0.1121
     25 C           2.0901    2.0556    0.9975 C.ar    1  UNL1       -0.0313
     26 C           3.3407    1.9847    1.5050 C.ar    1  UNL1       -0.0178
     27 C           4.3490    1.1665    0.9278 C.ar    1  UNL1        0.1249
     28 O           5.5596    1.1573    1.4942 O.3     1  UNL1       -0.4776
     29 C           6.7707    0.6353    1.2874 C.3     1  UNL1        0.1931
     30 C           7.0552   -0.5913    2.2082 C.3     1  UNL1       -0.0172
     31 C           7.8941    1.5916    1.6771 C.2     1  UNL1        0.3456
     32 O           7.5762    2.6958    2.1211 O.2     1  UNL1       -0.2468
     33 O           9.1739    1.1775    1.5149 O.3     1  UNL1       -0.4781
     34 C           3.9425    0.4495   -0.1941 C.ar    1  UNL1       -0.0040
     35 C           4.8863   -0.4922   -0.8476 C.3     1  UNL1       -0.0359
     36 C           2.6430    0.5369   -0.7087 C.ar    1  UNL1       -0.0175
     37 C           2.3542   -0.2271   -1.9500 C.3     1  UNL1       -0.0375
     38 H          -1.7962   -3.5364   -0.3745 H       1  UNL1        0.0230
     39 H          -1.2692   -3.9582   -2.0245 H       1  UNL1        0.0230
     40 H          -0.9681   -5.0932   -0.6566 H       1  UNL1        0.0230
     41 H           0.9811   -3.3157   -1.5798 H       1  UNL1        0.0263
     42 H           0.8615   -3.9852    0.1058 H       1  UNL1        0.0263
     43 H          -0.5938   -2.2334    0.8099 H       1  UNL1        0.0281
     44 H           1.0328   -1.5805    0.2470 H       1  UNL1        0.0281
     45 H          -1.7474   -1.6187   -1.1644 H       1  UNL1        0.0482
     46 H          -0.2905   -1.1514   -2.0224 H       1  UNL1        0.0482
     47 H          -1.0340   -0.3465    2.1785 H       1  UNL1        0.0638
     48 H          -3.0082   -0.2219    3.6583 H       1  UNL1        0.0618
     49 H          -5.1917    0.3942    2.7339 H       1  UNL1        0.0625
     50 H          -5.0377    2.5661   -0.9479 H       1  UNL1        0.0624
     51 H          -7.2336    3.2015   -1.8874 H       1  UNL1        0.0632
     52 H          -9.0230    0.0204    0.3375 H       1  UNL1        0.0632
     53 H          -6.8612   -0.5787    1.2409 H       1  UNL1        0.0624
     54 H          -4.2448   -1.0680   -2.0194 H       1  UNL1        0.0660
     55 H          -3.0396   -0.2854   -3.1101 H       1  UNL1        0.0660
     56 H          -4.7243    0.3416   -2.9856 H       1  UNL1        0.0660
     57 H           1.3354    2.6934    1.4638 H       1  UNL1        0.0638
     58 H           3.6570    2.5451    2.3829 H       1  UNL1        0.0655
     59 H           7.0069    0.2378    0.2787 H       1  UNL1        0.0849
     60 H           8.0216   -0.9942    1.8542 H       1  UNL1        0.0271
     61 H           7.1844   -0.2222    3.2567 H       1  UNL1        0.0271
     62 H           6.2586   -1.3241    2.0994 H       1  UNL1        0.0271
     63 H           9.9841    1.7358    1.8021 H       1  UNL1        0.2952
     64 H           5.3666   -1.1781   -0.1143 H       1  UNL1        0.0279
     65 H           5.6047   -0.0430   -1.5202 H       1  UNL1        0.0279
     66 H           4.2335   -1.2293   -1.4334 H       1  UNL1        0.0279
     67 H           1.5149    0.2508   -2.5194 H       1  UNL1        0.0278
     68 H           2.2556   -1.2975   -1.8292 H       1  UNL1        0.0278
     69 H           3.2389   -0.0452   -2.6363 H       1  UNL1        0.0278
@<TRIPOS>BOND
     1     1     2    1
     2     2     3    1
     3     3     4    1
     4     4     5    1
     5     5     6    1
     6     6     7   ar
     7     7     8   ar
     8     8     9   ar
     9     9    10   ar
    10    10    11    1
    11    11    12   ar
    12    12    13   ar
    13    13    14   ar
    14    14    15    1
    15    14    16   ar
    16    16    17   ar
    17    10    18   ar
    18    18    19    1
    19    19    20    1
    20     5    21    1
    21    21    22    2
    22    21    23    2
    23    21    24    1
    24    24    25   ar
    25    25    26   ar
    26    26    27   ar
    27    27    28    1
    28    28    29    1
    29    29    30    1
    30    29    31    1
    31    31    32    2
    32    31    33    1
    33    27    34   ar
    34    34    35    1
    35    34    36   ar
    36    36    37    1
    37    18     6   ar
    38    36    24   ar
    39    17    11   ar
    40     1    38    1
    41     1    39    1
    42     1    40    1
    43     2    41    1
    44     2    42    1
    45     3    43    1
    46     3    44    1
    47     4    45    1
    48     4    46    1
    49     7    47    1
    50     8    48    1
    51     9    49    1
    52    12    50    1
    53    13    51    1
    54    16    52    1
    55    17    53    1
    56    20    54    1
    57    20    55    1
    58    20    56    1
    59    25    57    1
    60    26    58    1
    61    29    59    1
    62    30    60    1
    63    30    61    1
    64    30    62    1
    65    33    63    1
    66    35    64    1
    67    35    65    1
    68    35    66    1
    69    37    67    1
    70    37    68    1
    71    37    69    1
