@<TRIPOS>MOLECULE
*****
 61 68 0 0 0
SMALL
GASTEIGER

@<TRIPOS>ATOM
      1 C           4.3147   -2.4455   -0.9798 C.3     1  UNL1       -0.0155
      2 N           3.9518   -1.0526   -0.8032 N.3     1  UNL1       -0.3136
      3 C           3.0626   -0.9100    0.3335 C.3     1  UNL1        0.0423
      4 C           1.8381   -1.7316    0.0504 C.3     1  UNL1        0.0107
      5 C           0.9358   -1.6288    1.2565 C.3     1  UNL1        0.1402
      6 O           1.0616   -0.5223    1.9913 O.3     1  UNL1       -0.3282
      7 C           1.4170    0.6761    1.3563 C.3     1  UNL1        0.1741
      8 C           1.8325    1.5742    2.5318 C.3     1  UNL1       -0.0136
      9 C           2.5901    0.5481    0.4364 C.3     1  UNL1        0.1214
     10 O           2.3309    0.9490   -0.8648 O.3     1  UNL1       -0.3735
     11 C           3.2851    1.8928   -1.2401 C.3     1  UNL1        0.0371
     12 N           0.2391    1.2689    0.7326 N.ar    1  UNL1       -0.3070
     13 C           0.0131    2.5646    0.4904 C.ar    1  UNL1        0.0527
     14 C           0.7868    3.6862    0.6822 C.ar    1  UNL1       -0.0375
     15 C           0.3062    4.9520    0.3269 C.ar    1  UNL1       -0.0598
     16 C          -0.9463    5.1079   -0.2216 C.ar    1  UNL1       -0.0611
     17 C          -1.7308    3.9954   -0.4202 C.ar    1  UNL1       -0.0520
     18 C          -1.2518    2.7546   -0.0685 C.ar    1  UNL1        0.0081
     19 C          -1.8148    1.5028   -0.1707 C.ar    1  UNL1        0.0151
     20 C          -3.0342    1.0496   -0.6410 C.ar    1  UNL1       -0.0078
     21 C          -3.3504   -0.3107   -0.6299 C.ar    1  UNL1        0.0518
     22 C          -2.4032   -1.1891   -0.1346 C.ar    1  UNL1        0.0221
     23 C          -2.3556   -2.5489    0.0086 C.ar    1  UNL1        0.0085
     24 C          -3.2289   -3.5744   -0.2622 C.ar    1  UNL1       -0.0520
     25 C          -2.8301   -4.8878    0.0227 C.ar    1  UNL1       -0.0611
     26 C          -1.6062   -5.1729    0.5582 C.ar    1  UNL1       -0.0598
     27 C          -0.7262   -4.1474    0.8320 C.ar    1  UNL1       -0.0375
     28 C          -1.1299   -2.8728    0.5484 C.ar    1  UNL1        0.0524
     29 N          -0.4310   -1.7314    0.7366 N.ar    1  UNL1       -0.3115
     30 C          -1.1789   -0.6917    0.3336 C.ar    1  UNL1        0.0774
     31 C          -0.8929    0.6498    0.3152 C.ar    1  UNL1        0.0772
     32 C          -4.6731   -0.4944   -1.1694 C.2     1  UNL1        0.2453
     33 O          -5.3532   -1.5222   -1.3473 O.2     1  UNL1       -0.2702
     34 N          -5.1562    0.8194   -1.5133 N.am    1  UNL1       -0.3072
     35 C          -4.1617    1.7876   -1.2012 C.3     1  UNL1        0.0385
     36 H           3.6193   -2.9106   -1.6976 H       1  UNL1        0.0388
     37 H           4.2949   -2.9765    0.0022 H       1  UNL1        0.0388
     38 H           5.3430   -2.5467   -1.4160 H       1  UNL1        0.0388
     39 H           3.4915   -0.7460   -1.6949 H       1  UNL1        0.1220
     40 H           3.5664   -1.2456    1.2379 H       1  UNL1        0.0489
     41 H           1.3202   -1.2476   -0.8185 H       1  UNL1        0.0325
     42 H           2.0812   -2.7902   -0.1459 H       1  UNL1        0.0325
     43 H           1.1215   -2.5287    1.8790 H       1  UNL1        0.0839
     44 H           1.9942    0.9487    3.4755 H       1  UNL1        0.0277
     45 H           1.0369    2.2665    2.8404 H       1  UNL1        0.0277
     46 H           2.8334    2.0230    2.3851 H       1  UNL1        0.0277
     47 H           3.4955    1.0894    0.8427 H       1  UNL1        0.0660
     48 H           3.1326    2.2549   -2.2740 H       1  UNL1        0.0524
     49 H           3.3149    2.7044   -0.4979 H       1  UNL1        0.0524
     50 H           4.3256    1.4551   -1.2388 H       1  UNL1        0.0524
     51 H           1.7612    3.6046    1.0875 H       1  UNL1        0.0638
     52 H           0.8965    5.8486    0.4689 H       1  UNL1        0.0618
     53 H          -1.3625    6.0654   -0.5124 H       1  UNL1        0.0618
     54 H          -2.7390    4.0848   -0.8576 H       1  UNL1        0.0624
     55 H          -4.1983   -3.4167   -0.6800 H       1  UNL1        0.0624
     56 H          -3.5321   -5.6775   -0.1982 H       1  UNL1        0.0618
     57 H          -1.2736   -6.1796    0.7879 H       1  UNL1        0.0618
     58 H           0.2458   -4.3371    1.2540 H       1  UNL1        0.0638
     59 H          -6.1038    1.0273   -1.9323 H       1  UNL1        0.1493
     60 H          -4.5104    2.5100   -0.4084 H       1  UNL1        0.0512
     61 H          -3.8650    2.3755   -2.1069 H       1  UNL1        0.0512
@<TRIPOS>BOND
     1     1     2    1
     2     2     3    1
     3     3     4    1
     4     4     5    1
     5     5     6    1
     6     6     7    1
     7     7     8    1
     8     7     9    1
     9     9    10    1
    10    10    11    1
    11     7    12    1
    12    12    13   ar
    13    13    14   ar
    14    14    15   ar
    15    15    16   ar
    16    16    17   ar
    17    17    18   ar
    18    18    19   ar
    19    19    20   ar
    20    20    21   ar
    21    21    22   ar
    22    22    23   ar
    23    23    24   ar
    24    24    25   ar
    25    25    26   ar
    26    26    27   ar
    27    27    28   ar
    28    28    29   ar
    29    29    30   ar
    30    30    31   ar
    31    21    32    1
    32    32    33    2
    33    32    34   am
    34    34    35    1
    35     9     3    1
    36    31    12   ar
    37    29     5    1
    38    18    13   ar
    39    31    19   ar
    40    35    20    1
    41    30    22   ar
    42    28    23   ar
    43     1    36    1
    44     1    37    1
    45     1    38    1
    46     2    39    1
    47     3    40    1
    48     4    41    1
    49     4    42    1
    50     5    43    1
    51     8    44    1
    52     8    45    1
    53     8    46    1
    54     9    47    1
    55    11    48    1
    56    11    49    1
    57    11    50    1
    58    14    51    1
    59    15    52    1
    60    16    53    1
    61    17    54    1
    62    24    55    1
    63    25    56    1
    64    26    57    1
    65    27    58    1
    66    34    59    1
    67    35    60    1
    68    35    61    1
