
     RDKit          3D

 61 68  0  0  0  0  0  0  0  0999 V2000
    4.3147   -2.4455   -0.9798 C   0  0  0  0  0  0  0  0  0  0  0  0
    3.9518   -1.0526   -0.8032 N   0  0  0  0  0  0  0  0  0  0  0  0
    3.0626   -0.9100    0.3335 C   0  0  2  0  0  0  0  0  0  0  0  0
    1.8381   -1.7316    0.0504 C   0  0  0  0  0  0  0  0  0  0  0  0
    0.9358   -1.6288    1.2565 C   0  0  1  0  0  0  0  0  0  0  0  0
    1.0616   -0.5223    1.9913 O   0  0  0  0  0  0  0  0  0  0  0  0
    1.4170    0.6761    1.3563 C   0  0  1  0  0  0  0  0  0  0  0  0
    1.8325    1.5742    2.5318 C   0  0  0  0  0  0  0  0  0  0  0  0
    2.5901    0.5481    0.4364 C   0  0  2  0  0  0  0  0  0  0  0  0
    2.3309    0.9490   -0.8648 O   0  0  0  0  0  0  0  0  0  0  0  0
    3.2851    1.8928   -1.2401 C   0  0  0  0  0  0  0  0  0  0  0  0
    0.2391    1.2689    0.7326 N   0  0  0  0  0  0  0  0  0  0  0  0
    0.0131    2.5646    0.4904 C   0  0  0  0  0  0  0  0  0  0  0  0
    0.7868    3.6862    0.6822 C   0  0  0  0  0  0  0  0  0  0  0  0
    0.3062    4.9520    0.3269 C   0  0  0  0  0  0  0  0  0  0  0  0
   -0.9463    5.1079   -0.2216 C   0  0  0  0  0  0  0  0  0  0  0  0
   -1.7308    3.9954   -0.4202 C   0  0  0  0  0  0  0  0  0  0  0  0
   -1.2518    2.7546   -0.0685 C   0  0  0  0  0  0  0  0  0  0  0  0
   -1.8148    1.5028   -0.1707 C   0  0  0  0  0  0  0  0  0  0  0  0
   -3.0342    1.0496   -0.6410 C   0  0  0  0  0  0  0  0  0  0  0  0
   -3.3504   -0.3107   -0.6299 C   0  0  0  0  0  0  0  0  0  0  0  0
   -2.4032   -1.1891   -0.1346 C   0  0  0  0  0  0  0  0  0  0  0  0
   -2.3556   -2.5489    0.0086 C   0  0  0  0  0  0  0  0  0  0  0  0
   -3.2289   -3.5744   -0.2622 C   0  0  0  0  0  0  0  0  0  0  0  0
   -2.8301   -4.8878    0.0227 C   0  0  0  0  0  0  0  0  0  0  0  0
   -1.6062   -5.1729    0.5582 C   0  0  0  0  0  0  0  0  0  0  0  0
   -0.7262   -4.1474    0.8320 C   0  0  0  0  0  0  0  0  0  0  0  0
   -1.1299   -2.8728    0.5484 C   0  0  0  0  0  0  0  0  0  0  0  0
   -0.4310   -1.7314    0.7366 N   0  0  0  0  0  0  0  0  0  0  0  0
   -1.1789   -0.6917    0.3336 C   0  0  0  0  0  0  0  0  0  0  0  0
   -0.8929    0.6498    0.3152 C   0  0  0  0  0  0  0  0  0  0  0  0
   -4.6731   -0.4944   -1.1694 C   0  0  0  0  0  0  0  0  0  0  0  0
   -5.3532   -1.5222   -1.3473 O   0  0  0  0  0  0  0  0  0  0  0  0
   -5.1562    0.8194   -1.5133 N   0  0  0  0  0  0  0  0  0  0  0  0
   -4.1617    1.7876   -1.2012 C   0  0  0  0  0  0  0  0  0  0  0  0
    3.6193   -2.9106   -1.6976 H   0  0  0  0  0  0  0  0  0  0  0  0
    4.2949   -2.9765    0.0022 H   0  0  0  0  0  0  0  0  0  0  0  0
    5.3430   -2.5467   -1.4160 H   0  0  0  0  0  0  0  0  0  0  0  0
    3.4915   -0.7460   -1.6949 H   0  0  0  0  0  0  0  0  0  0  0  0
    3.5664   -1.2456    1.2379 H   0  0  0  0  0  0  0  0  0  0  0  0
    1.3202   -1.2476   -0.8185 H   0  0  0  0  0  0  0  0  0  0  0  0
    2.0812   -2.7902   -0.1459 H   0  0  0  0  0  0  0  0  0  0  0  0
    1.1215   -2.5287    1.8790 H   0  0  0  0  0  0  0  0  0  0  0  0
    1.9942    0.9487    3.4755 H   0  0  0  0  0  0  0  0  0  0  0  0
    1.0369    2.2665    2.8404 H   0  0  0  0  0  0  0  0  0  0  0  0
    2.8334    2.0230    2.3851 H   0  0  0  0  0  0  0  0  0  0  0  0
    3.4955    1.0894    0.8427 H   0  0  0  0  0  0  0  0  0  0  0  0
    3.1326    2.2549   -2.2740 H   0  0  0  0  0  0  0  0  0  0  0  0
    3.3149    2.7044   -0.4979 H   0  0  0  0  0  0  0  0  0  0  0  0
    4.3256    1.4551   -1.2388 H   0  0  0  0  0  0  0  0  0  0  0  0
    1.7612    3.6046    1.0875 H   0  0  0  0  0  0  0  0  0  0  0  0
    0.8965    5.8486    0.4689 H   0  0  0  0  0  0  0  0  0  0  0  0
   -1.3625    6.0654   -0.5124 H   0  0  0  0  0  0  0  0  0  0  0  0
   -2.7390    4.0848   -0.8576 H   0  0  0  0  0  0  0  0  0  0  0  0
   -4.1983   -3.4167   -0.6800 H   0  0  0  0  0  0  0  0  0  0  0  0
   -3.5321   -5.6775   -0.1982 H   0  0  0  0  0  0  0  0  0  0  0  0
   -1.2736   -6.1796    0.7879 H   0  0  0  0  0  0  0  0  0  0  0  0
    0.2458   -4.3371    1.2540 H   0  0  0  0  0  0  0  0  0  0  0  0
   -6.1038    1.0273   -1.9323 H   0  0  0  0  0  0  0  0  0  0  0  0
   -4.5104    2.5100   -0.4084 H   0  0  0  0  0  0  0  0  0  0  0  0
   -3.8650    2.3755   -2.1069 H   0  0  0  0  0  0  0  0  0  0  0  0
  1  2  1  0
  2  3  1  0
  3  4  1  0
  4  5  1  0
  5  6  1  0
  6  7  1  0
  7  8  1  1
  7  9  1  0
  9 10  1  0
 10 11  1  0
  7 12  1  0
 12 13  1  0
 13 14  2  0
 14 15  1  0
 15 16  2  0
 16 17  1  0
 17 18  2  0
 18 19  1  0
 19 20  2  0
 20 21  1  0
 21 22  2  0
 22 23  1  0
 23 24  2  0
 24 25  1  0
 25 26  2  0
 26 27  1  0
 27 28  2  0
 28 29  1  0
 29 30  1  0
 30 31  2  0
 21 32  1  0
 32 33  2  0
 32 34  1  0
 34 35  1  0
  9  3  1  0
 31 12  1  0
 29  5  1  0
 18 13  1  0
 31 19  1  0
 35 20  1  0
 30 22  1  0
 28 23  1  0
  1 36  1  0
  1 37  1  0
  1 38  1  0
  2 39  1  0
  3 40  1  1
  4 41  1  0
  4 42  1  0
  5 43  1  1
  8 44  1  0
  8 45  1  0
  8 46  1  0
  9 47  1  1
 11 48  1  0
 11 49  1  0
 11 50  1  0
 14 51  1  0
 15 52  1  0
 16 53  1  0
 17 54  1  0
 24 55  1  0
 25 56  1  0
 26 57  1  0
 27 58  1  0
 34 59  1  0
 35 60  1  0
 35 61  1  0
M  END
$$$$
