
     RDKit          3D

 70 76  0  0  0  0  0  0  0  0999 V2000
   -3.0499    0.3755   -0.8247 O   0  0  0  0  0  0  0  0  0  0  0  0
   -1.9599   -0.2396   -0.7118 C   0  0  0  0  0  0  0  0  0  0  0  0
   -1.9658   -1.6702   -0.8007 C   0  0  0  0  0  0  0  0  0  0  0  0
   -3.0547   -2.4119   -0.8147 O   0  0  0  0  0  0  0  0  0  0  0  0
   -2.7559   -3.6844   -0.9029 C   0  0  0  0  0  0  0  0  0  0  0  0
   -3.7226   -4.7942   -0.9430 C   0  0  0  0  0  0  0  0  0  0  0  0
   -3.3185   -6.1014   -1.0383 C   0  0  0  0  0  0  0  0  0  0  0  0
   -4.2632   -7.1295   -1.0736 C   0  0  0  0  0  0  0  0  0  0  0  0
   -5.6175   -6.8492   -1.0132 C   0  0  0  0  0  0  0  0  0  0  0  0
   -6.8351   -8.1064   -1.0543 Cl  0  0  0  0  0  0  0  0  0  0  0  0
   -6.0152   -5.5348   -0.9177 C   0  0  0  0  0  0  0  0  0  0  0  0
   -5.0725   -4.5395   -0.8845 C   0  0  0  0  0  0  0  0  0  0  0  0
   -1.3866   -3.7801   -0.9494 C   0  0  0  0  0  0  0  0  0  0  0  0
   -0.8678   -2.4848   -0.8840 C   0  0  0  0  0  0  0  0  0  0  0  0
    0.5741   -2.2605   -0.9124 C   0  0  0  0  0  0  0  0  0  0  0  0
    1.0536   -0.9835   -0.3948 C   0  0  0  0  0  0  0  0  0  0  0  0
    2.3759   -1.1357   -0.0354 C   0  0  0  0  0  0  0  0  0  0  0  0
    3.1522   -0.1270    0.4931 C   0  0  0  0  0  0  0  0  0  0  0  0
    4.5039   -0.3251    0.8445 N   0  0  0  0  0  0  0  0  0  0  0  0
    5.1252   -1.5991    0.4585 C   0  0  0  0  0  0  0  0  0  0  0  0
    6.6457   -1.4134    0.5502 C   0  0  0  0  0  0  0  0  0  0  0  0
    7.0212   -0.1539   -0.0722 N   0  0  0  0  0  0  0  0  0  0  0  0
    6.5880    0.9573    0.7545 C   0  0  0  0  0  0  0  0  0  0  0  0
    5.3491    0.5908    1.5560 C   0  0  0  0  0  0  0  0  0  0  0  0
    2.5652    1.1010    0.6688 C   0  0  0  0  0  0  0  0  0  0  0  0
    1.2375    1.3167    0.3260 C   0  0  0  0  0  0  0  0  0  0  0  0
    0.5024    0.2815   -0.1973 C   0  0  0  0  0  0  0  0  0  0  0  0
   -0.8301    0.6364   -0.5018 N   0  0  0  0  0  0  0  0  0  0  0  0
   -1.1377    2.0533   -0.6462 C   0  0  0  0  0  0  0  0  0  0  0  0
   -1.5637    2.5562    0.6749 C   0  0  0  0  0  0  0  0  0  0  0  0
   -1.6752    1.6646    1.7196 C   0  0  0  0  0  0  0  0  0  0  0  0
   -2.1019    2.0168    2.9829 C   0  0  0  0  0  0  0  0  0  0  0  0
   -2.4316    3.3196    3.2098 C   0  0  0  0  0  0  0  0  0  0  0  0
   -2.3261    4.2172    2.1838 C   0  0  0  0  0  0  0  0  0  0  0  0
   -1.8949    3.8848    0.8921 C   0  0  0  0  0  0  0  0  0  0  0  0
   -1.7890    4.9010   -0.1301 C   0  0  0  0  0  0  0  0  0  0  0  0
   -0.6088    5.2182   -0.7320 C   0  0  0  0  0  0  0  0  0  0  0  0
   -0.5743    6.1984   -1.7425 C   0  0  0  0  0  0  0  0  0  0  0  0
   -1.7358    6.8372   -2.1212 C   0  0  0  0  0  0  0  0  0  0  0  0
   -2.8783    6.5062   -1.5125 N   0  0  0  0  0  0  0  0  0  0  0  0
   -2.9206    5.5644   -0.5401 C   0  0  0  0  0  0  0  0  0  0  0  0
   -2.2670   -6.3557   -1.0874 H   0  0  0  0  0  0  0  0  0  0  0  0
   -3.9662   -8.1727   -1.1487 H   0  0  0  0  0  0  0  0  0  0  0  0
   -7.0873   -5.3142   -0.8698 H   0  0  0  0  0  0  0  0  0  0  0  0
   -5.3711   -3.4992   -0.8093 H   0  0  0  0  0  0  0  0  0  0  0  0
   -0.8503   -4.7044   -1.0230 H   0  0  0  0  0  0  0  0  0  0  0  0
    1.1459   -3.1150   -0.4393 H   0  0  0  0  0  0  0  0  0  0  0  0
    0.8915   -2.3201   -1.9967 H   0  0  0  0  0  0  0  0  0  0  0  0
    2.8907   -2.1022   -0.1568 H   0  0  0  0  0  0  0  0  0  0  0  0
    4.7885   -2.3511    1.1965 H   0  0  0  0  0  0  0  0  0  0  0  0
    4.8677   -1.8832   -0.5773 H   0  0  0  0  0  0  0  0  0  0  0  0
    6.8912   -1.3496    1.6114 H   0  0  0  0  0  0  0  0  0  0  0  0
    7.1666   -2.2299    0.0130 H   0  0  0  0  0  0  0  0  0  0  0  0
    6.5773   -0.1110   -1.0212 H   0  0  0  0  0  0  0  0  0  0  0  0
    7.4541    1.1818    1.4374 H   0  0  0  0  0  0  0  0  0  0  0  0
    6.3761    1.8369    0.1157 H   0  0  0  0  0  0  0  0  0  0  0  0
    4.8364    1.4951    1.9257 H   0  0  0  0  0  0  0  0  0  0  0  0
    5.6617    0.0358    2.4935 H   0  0  0  0  0  0  0  0  0  0  0  0
    3.0932    1.9584    1.0757 H   0  0  0  0  0  0  0  0  0  0  0  0
    0.7731    2.2776    0.4599 H   0  0  0  0  0  0  0  0  0  0  0  0
   -2.0125    2.1654   -1.3599 H   0  0  0  0  0  0  0  0  0  0  0  0
   -0.2867    2.6401   -1.0114 H   0  0  0  0  0  0  0  0  0  0  0  0
   -1.4217    0.6023    1.5881 H   0  0  0  0  0  0  0  0  0  0  0  0
   -2.1826    1.2929    3.7971 H   0  0  0  0  0  0  0  0  0  0  0  0
   -2.7791    3.6725    4.1897 H   0  0  0  0  0  0  0  0  0  0  0  0
   -2.5872    5.2752    2.3446 H   0  0  0  0  0  0  0  0  0  0  0  0
    0.3213    4.7694   -0.4635 H   0  0  0  0  0  0  0  0  0  0  0  0
    0.3401    6.4708   -2.2375 H   0  0  0  0  0  0  0  0  0  0  0  0
   -1.6977    7.6025   -2.9133 H   0  0  0  0  0  0  0  0  0  0  0  0
   -3.9072    5.3586   -0.0967 H   0  0  0  0  0  0  0  0  0  0  0  0
  1  2  2  0
  2  3  1  0
  3  4  1  0
  4  5  1  0
  5  6  1  0
  6  7  2  0
  7  8  1  0
  8  9  2  0
  9 10  1  0
  9 11  1  0
 11 12  2  0
  5 13  2  0
 13 14  1  0
 14 15  1  0
 15 16  1  0
 16 17  2  0
 17 18  1  0
 18 19  1  0
 19 20  1  0
 20 21  1  0
 21 22  1  0
 22 23  1  0
 23 24  1  0
 18 25  2  0
 25 26  1  0
 26 27  2  0
 27 28  1  0
 28 29  1  0
 29 30  1  0
 30 31  2  0
 31 32  1  0
 32 33  2  0
 33 34  1  0
 34 35  2  0
 35 36  1  0
 36 37  2  0
 37 38  1  0
 38 39  2  0
 39 40  1  0
 40 41  2  0
 28  2  1  0
 35 30  1  0
 41 36  1  0
 14  3  2  0
 27 16  1  0
 12  6  1  0
 24 19  1  0
  7 42  1  0
  8 43  1  0
 11 44  1  0
 12 45  1  0
 13 46  1  0
 15 47  1  0
 15 48  1  0
 17 49  1  0
 20 50  1  0
 20 51  1  0
 21 52  1  0
 21 53  1  0
 22 54  1  0
 23 55  1  0
 23 56  1  0
 24 57  1  0
 24 58  1  0
 25 59  1  0
 26 60  1  0
 29 61  1  0
 29 62  1  0
 31 63  1  0
 32 64  1  0
 33 65  1  0
 34 66  1  0
 37 67  1  0
 38 68  1  0
 39 69  1  0
 41 70  1  0
M  END
$$$$
