@<TRIPOS>MOLECULE
*****
 70 76 0 0 0
SMALL
GASTEIGER

@<TRIPOS>ATOM
      1 O          -3.0499    0.3755   -0.8247 O.2     1  UNL1       -0.2662
      2 C          -1.9599   -0.2396   -0.7118 C.2     1  UNL1        0.2867
      3 C          -1.9658   -1.6702   -0.8007 C.ar    1  UNL1        0.1939
      4 O          -3.0547   -2.4119   -0.8147 O.2     1  UNL1       -0.4499
      5 C          -2.7559   -3.6844   -0.9029 C.ar    1  UNL1        0.1362
      6 C          -3.7226   -4.7942   -0.9430 C.ar    1  UNL1        0.0174
      7 C          -3.3185   -6.1014   -1.0383 C.ar    1  UNL1       -0.0497
      8 C          -4.2632   -7.1295   -1.0736 C.ar    1  UNL1       -0.0427
      9 C          -5.6175   -6.8492   -1.0132 C.ar    1  UNL1        0.0410
     10 CL         -6.8351   -8.1064   -1.0543 Cl      1  UNL1       -0.0835
     11 C          -6.0152   -5.5348   -0.9177 C.ar    1  UNL1       -0.0427
     12 C          -5.0725   -4.5395   -0.8845 C.ar    1  UNL1       -0.0497
     13 C          -1.3866   -3.7801   -0.9494 C.ar    1  UNL1       -0.0116
     14 C          -0.8678   -2.4848   -0.8840 C.ar    1  UNL1        0.0079
     15 C           0.5741   -2.2605   -0.9124 C.3     1  UNL1        0.0032
     16 C           1.0536   -0.9835   -0.3948 C.ar    1  UNL1       -0.0198
     17 C           2.3759   -1.1357   -0.0354 C.ar    1  UNL1       -0.0354
     18 C           3.1522   -0.1270    0.4931 C.ar    1  UNL1        0.0301
     19 N           4.5039   -0.3251    0.8445 N.pl3   1  UNL1       -0.3275
     20 C           5.1252   -1.5991    0.4585 C.3     1  UNL1        0.0248
     21 C           6.6457   -1.4134    0.5502 C.3     1  UNL1        0.0117
     22 N           7.0212   -0.1539   -0.0722 N.3     1  UNL1       -0.3130
     23 C           6.5880    0.9573    0.7545 C.3     1  UNL1        0.0117
     24 C           5.3491    0.5908    1.5560 C.3     1  UNL1        0.0248
     25 C           2.5652    1.1010    0.6688 C.ar    1  UNL1       -0.0389
     26 C           1.2375    1.3167    0.3260 C.ar    1  UNL1       -0.0382
     27 C           0.5024    0.2815   -0.1973 C.ar    1  UNL1        0.0406
     28 N          -0.8301    0.6364   -0.5018 N.am    1  UNL1       -0.2603
     29 C          -1.1377    2.0533   -0.6462 C.3     1  UNL1        0.0458
     30 C          -1.5637    2.5562    0.6749 C.ar    1  UNL1       -0.0220
     31 C          -1.6752    1.6646    1.7196 C.ar    1  UNL1       -0.0565
     32 C          -2.1019    2.0168    2.9829 C.ar    1  UNL1       -0.0614
     33 C          -2.4316    3.3196    3.2098 C.ar    1  UNL1       -0.0612
     34 C          -2.3261    4.2172    2.1838 C.ar    1  UNL1       -0.0537
     35 C          -1.8949    3.8848    0.8921 C.ar    1  UNL1       -0.0117
     36 C          -1.7890    4.9010   -0.1301 C.ar    1  UNL1        0.0005
     37 C          -0.6088    5.2182   -0.7320 C.ar    1  UNL1       -0.0511
     38 C          -0.5743    6.1984   -1.7425 C.ar    1  UNL1       -0.0430
     39 C          -1.7358    6.8372   -2.1212 C.ar    1  UNL1        0.0276
     40 N          -2.8783    6.5062   -1.5125 N.ar    1  UNL1       -0.2627
     41 C          -2.9206    5.5644   -0.5401 C.ar    1  UNL1        0.0353
     42 H          -2.2670   -6.3557   -1.0874 H       1  UNL1        0.0625
     43 H          -3.9662   -8.1727   -1.1487 H       1  UNL1        0.0632
     44 H          -7.0873   -5.3142   -0.8698 H       1  UNL1        0.0632
     45 H          -5.3711   -3.4992   -0.8093 H       1  UNL1        0.0625
     46 H          -0.8503   -4.7044   -1.0230 H       1  UNL1        0.0658
     47 H           1.1459   -3.1150   -0.4393 H       1  UNL1        0.0363
     48 H           0.8915   -2.3201   -1.9967 H       1  UNL1        0.0363
     49 H           2.8907   -2.1022   -0.1568 H       1  UNL1        0.0639
     50 H           4.7885   -2.3511    1.1965 H       1  UNL1        0.0476
     51 H           4.8677   -1.8832   -0.5773 H       1  UNL1        0.0476
     52 H           6.8912   -1.3496    1.6114 H       1  UNL1        0.0439
     53 H           7.1666   -2.2299    0.0130 H       1  UNL1        0.0439
     54 H           6.5773   -0.1110   -1.0212 H       1  UNL1        0.1220
     55 H           7.4541    1.1818    1.4374 H       1  UNL1        0.0439
     56 H           6.3761    1.8369    0.1157 H       1  UNL1        0.0439
     57 H           4.8364    1.4951    1.9257 H       1  UNL1        0.0476
     58 H           5.6617    0.0358    2.4935 H       1  UNL1        0.0476
     59 H           3.0932    1.9584    1.0757 H       1  UNL1        0.0637
     60 H           0.7731    2.2776    0.4599 H       1  UNL1        0.0637
     61 H          -2.0125    2.1654   -1.3599 H       1  UNL1        0.0518
     62 H          -0.2867    2.6401   -1.0114 H       1  UNL1        0.0518
     63 H          -1.4217    0.6023    1.5881 H       1  UNL1        0.0621
     64 H          -2.1826    1.2929    3.7971 H       1  UNL1        0.0618
     65 H          -2.7791    3.6725    4.1897 H       1  UNL1        0.0618
     66 H          -2.5872    5.2752    2.3446 H       1  UNL1        0.0624
     67 H           0.3213    4.7694   -0.4635 H       1  UNL1        0.0625
     68 H           0.3401    6.4708   -2.2375 H       1  UNL1        0.0633
     69 H          -1.6977    7.6025   -2.9133 H       1  UNL1        0.0829
     70 H          -3.9072    5.3586   -0.0967 H       1  UNL1        0.0836
@<TRIPOS>BOND
     1     1     2    2
     2     2     3    1
     3     3     4   ar
     4     4     5   ar
     5     5     6    1
     6     6     7   ar
     7     7     8   ar
     8     8     9   ar
     9     9    10    1
    10     9    11   ar
    11    11    12   ar
    12     5    13   ar
    13    13    14   ar
    14    14    15    1
    15    15    16    1
    16    16    17   ar
    17    17    18   ar
    18    18    19    1
    19    19    20    1
    20    20    21    1
    21    21    22    1
    22    22    23    1
    23    23    24    1
    24    18    25   ar
    25    25    26   ar
    26    26    27   ar
    27    27    28    1
    28    28    29    1
    29    29    30    1
    30    30    31   ar
    31    31    32   ar
    32    32    33   ar
    33    33    34   ar
    34    34    35   ar
    35    35    36    1
    36    36    37   ar
    37    37    38   ar
    38    38    39   ar
    39    39    40   ar
    40    40    41   ar
    41    28     2   am
    42    35    30   ar
    43    41    36   ar
    44    14     3   ar
    45    27    16   ar
    46    12     6   ar
    47    24    19    1
    48     7    42    1
    49     8    43    1
    50    11    44    1
    51    12    45    1
    52    13    46    1
    53    15    47    1
    54    15    48    1
    55    17    49    1
    56    20    50    1
    57    20    51    1
    58    21    52    1
    59    21    53    1
    60    22    54    1
    61    23    55    1
    62    23    56    1
    63    24    57    1
    64    24    58    1
    65    25    59    1
    66    26    60    1
    67    29    61    1
    68    29    62    1
    69    31    63    1
    70    32    64    1
    71    33    65    1
    72    34    66    1
    73    37    67    1
    74    38    68    1
    75    39    69    1
    76    41    70    1
