
     RDKit          3D

 59 63  0  0  0  0  0  0  0  0999 V2000
    4.4758   -1.8222   -0.9940 C   0  0  0  0  0  0  0  0  0  0  0  0
    4.1473   -0.6274   -0.1731 C   0  0  0  0  0  0  0  0  0  0  0  0
    2.8023   -0.2327   -0.0877 C   0  0  0  0  0  0  0  0  0  0  0  0
    2.4308    0.8492    0.6511 C   0  0  0  0  0  0  0  0  0  0  0  0
    1.1419    1.3640    0.8341 N   0  0  0  0  0  0  0  0  0  0  0  0
   -0.0799    0.8548    0.2798 C   0  0  0  0  0  0  0  0  0  0  0  0
    0.0064   -0.1387   -0.4316 O   0  0  0  0  0  0  0  0  0  0  0  0
   -1.3196    1.4357    0.5175 N   0  0  0  0  0  0  0  0  0  0  0  0
   -2.5720    1.0084    0.0192 C   0  0  0  0  0  0  0  0  0  0  0  0
   -3.7262    1.7444    0.3748 C   0  0  0  0  0  0  0  0  0  0  0  0
   -4.9557    1.3977   -0.0612 C   0  0  0  0  0  0  0  0  0  0  0  0
   -5.1738    0.3099   -0.8779 C   0  0  0  0  0  0  0  0  0  0  0  0
   -6.4950   -0.0672   -1.3471 C   0  0  0  0  0  0  0  0  0  0  0  0
   -6.7295   -0.0919   -2.7319 C   0  0  0  0  0  0  0  0  0  0  0  0
   -7.9728   -0.3963   -3.2236 C   0  0  0  0  0  0  0  0  0  0  0  0
   -9.0110   -0.6820   -2.3992 N   0  0  0  0  0  0  0  0  0  0  0  0
   -8.8203   -0.6682   -1.0696 C   0  0  0  0  0  0  0  0  0  0  0  0
   -9.6896   -0.9281   -0.0821 N   0  0  0  0  0  0  0  0  0  0  0  0
   -9.0080   -0.7935    1.0367 N   0  0  0  0  0  0  0  0  0  0  0  0
   -7.7240   -0.4543    0.8065 C   0  0  0  0  0  0  0  0  0  0  0  0
   -6.6844   -0.2478    1.8141 C   0  0  0  0  0  0  0  0  0  0  0  0
   -7.5670   -0.3623   -0.5511 C   0  0  0  0  0  0  0  0  0  0  0  0
   -4.0443   -0.4054   -1.2224 C   0  0  0  0  0  0  0  0  0  0  0  0
   -2.7651   -0.0794   -0.7939 C   0  0  0  0  0  0  0  0  0  0  0  0
    3.4678    1.5288    1.3085 C   0  0  0  0  0  0  0  0  0  0  0  0
    4.7727    1.1534    1.2311 C   0  0  0  0  0  0  0  0  0  0  0  0
    5.1540    0.0424    0.4722 C   0  0  0  0  0  0  0  0  0  0  0  0
    6.5126   -0.3458    0.3857 N   0  0  0  0  0  0  0  0  0  0  0  0
    7.1730   -0.3129   -0.9001 C   0  0  0  0  0  0  0  0  0  0  0  0
    8.6739   -0.1051   -0.7346 C   0  0  0  0  0  0  0  0  0  0  0  0
    8.8700    0.5959    0.4440 O   0  0  0  0  0  0  0  0  0  0  0  0
    8.6771   -0.2691    1.5243 C   0  0  0  0  0  0  0  0  0  0  0  0
    7.2451   -0.7707    1.5669 C   0  0  0  0  0  0  0  0  0  0  0  0
    4.6608   -1.6080   -2.0447 H   0  0  0  0  0  0  0  0  0  0  0  0
    3.5641   -2.4848   -0.9656 H   0  0  0  0  0  0  0  0  0  0  0  0
    5.2608   -2.4569   -0.4991 H   0  0  0  0  0  0  0  0  0  0  0  0
    2.0673   -0.8086   -0.6232 H   0  0  0  0  0  0  0  0  0  0  0  0
    0.9894    2.2275    1.4414 H   0  0  0  0  0  0  0  0  0  0  0  0
   -1.3233    2.2988    1.1457 H   0  0  0  0  0  0  0  0  0  0  0  0
   -3.6000    2.6237    1.0275 H   0  0  0  0  0  0  0  0  0  0  0  0
   -5.7944    2.0255    0.2616 H   0  0  0  0  0  0  0  0  0  0  0  0
   -5.8889    0.1388   -3.3809 H   0  0  0  0  0  0  0  0  0  0  0  0
   -8.1221   -0.4070   -4.2917 H   0  0  0  0  0  0  0  0  0  0  0  0
  -10.6993   -1.1864   -0.1336 H   0  0  0  0  0  0  0  0  0  0  0  0
   -6.6200    0.7971    2.1476 H   0  0  0  0  0  0  0  0  0  0  0  0
   -7.0499   -0.8031    2.7425 H   0  0  0  0  0  0  0  0  0  0  0  0
   -5.7140   -0.7381    1.5950 H   0  0  0  0  0  0  0  0  0  0  0  0
   -4.1851   -1.2696   -1.8664 H   0  0  0  0  0  0  0  0  0  0  0  0
   -1.9204   -0.6923   -1.1075 H   0  0  0  0  0  0  0  0  0  0  0  0
    3.2461    2.3970    1.9130 H   0  0  0  0  0  0  0  0  0  0  0  0
    5.5879    1.6624    1.7295 H   0  0  0  0  0  0  0  0  0  0  0  0
    6.8171    0.6068   -1.4521 H   0  0  0  0  0  0  0  0  0  0  0  0
    6.9530   -1.1530   -1.5568 H   0  0  0  0  0  0  0  0  0  0  0  0
    9.1355   -1.1218   -0.7041 H   0  0  0  0  0  0  0  0  0  0  0  0
    9.0640    0.5047   -1.5591 H   0  0  0  0  0  0  0  0  0  0  0  0
    8.9594    0.2763    2.4424 H   0  0  0  0  0  0  0  0  0  0  0  0
    9.3917   -1.1019    1.3948 H   0  0  0  0  0  0  0  0  0  0  0  0
    7.2406   -1.8612    1.6607 H   0  0  0  0  0  0  0  0  0  0  0  0
    6.7672   -0.3496    2.4743 H   0  0  0  0  0  0  0  0  0  0  0  0
  1  2  1  0
  2  3  2  0
  3  4  1  0
  4  5  1  0
  5  6  1  0
  6  7  2  0
  6  8  1  0
  8  9  1  0
  9 10  2  0
 10 11  1  0
 11 12  2  0
 12 13  1  0
 13 14  2  0
 14 15  1  0
 15 16  2  0
 16 17  1  0
 17 18  1  0
 18 19  1  0
 19 20  2  0
 20 21  1  0
 20 22  1  0
 12 23  1  0
 23 24  2  0
  4 25  2  0
 25 26  1  0
 26 27  2  0
 27 28  1  0
 28 29  1  0
 29 30  1  0
 30 31  1  0
 31 32  1  0
 32 33  1  0
 27  2  1  0
 33 28  1  0
 24  9  1  0
 22 13  1  0
 22 17  2  0
  1 34  1  0
  1 35  1  0
  1 36  1  0
  3 37  1  0
  5 38  1  0
  8 39  1  0
 10 40  1  0
 11 41  1  0
 14 42  1  0
 15 43  1  0
 18 44  1  0
 21 45  1  0
 21 46  1  0
 21 47  1  0
 23 48  1  0
 24 49  1  0
 25 50  1  0
 26 51  1  0
 29 52  1  0
 29 53  1  0
 30 54  1  0
 30 55  1  0
 32 56  1  0
 32 57  1  0
 33 58  1  0
 33 59  1  0
M  END
$$$$
