@<TRIPOS>MOLECULE
*****
 59 63 0 0 0
SMALL
GASTEIGER

@<TRIPOS>ATOM
      1 C           4.4758   -1.8222   -0.9940 C.3     1  UNL1       -0.0379
      2 C           4.1473   -0.6274   -0.1731 C.ar    1  UNL1       -0.0277
      3 C           2.8023   -0.2327   -0.0877 C.ar    1  UNL1       -0.0358
      4 C           2.4308    0.8492    0.6511 C.ar    1  UNL1        0.0351
      5 N           1.1419    1.3640    0.8341 N.am    1  UNL1       -0.2692
      6 C          -0.0799    0.8548    0.2798 C.2     1  UNL1        0.3081
      7 O           0.0064   -0.1387   -0.4316 O.2     1  UNL1       -0.2522
      8 N          -1.3196    1.4357    0.5175 N.am    1  UNL1       -0.2692
      9 C          -2.5720    1.0084    0.0192 C.ar    1  UNL1        0.0348
     10 C          -3.7262    1.7444    0.3748 C.ar    1  UNL1       -0.0399
     11 C          -4.9557    1.3977   -0.0612 C.ar    1  UNL1       -0.0523
     12 C          -5.1738    0.3099   -0.8779 C.ar    1  UNL1       -0.0170
     13 C          -6.4950   -0.0672   -1.3471 C.ar    1  UNL1       -0.0040
     14 C          -6.7295   -0.0919   -2.7319 C.ar    1  UNL1       -0.0351
     15 C          -7.9728   -0.3963   -3.2236 C.ar    1  UNL1        0.0306
     16 N          -9.0110   -0.6820   -2.3992 N.ar    1  UNL1       -0.2360
     17 C          -8.8203   -0.6682   -1.0696 C.ar    1  UNL1        0.1564
     18 N          -9.6896   -0.9281   -0.0821 N.ar    1  UNL1       -0.2599
     19 N          -9.0080   -0.7935    1.0367 N.ar    1  UNL1       -0.1767
     20 C          -7.7240   -0.4543    0.8065 C.ar    1  UNL1        0.0696
     21 C          -6.6844   -0.2478    1.8141 C.3     1  UNL1       -0.0200
     22 C          -7.5670   -0.3623   -0.5511 C.ar    1  UNL1        0.0490
     23 C          -4.0443   -0.4054   -1.2224 C.ar    1  UNL1       -0.0523
     24 C          -2.7651   -0.0794   -0.7939 C.ar    1  UNL1       -0.0399
     25 C           3.4678    1.5288    1.3085 C.ar    1  UNL1       -0.0387
     26 C           4.7727    1.1534    1.2311 C.ar    1  UNL1       -0.0387
     27 C           5.1540    0.0424    0.4722 C.ar    1  UNL1        0.0329
     28 N           6.5126   -0.3458    0.3857 N.pl3   1  UNL1       -0.3253
     29 C           7.1730   -0.3129   -0.9001 C.3     1  UNL1        0.0357
     30 C           8.6739   -0.1051   -0.7346 C.3     1  UNL1        0.0634
     31 O           8.8700    0.5959    0.4440 O.3     1  UNL1       -0.3767
     32 C           8.6771   -0.2691    1.5243 C.3     1  UNL1        0.0634
     33 C           7.2451   -0.7707    1.5669 C.3     1  UNL1        0.0357
     34 H           4.6608   -1.6080   -2.0447 H       1  UNL1        0.0278
     35 H           3.5641   -2.4848   -0.9656 H       1  UNL1        0.0278
     36 H           5.2608   -2.4569   -0.4991 H       1  UNL1        0.0278
     37 H           2.0673   -0.8086   -0.6232 H       1  UNL1        0.0639
     38 H           0.9894    2.2275    1.4414 H       1  UNL1        0.1564
     39 H          -1.3233    2.2988    1.1457 H       1  UNL1        0.1564
     40 H          -3.6000    2.6237    1.0275 H       1  UNL1        0.0636
     41 H          -5.7944    2.0255    0.2616 H       1  UNL1        0.0624
     42 H          -5.8889    0.1388   -3.3809 H       1  UNL1        0.0639
     43 H          -8.1221   -0.4070   -4.2917 H       1  UNL1        0.0830
     44 H         -10.6993   -1.1864   -0.1336 H       1  UNL1        0.1905
     45 H          -6.6200    0.7971    2.1476 H       1  UNL1        0.0293
     46 H          -7.0499   -0.8031    2.7425 H       1  UNL1        0.0293
     47 H          -5.7140   -0.7381    1.5950 H       1  UNL1        0.0293
     48 H          -4.1851   -1.2696   -1.8664 H       1  UNL1        0.0624
     49 H          -1.9204   -0.6923   -1.1075 H       1  UNL1        0.0636
     50 H           3.2461    2.3970    1.9130 H       1  UNL1        0.0637
     51 H           5.5879    1.6624    1.7295 H       1  UNL1        0.0637
     52 H           6.8171    0.6068   -1.4521 H       1  UNL1        0.0486
     53 H           6.9530   -1.1530   -1.5568 H       1  UNL1        0.0486
     54 H           9.1355   -1.1218   -0.7041 H       1  UNL1        0.0575
     55 H           9.0640    0.5047   -1.5591 H       1  UNL1        0.0575
     56 H           8.9594    0.2763    2.4424 H       1  UNL1        0.0575
     57 H           9.3917   -1.1019    1.3948 H       1  UNL1        0.0575
     58 H           7.2406   -1.8612    1.6607 H       1  UNL1        0.0486
     59 H           6.7672   -0.3496    2.4743 H       1  UNL1        0.0486
@<TRIPOS>BOND
     1     1     2    1
     2     2     3   ar
     3     3     4   ar
     4     4     5    1
     5     5     6   am
     6     6     7    2
     7     6     8   am
     8     8     9    1
     9     9    10   ar
    10    10    11   ar
    11    11    12   ar
    12    12    13    1
    13    13    14   ar
    14    14    15   ar
    15    15    16   ar
    16    16    17   ar
    17    17    18   ar
    18    18    19   ar
    19    19    20   ar
    20    20    21    1
    21    20    22   ar
    22    12    23   ar
    23    23    24   ar
    24     4    25   ar
    25    25    26   ar
    26    26    27   ar
    27    27    28    1
    28    28    29    1
    29    29    30    1
    30    30    31    1
    31    31    32    1
    32    32    33    1
    33    27     2   ar
    34    33    28    1
    35    24     9   ar
    36    22    13   ar
    37    22    17   ar
    38     1    34    1
    39     1    35    1
    40     1    36    1
    41     3    37    1
    42     5    38    1
    43     8    39    1
    44    10    40    1
    45    11    41    1
    46    14    42    1
    47    15    43    1
    48    18    44    1
    49    21    45    1
    50    21    46    1
    51    21    47    1
    52    23    48    1
    53    24    49    1
    54    25    50    1
    55    26    51    1
    56    29    52    1
    57    29    53    1
    58    30    54    1
    59    30    55    1
    60    32    56    1
    61    32    57    1
    62    33    58    1
    63    33    59    1
