@<TRIPOS>MOLECULE
*****
 59 63 0 0 0
SMALL
GASTEIGER

@<TRIPOS>ATOM
      1 C           8.5309   -0.5697    1.3904 C.3     1  UNL1        0.0833
      2 O           7.1310   -0.2907    1.3208 O.3     1  UNL1       -0.4536
      3 C           6.5073   -0.0421    0.1070 C.2     1  UNL1        0.4026
      4 O           7.2387   -0.0759   -0.9205 O.2     1  UNL1       -0.2263
      5 N           5.1169    0.2384    0.0052 N.am    1  UNL1       -0.2673
      6 C           4.3118    0.2682    1.2060 C.3     1  UNL1        0.0197
      7 C           3.0264    1.0403    1.0004 C.3     1  UNL1       -0.0144
      8 C           2.2456    0.5811   -0.1995 C.3     1  UNL1        0.0578
      9 N           1.1214   -0.2479    0.1848 N.ar    1  UNL1       -0.2431
     10 N           1.2127   -1.4010    0.8095 N.ar    1  UNL1       -0.1768
     11 C          -0.0067   -1.9263    1.0252 C.ar    1  UNL1        0.0620
     12 C          -0.9331   -1.0448    0.5009 C.ar    1  UNL1        0.0785
     13 C          -2.3157   -1.0839    0.4470 C.ar    1  UNL1        0.1361
     14 N          -3.0796   -2.1568    0.9798 N.pl3   1  UNL1       -0.3101
     15 C          -2.8820   -3.4707    0.4546 C.3     1  UNL1        0.0370
     16 C          -3.0077   -4.5567    1.4879 C.3     1  UNL1        0.0634
     17 O          -3.8367   -4.2167    2.5365 O.3     1  UNL1       -0.3767
     18 C          -4.7986   -3.2681    2.1948 C.3     1  UNL1        0.0634
     19 C          -4.0406   -1.9436    2.0305 C.3     1  UNL1        0.0370
     20 N          -2.9314   -0.0322   -0.1512 N.ar    1  UNL1       -0.2118
     21 C          -2.2051    0.9931   -0.6624 C.ar    1  UNL1        0.1641
     22 C          -2.9060    2.0943   -1.2918 C.ar    1  UNL1        0.0194
     23 C          -2.2064    3.1555   -1.8237 C.ar    1  UNL1       -0.0493
     24 C          -2.8639    4.2097   -2.4254 C.ar    1  UNL1       -0.0404
     25 C          -4.2375    4.2509   -2.5219 C.ar    1  UNL1        0.0246
     26 N          -4.9366    5.3196   -3.1336 N.pl3   1  UNL1       -0.3580
     27 C          -4.9313    3.1843   -1.9867 C.ar    1  UNL1       -0.0404
     28 C          -4.2951    2.1158   -1.3785 C.ar    1  UNL1       -0.0493
     29 N          -0.8622    1.0100   -0.5988 N.ar    1  UNL1       -0.2080
     30 C          -0.1865   -0.0067   -0.0162 C.ar    1  UNL1        0.1642
     31 C           3.0792   -0.0770   -1.2575 C.3     1  UNL1       -0.0144
     32 C           4.4665    0.4959   -1.2450 C.3     1  UNL1        0.0197
     33 H           8.9815   -0.3902    0.3979 H       1  UNL1        0.0661
     34 H           8.6625   -1.6344    1.6265 H       1  UNL1        0.0661
     35 H           9.0320    0.1016    2.1195 H       1  UNL1        0.0661
     36 H           4.8882    0.8154    1.9825 H       1  UNL1        0.0466
     37 H           4.1373   -0.7470    1.5690 H       1  UNL1        0.0466
     38 H           3.2212    2.1331    1.0054 H       1  UNL1        0.0301
     39 H           2.3975    0.8400    1.9008 H       1  UNL1        0.0301
     40 H           1.8264    1.5194   -0.6698 H       1  UNL1        0.0546
     41 H          -0.2753   -2.8552    1.5104 H       1  UNL1        0.0856
     42 H          -1.9262   -3.5084   -0.0979 H       1  UNL1        0.0487
     43 H          -3.6946   -3.6522   -0.2963 H       1  UNL1        0.0487
     44 H          -1.9970   -4.7468    1.9050 H       1  UNL1        0.0575
     45 H          -3.3621   -5.5138    1.0608 H       1  UNL1        0.0575
     46 H          -5.4866   -3.1536    3.0372 H       1  UNL1        0.0575
     47 H          -5.3657   -3.5313    1.2958 H       1  UNL1        0.0575
     48 H          -3.4619   -1.8271    2.9886 H       1  UNL1        0.0487
     49 H          -4.7217   -1.1118    1.8505 H       1  UNL1        0.0487
     50 H          -1.1115    3.2118   -1.7947 H       1  UNL1        0.0625
     51 H          -2.3067    5.0480   -2.8454 H       1  UNL1        0.0636
     52 H          -4.4418    5.9390   -3.8043 H       1  UNL1        0.1423
     53 H          -5.9423    5.4840   -2.9121 H       1  UNL1        0.1423
     54 H          -6.0131    3.1690   -2.0370 H       1  UNL1        0.0636
     55 H          -4.8232    1.2817   -0.9591 H       1  UNL1        0.0625
     56 H           2.6152    0.1089   -2.2411 H       1  UNL1        0.0301
     57 H           3.1719   -1.1678   -1.0757 H       1  UNL1        0.0301
     58 H           4.4479    1.5986   -1.4745 H       1  UNL1        0.0466
     59 H           5.0227    0.0429   -2.1101 H       1  UNL1        0.0466
@<TRIPOS>BOND
     1     1     2    1
     2     2     3    1
     3     3     4    2
     4     3     5   am
     5     5     6    1
     6     6     7    1
     7     7     8    1
     8     8     9    1
     9     9    10   ar
    10    10    11   ar
    11    11    12   ar
    12    12    13   ar
    13    13    14    1
    14    14    15    1
    15    15    16    1
    16    16    17    1
    17    17    18    1
    18    18    19    1
    19    13    20   ar
    20    20    21   ar
    21    21    22    1
    22    22    23   ar
    23    23    24   ar
    24    24    25   ar
    25    25    26    1
    26    25    27   ar
    27    27    28   ar
    28    21    29   ar
    29    29    30   ar
    30     8    31    1
    31    31    32    1
    32    32     5    1
    33    30     9   ar
    34    30    12   ar
    35    19    14    1
    36    28    22   ar
    37     1    33    1
    38     1    34    1
    39     1    35    1
    40     6    36    1
    41     6    37    1
    42     7    38    1
    43     7    39    1
    44     8    40    1
    45    11    41    1
    46    15    42    1
    47    15    43    1
    48    16    44    1
    49    16    45    1
    50    18    46    1
    51    18    47    1
    52    19    48    1
    53    19    49    1
    54    23    50    1
    55    24    51    1
    56    26    52    1
    57    26    53    1
    58    27    54    1
    59    28    55    1
    60    31    56    1
    61    31    57    1
    62    32    58    1
    63    32    59    1
