
     RDKit          3D

 59 63  0  0  0  0  0  0  0  0999 V2000
    8.5309   -0.5697    1.3904 C   0  0  0  0  0  0  0  0  0  0  0  0
    7.1310   -0.2907    1.3208 O   0  0  0  0  0  0  0  0  0  0  0  0
    6.5073   -0.0421    0.1070 C   0  0  0  0  0  0  0  0  0  0  0  0
    7.2387   -0.0759   -0.9205 O   0  0  0  0  0  0  0  0  0  0  0  0
    5.1169    0.2384    0.0052 N   0  0  0  0  0  0  0  0  0  0  0  0
    4.3118    0.2682    1.2060 C   0  0  0  0  0  0  0  0  0  0  0  0
    3.0264    1.0403    1.0004 C   0  0  0  0  0  0  0  0  0  0  0  0
    2.2456    0.5811   -0.1995 C   0  0  0  0  0  0  0  0  0  0  0  0
    1.1214   -0.2479    0.1848 N   0  0  0  0  0  0  0  0  0  0  0  0
    1.2127   -1.4010    0.8095 N   0  0  0  0  0  0  0  0  0  0  0  0
   -0.0067   -1.9263    1.0252 C   0  0  0  0  0  0  0  0  0  0  0  0
   -0.9331   -1.0448    0.5009 C   0  0  0  0  0  0  0  0  0  0  0  0
   -2.3157   -1.0839    0.4470 C   0  0  0  0  0  0  0  0  0  0  0  0
   -3.0796   -2.1568    0.9798 N   0  0  0  0  0  0  0  0  0  0  0  0
   -2.8820   -3.4707    0.4546 C   0  0  0  0  0  0  0  0  0  0  0  0
   -3.0077   -4.5567    1.4879 C   0  0  0  0  0  0  0  0  0  0  0  0
   -3.8367   -4.2167    2.5365 O   0  0  0  0  0  0  0  0  0  0  0  0
   -4.7986   -3.2681    2.1948 C   0  0  0  0  0  0  0  0  0  0  0  0
   -4.0406   -1.9436    2.0305 C   0  0  0  0  0  0  0  0  0  0  0  0
   -2.9314   -0.0322   -0.1512 N   0  0  0  0  0  0  0  0  0  0  0  0
   -2.2051    0.9931   -0.6624 C   0  0  0  0  0  0  0  0  0  0  0  0
   -2.9060    2.0943   -1.2918 C   0  0  0  0  0  0  0  0  0  0  0  0
   -2.2064    3.1555   -1.8237 C   0  0  0  0  0  0  0  0  0  0  0  0
   -2.8639    4.2097   -2.4254 C   0  0  0  0  0  0  0  0  0  0  0  0
   -4.2375    4.2509   -2.5219 C   0  0  0  0  0  0  0  0  0  0  0  0
   -4.9366    5.3196   -3.1336 N   0  0  0  0  0  0  0  0  0  0  0  0
   -4.9313    3.1843   -1.9867 C   0  0  0  0  0  0  0  0  0  0  0  0
   -4.2951    2.1158   -1.3785 C   0  0  0  0  0  0  0  0  0  0  0  0
   -0.8622    1.0100   -0.5988 N   0  0  0  0  0  0  0  0  0  0  0  0
   -0.1865   -0.0067   -0.0162 C   0  0  0  0  0  0  0  0  0  0  0  0
    3.0792   -0.0770   -1.2575 C   0  0  0  0  0  0  0  0  0  0  0  0
    4.4665    0.4959   -1.2450 C   0  0  0  0  0  0  0  0  0  0  0  0
    8.9815   -0.3902    0.3979 H   0  0  0  0  0  0  0  0  0  0  0  0
    8.6625   -1.6344    1.6265 H   0  0  0  0  0  0  0  0  0  0  0  0
    9.0320    0.1016    2.1195 H   0  0  0  0  0  0  0  0  0  0  0  0
    4.8882    0.8154    1.9825 H   0  0  0  0  0  0  0  0  0  0  0  0
    4.1373   -0.7470    1.5690 H   0  0  0  0  0  0  0  0  0  0  0  0
    3.2212    2.1331    1.0054 H   0  0  0  0  0  0  0  0  0  0  0  0
    2.3975    0.8400    1.9008 H   0  0  0  0  0  0  0  0  0  0  0  0
    1.8264    1.5194   -0.6698 H   0  0  0  0  0  0  0  0  0  0  0  0
   -0.2753   -2.8552    1.5104 H   0  0  0  0  0  0  0  0  0  0  0  0
   -1.9262   -3.5084   -0.0979 H   0  0  0  0  0  0  0  0  0  0  0  0
   -3.6946   -3.6522   -0.2963 H   0  0  0  0  0  0  0  0  0  0  0  0
   -1.9970   -4.7468    1.9050 H   0  0  0  0  0  0  0  0  0  0  0  0
   -3.3621   -5.5138    1.0608 H   0  0  0  0  0  0  0  0  0  0  0  0
   -5.4866   -3.1536    3.0372 H   0  0  0  0  0  0  0  0  0  0  0  0
   -5.3657   -3.5313    1.2958 H   0  0  0  0  0  0  0  0  0  0  0  0
   -3.4619   -1.8271    2.9886 H   0  0  0  0  0  0  0  0  0  0  0  0
   -4.7217   -1.1118    1.8505 H   0  0  0  0  0  0  0  0  0  0  0  0
   -1.1115    3.2118   -1.7947 H   0  0  0  0  0  0  0  0  0  0  0  0
   -2.3067    5.0480   -2.8454 H   0  0  0  0  0  0  0  0  0  0  0  0
   -4.4418    5.9390   -3.8043 H   0  0  0  0  0  0  0  0  0  0  0  0
   -5.9423    5.4840   -2.9121 H   0  0  0  0  0  0  0  0  0  0  0  0
   -6.0131    3.1690   -2.0370 H   0  0  0  0  0  0  0  0  0  0  0  0
   -4.8232    1.2817   -0.9591 H   0  0  0  0  0  0  0  0  0  0  0  0
    2.6152    0.1089   -2.2411 H   0  0  0  0  0  0  0  0  0  0  0  0
    3.1719   -1.1678   -1.0757 H   0  0  0  0  0  0  0  0  0  0  0  0
    4.4479    1.5986   -1.4745 H   0  0  0  0  0  0  0  0  0  0  0  0
    5.0227    0.0429   -2.1101 H   0  0  0  0  0  0  0  0  0  0  0  0
  1  2  1  0
  2  3  1  0
  3  4  2  0
  3  5  1  0
  5  6  1  0
  6  7  1  0
  7  8  1  0
  8  9  1  0
  9 10  1  0
 10 11  2  0
 11 12  1  0
 12 13  2  0
 13 14  1  0
 14 15  1  0
 15 16  1  0
 16 17  1  0
 17 18  1  0
 18 19  1  0
 13 20  1  0
 20 21  2  0
 21 22  1  0
 22 23  2  0
 23 24  1  0
 24 25  2  0
 25 26  1  0
 25 27  1  0
 27 28  2  0
 21 29  1  0
 29 30  2  0
  8 31  1  0
 31 32  1  0
 32  5  1  0
 30  9  1  0
 30 12  1  0
 19 14  1  0
 28 22  1  0
  1 33  1  0
  1 34  1  0
  1 35  1  0
  6 36  1  0
  6 37  1  0
  7 38  1  0
  7 39  1  0
  8 40  1  0
 11 41  1  0
 15 42  1  0
 15 43  1  0
 16 44  1  0
 16 45  1  0
 18 46  1  0
 18 47  1  0
 19 48  1  0
 19 49  1  0
 23 50  1  0
 24 51  1  0
 26 52  1  0
 26 53  1  0
 27 54  1  0
 28 55  1  0
 31 56  1  0
 31 57  1  0
 32 58  1  0
 32 59  1  0
M  END
$$$$
