@<TRIPOS>MOLECULE
*****
 19 19 0 0 0
SMALL
GASTEIGER

@<TRIPOS>ATOM
      1 O          -3.1203   -1.3945   -0.8336 O.3     1  UNL1        0.0000
      2 B          -2.5204   -0.2609   -0.1811 B       1  UNL1        0.0000
      3 O          -3.1753    1.0510   -0.3720 O.3     1  UNL1        0.0000
      4 C          -1.0282   -0.2134    0.2914 C.ar    1  UNL1        0.0000
      5 C          -0.6677   -0.5081    1.5872 C.ar    1  UNL1        0.0000
      6 C           0.6296   -0.4796    2.0471 C.ar    1  UNL1        0.0000
      7 C           1.6177   -0.1308    1.1352 C.ar    1  UNL1        0.0000
      8 C           1.3140    0.1739   -0.1743 C.ar    1  UNL1        0.0000
      9 C           2.3621    0.5484   -1.1593 C.3     1  UNL1        0.0000
     10 F           1.8268    1.2516   -2.2167 F       1  UNL1        0.0000
     11 F           3.2859    1.3643   -0.5038 F       1  UNL1        0.0000
     12 F           3.0500   -0.5772   -1.6110 F       1  UNL1        0.0000
     13 C          -0.0012    0.1288   -0.5784 C.ar    1  UNL1        0.0000
     14 H          -2.8656   -1.3453   -1.8092 H       1  UNL1        0.0000
     15 H          -2.5298    1.6232   -0.8532 H       1  UNL1        0.0000
     16 H          -1.4673   -0.7772    2.2743 H       1  UNL1        0.0000
     17 H           0.9037   -0.7151    3.0768 H       1  UNL1        0.0000
     18 H           2.6280   -0.1065    1.4854 H       1  UNL1        0.0000
     19 H          -0.2420    0.3674   -1.6048 H       1  UNL1        0.0000
@<TRIPOS>BOND
     1     1     2    1
     2     2     3    1
     3     2     4    1
     4     4     5   ar
     5     5     6   ar
     6     6     7   ar
     7     7     8   ar
     8     8     9    1
     9     9    10    1
    10     9    11    1
    11     9    12    1
    12     8    13   ar
    13    13     4   ar
    14     1    14    1
    15     3    15    1
    16     5    16    1
    17     6    17    1
    18     7    18    1
    19    13    19    1
