@<TRIPOS>MOLECULE
*****
 67 71 0 0 0
SMALL
GASTEIGER

@<TRIPOS>ATOM
      1 C           1.1070    0.6144    0.7199 C.3     1  UNL1        0.0415
      2 C           1.0665    2.1110    0.3805 C.3     1  UNL1       -0.0411
      3 C          -0.4162    2.4215    0.1906 C.3     1  UNL1       -0.0487
      4 C          -1.0867    1.1215    0.4062 C.3     1  UNL1       -0.0318
      5 C          -2.3484    0.8787   -0.3295 C.3     1  UNL1       -0.0340
      6 C          -3.3187    2.0065   -0.3011 C.3     1  UNL1       -0.0480
      7 C          -4.6378    1.5811   -0.9183 C.3     1  UNL1       -0.0334
      8 C          -5.1741    0.4828   -0.0280 C.3     1  UNL1        0.0325
      9 N          -6.5365    0.1306   -0.2869 N.am    1  UNL1       -0.3082
     10 C          -7.0775   -0.8854    0.5829 C.2     1  UNL1        0.2369
     11 O          -8.2907   -0.9908    0.9051 O.2     1  UNL1       -0.2708
     12 C          -6.1161   -1.8695    1.1268 C.2     1  UNL1       -0.0032
     13 C          -4.8201   -1.7633    0.7855 C.2     1  UNL1       -0.0712
     14 C          -4.2794   -0.7132   -0.1123 C.3     1  UNL1        0.0078
     15 C          -4.3231   -1.2588   -1.5397 C.3     1  UNL1       -0.0541
     16 C          -2.8771   -0.4124    0.2906 C.3     1  UNL1       -0.0274
     17 C          -1.9400   -1.5040   -0.1182 C.3     1  UNL1       -0.0486
     18 C          -0.5220   -1.2423    0.2688 C.3     1  UNL1       -0.0464
     19 C          -0.0271    0.1246   -0.0927 C.3     1  UNL1       -0.0179
     20 C           0.0932    0.3481   -1.5582 C.3     1  UNL1       -0.0586
     21 C           2.4102    0.0212    0.3996 C.2     1  UNL1        0.2208
     22 O           2.3734   -0.9002   -0.4203 O.2     1  UNL1       -0.2751
     23 N           3.6364    0.4443    0.9648 N.am    1  UNL1       -0.2847
     24 C           4.9324   -0.0670    0.7151 C.ar    1  UNL1        0.0456
     25 C           5.2644   -1.0784   -0.1309 C.ar    1  UNL1       -0.0283
     26 C           6.5411   -1.5379   -0.3390 C.ar    1  UNL1        0.0566
     27 C           7.5958   -0.9645    0.3354 C.ar    1  UNL1       -0.0495
     28 C           7.2864    0.0568    1.1938 C.ar    1  UNL1       -0.0478
     29 C           5.9884    0.5023    1.3861 C.ar    1  UNL1        0.0760
     30 C           5.7970    1.6286    2.3592 C.3     1  UNL1        0.4191
     31 F           4.9790    1.2127    3.3699 F       1  UNL1       -0.1658
     32 F           5.2588    2.6888    1.6287 F       1  UNL1       -0.1658
     33 F           6.9847    2.0524    2.8700 F       1  UNL1       -0.1658
     34 C           6.8395   -2.6470   -1.2770 C.3     1  UNL1        0.4175
     35 F           7.1035   -2.0535   -2.5073 F       1  UNL1       -0.1659
     36 F           5.8022   -3.5539   -1.3669 F       1  UNL1       -0.1659
     37 F           7.9717   -3.3003   -0.8356 F       1  UNL1       -0.1659
     38 H           0.8954    0.5004    1.7820 H       1  UNL1        0.0400
     39 H           1.5388    2.2580   -0.5981 H       1  UNL1        0.0273
     40 H           1.5196    2.7017    1.2025 H       1  UNL1        0.0273
     41 H          -0.6299    2.9470   -0.7435 H       1  UNL1        0.0268
     42 H          -0.7057    3.0988    1.0284 H       1  UNL1        0.0268
     43 H          -1.2340    0.9090    1.4785 H       1  UNL1        0.0309
     44 H          -2.1876    0.6239   -1.4144 H       1  UNL1        0.0307
     45 H          -3.4323    2.4882    0.6819 H       1  UNL1        0.0269
     46 H          -2.9202    2.7905   -0.9774 H       1  UNL1        0.0269
     47 H          -4.4311    1.2035   -1.9236 H       1  UNL1        0.0283
     48 H          -5.3760    2.4023   -0.9038 H       1  UNL1        0.0283
     49 H          -5.1054    0.8626    1.0267 H       1  UNL1        0.0507
     50 H          -7.2258    0.4878   -1.0113 H       1  UNL1        0.1493
     51 H          -6.3960   -2.6781    1.7898 H       1  UNL1        0.0666
     52 H          -4.1077   -2.4931    1.1898 H       1  UNL1        0.0580
     53 H          -5.3327   -0.9968   -1.9470 H       1  UNL1        0.0239
     54 H          -4.1407   -2.3345   -1.5167 H       1  UNL1        0.0239
     55 H          -3.5820   -0.6858   -2.1234 H       1  UNL1        0.0239
     56 H          -2.8325   -0.2877    1.3821 H       1  UNL1        0.0312
     57 H          -2.0302   -1.6507   -1.2146 H       1  UNL1        0.0268
     58 H          -2.2214   -2.4893    0.3222 H       1  UNL1        0.0268
     59 H          -0.3815   -1.4025    1.3563 H       1  UNL1        0.0271
     60 H           0.1265   -1.9833   -0.2447 H       1  UNL1        0.0271
     61 H           1.0885    0.2612   -1.9910 H       1  UNL1        0.0235
     62 H          -0.3200    1.3110   -1.9221 H       1  UNL1        0.0235
     63 H          -0.5376   -0.4364   -2.0636 H       1  UNL1        0.0235
     64 H           3.4962    1.2292    1.6358 H       1  UNL1        0.1548
     65 H           4.5127   -1.5797   -0.6939 H       1  UNL1        0.0642
     66 H           8.6228   -1.2667    0.2280 H       1  UNL1        0.0623
     67 H           8.0894    0.5242    1.7346 H       1  UNL1        0.0624
@<TRIPOS>BOND
     1     1     2    1
     2     2     3    1
     3     3     4    1
     4     4     5    1
     5     5     6    1
     6     6     7    1
     7     7     8    1
     8     8     9    1
     9     9    10   am
    10    10    11    2
    11    10    12    1
    12    12    13    2
    13    13    14    1
    14    14    15    1
    15    14    16    1
    16    16    17    1
    17    17    18    1
    18    18    19    1
    19    19    20    1
    20     1    21    1
    21    21    22    2
    22    21    23   am
    23    23    24    1
    24    24    25   ar
    25    25    26   ar
    26    26    27   ar
    27    27    28   ar
    28    28    29   ar
    29    29    30    1
    30    30    31    1
    31    30    32    1
    32    30    33    1
    33    26    34    1
    34    34    35    1
    35    34    36    1
    36    34    37    1
    37    19     1    1
    38    29    24   ar
    39    19     4    1
    40    16     5    1
    41    14     8    1
    42     1    38    1
    43     2    39    1
    44     2    40    1
    45     3    41    1
    46     3    42    1
    47     4    43    1
    48     5    44    1
    49     6    45    1
    50     6    46    1
    51     7    47    1
    52     7    48    1
    53     8    49    1
    54     9    50    1
    55    12    51    1
    56    13    52    1
    57    15    53    1
    58    15    54    1
    59    15    55    1
    60    16    56    1
    61    17    57    1
    62    17    58    1
    63    18    59    1
    64    18    60    1
    65    20    61    1
    66    20    62    1
    67    20    63    1
    68    23    64    1
    69    25    65    1
    70    27    66    1
    71    28    67    1
