
     RDKit          3D

 67 71  0  0  0  0  0  0  0  0999 V2000
    1.1070    0.6144    0.7199 C   0  0  1  0  0  0  0  0  0  0  0  0
    1.0665    2.1110    0.3805 C   0  0  0  0  0  0  0  0  0  0  0  0
   -0.4162    2.4215    0.1906 C   0  0  0  0  0  0  0  0  0  0  0  0
   -1.0867    1.1215    0.4062 C   0  0  1  0  0  0  0  0  0  0  0  0
   -2.3484    0.8787   -0.3295 C   0  0  2  0  0  0  0  0  0  0  0  0
   -3.3187    2.0065   -0.3011 C   0  0  0  0  0  0  0  0  0  0  0  0
   -4.6378    1.5811   -0.9183 C   0  0  0  0  0  0  0  0  0  0  0  0
   -5.1741    0.4828   -0.0280 C   0  0  1  0  0  0  0  0  0  0  0  0
   -6.5365    0.1306   -0.2869 N   0  0  0  0  0  0  0  0  0  0  0  0
   -7.0775   -0.8854    0.5829 C   0  0  0  0  0  0  0  0  0  0  0  0
   -8.2907   -0.9908    0.9051 O   0  0  0  0  0  0  0  0  0  0  0  0
   -6.1161   -1.8695    1.1268 C   0  0  0  0  0  0  0  0  0  0  0  0
   -4.8201   -1.7633    0.7855 C   0  0  0  0  0  0  0  0  0  0  0  0
   -4.2794   -0.7132   -0.1123 C   0  0  1  0  0  0  0  0  0  0  0  0
   -4.3231   -1.2588   -1.5397 C   0  0  0  0  0  0  0  0  0  0  0  0
   -2.8771   -0.4124    0.2906 C   0  0  1  0  0  0  0  0  0  0  0  0
   -1.9400   -1.5040   -0.1182 C   0  0  0  0  0  0  0  0  0  0  0  0
   -0.5220   -1.2423    0.2688 C   0  0  0  0  0  0  0  0  0  0  0  0
   -0.0271    0.1246   -0.0927 C   0  0  2  0  0  0  0  0  0  0  0  0
    0.0932    0.3481   -1.5582 C   0  0  0  0  0  0  0  0  0  0  0  0
    2.4102    0.0212    0.3996 C   0  0  0  0  0  0  0  0  0  0  0  0
    2.3734   -0.9002   -0.4203 O   0  0  0  0  0  0  0  0  0  0  0  0
    3.6364    0.4443    0.9648 N   0  0  0  0  0  0  0  0  0  0  0  0
    4.9324   -0.0670    0.7151 C   0  0  0  0  0  0  0  0  0  0  0  0
    5.2644   -1.0784   -0.1309 C   0  0  0  0  0  0  0  0  0  0  0  0
    6.5411   -1.5379   -0.3390 C   0  0  0  0  0  0  0  0  0  0  0  0
    7.5958   -0.9645    0.3354 C   0  0  0  0  0  0  0  0  0  0  0  0
    7.2864    0.0568    1.1938 C   0  0  0  0  0  0  0  0  0  0  0  0
    5.9884    0.5023    1.3861 C   0  0  0  0  0  0  0  0  0  0  0  0
    5.7970    1.6286    2.3592 C   0  0  0  0  0  0  0  0  0  0  0  0
    4.9790    1.2127    3.3699 F   0  0  0  0  0  0  0  0  0  0  0  0
    5.2588    2.6888    1.6287 F   0  0  0  0  0  0  0  0  0  0  0  0
    6.9847    2.0524    2.8700 F   0  0  0  0  0  0  0  0  0  0  0  0
    6.8395   -2.6470   -1.2770 C   0  0  0  0  0  0  0  0  0  0  0  0
    7.1035   -2.0535   -2.5073 F   0  0  0  0  0  0  0  0  0  0  0  0
    5.8022   -3.5539   -1.3669 F   0  0  0  0  0  0  0  0  0  0  0  0
    7.9717   -3.3003   -0.8356 F   0  0  0  0  0  0  0  0  0  0  0  0
    0.8954    0.5004    1.7820 H   0  0  0  0  0  0  0  0  0  0  0  0
    1.5388    2.2580   -0.5981 H   0  0  0  0  0  0  0  0  0  0  0  0
    1.5196    2.7017    1.2025 H   0  0  0  0  0  0  0  0  0  0  0  0
   -0.6299    2.9470   -0.7435 H   0  0  0  0  0  0  0  0  0  0  0  0
   -0.7057    3.0988    1.0284 H   0  0  0  0  0  0  0  0  0  0  0  0
   -1.2340    0.9090    1.4785 H   0  0  0  0  0  0  0  0  0  0  0  0
   -2.1876    0.6239   -1.4144 H   0  0  0  0  0  0  0  0  0  0  0  0
   -3.4323    2.4882    0.6819 H   0  0  0  0  0  0  0  0  0  0  0  0
   -2.9202    2.7905   -0.9774 H   0  0  0  0  0  0  0  0  0  0  0  0
   -4.4311    1.2035   -1.9236 H   0  0  0  0  0  0  0  0  0  0  0  0
   -5.3760    2.4023   -0.9038 H   0  0  0  0  0  0  0  0  0  0  0  0
   -5.1054    0.8626    1.0267 H   0  0  0  0  0  0  0  0  0  0  0  0
   -7.2258    0.4878   -1.0113 H   0  0  0  0  0  0  0  0  0  0  0  0
   -6.3960   -2.6781    1.7898 H   0  0  0  0  0  0  0  0  0  0  0  0
   -4.1077   -2.4931    1.1898 H   0  0  0  0  0  0  0  0  0  0  0  0
   -5.3327   -0.9968   -1.9470 H   0  0  0  0  0  0  0  0  0  0  0  0
   -4.1407   -2.3345   -1.5167 H   0  0  0  0  0  0  0  0  0  0  0  0
   -3.5820   -0.6858   -2.1234 H   0  0  0  0  0  0  0  0  0  0  0  0
   -2.8325   -0.2877    1.3821 H   0  0  0  0  0  0  0  0  0  0  0  0
   -2.0302   -1.6507   -1.2146 H   0  0  0  0  0  0  0  0  0  0  0  0
   -2.2214   -2.4893    0.3222 H   0  0  0  0  0  0  0  0  0  0  0  0
   -0.3815   -1.4025    1.3563 H   0  0  0  0  0  0  0  0  0  0  0  0
    0.1265   -1.9833   -0.2447 H   0  0  0  0  0  0  0  0  0  0  0  0
    1.0885    0.2612   -1.9910 H   0  0  0  0  0  0  0  0  0  0  0  0
   -0.3200    1.3110   -1.9221 H   0  0  0  0  0  0  0  0  0  0  0  0
   -0.5376   -0.4364   -2.0636 H   0  0  0  0  0  0  0  0  0  0  0  0
    3.4962    1.2292    1.6358 H   0  0  0  0  0  0  0  0  0  0  0  0
    4.5127   -1.5797   -0.6939 H   0  0  0  0  0  0  0  0  0  0  0  0
    8.6228   -1.2667    0.2280 H   0  0  0  0  0  0  0  0  0  0  0  0
    8.0894    0.5242    1.7346 H   0  0  0  0  0  0  0  0  0  0  0  0
  1  2  1  0
  2  3  1  0
  3  4  1  0
  4  5  1  0
  5  6  1  0
  6  7  1  0
  7  8  1  0
  8  9  1  0
  9 10  1  0
 10 11  2  0
 10 12  1  0
 12 13  2  0
 13 14  1  0
 14 15  1  6
 14 16  1  0
 16 17  1  0
 17 18  1  0
 18 19  1  0
 19 20  1  6
  1 21  1  0
 21 22  2  0
 21 23  1  0
 23 24  1  0
 24 25  2  0
 25 26  1  0
 26 27  2  0
 27 28  1  0
 28 29  2  0
 29 30  1  0
 30 31  1  0
 30 32  1  0
 30 33  1  0
 26 34  1  0
 34 35  1  0
 34 36  1  0
 34 37  1  0
 19  1  1  0
 29 24  1  0
 19  4  1  0
 16  5  1  0
 14  8  1  0
  1 38  1  1
  2 39  1  0
  2 40  1  0
  3 41  1  0
  3 42  1  0
  4 43  1  1
  5 44  1  6
  6 45  1  0
  6 46  1  0
  7 47  1  0
  7 48  1  0
  8 49  1  1
  9 50  1  0
 12 51  1  0
 13 52  1  0
 15 53  1  0
 15 54  1  0
 15 55  1  0
 16 56  1  1
 17 57  1  0
 17 58  1  0
 18 59  1  0
 18 60  1  0
 20 61  1  0
 20 62  1  0
 20 63  1  0
 23 64  1  0
 25 65  1  0
 27 66  1  0
 28 67  1  0
M  END
$$$$
