@<TRIPOS>MOLECULE
*****
 37 40 0 0 0
SMALL
GASTEIGER

@<TRIPOS>ATOM
      1 O          -3.9837   -1.3815   -2.5652 O.2     1  UNL1       -0.2651
      2 C          -2.8979   -1.5040   -1.9411 C.ar    1  UNL1        0.2815
      3 N          -2.0719   -2.5243   -2.2270 N.ar    1  UNL1       -0.1970
      4 C          -0.8900   -2.7066   -1.5879 C.ar    1  UNL1        0.1220
      5 N          -0.5089   -1.8397   -0.6222 N.ar    1  UNL1       -0.2198
      6 N           0.6526   -2.0317   -0.0047 N.ar    1  UNL1       -0.1584
      7 C           1.1211   -1.2441    0.9541 C.ar    1  UNL1        0.1225
      8 S           2.7055   -1.6066    1.7140 S.3     1  UNL1       -0.0653
      9 C           4.0289   -0.7924    0.8336 C.ar    1  UNL1        0.0495
     10 C           4.6912   -1.3878   -0.2164 C.ar    1  UNL1       -0.0425
     11 C           5.7204   -0.7144   -0.8766 C.ar    1  UNL1       -0.0252
     12 C           6.0936    0.5597   -0.4903 C.ar    1  UNL1        0.1262
     13 F           7.0932    1.2056   -1.1365 F       1  UNL1       -0.2054
     14 C           5.4319    1.1595    0.5617 C.ar    1  UNL1        0.0099
     15 C           4.4017    0.4731    1.2152 C.ar    1  UNL1        0.1398
     16 F           3.7465    1.0540    2.2489 F       1  UNL1       -0.2042
     17 C           0.3612   -0.1575    1.3385 C.ar    1  UNL1       -0.0257
     18 C          -0.8418    0.0632    0.7168 C.ar    1  UNL1       -0.0329
     19 C          -1.2805   -0.7917   -0.2773 C.ar    1  UNL1        0.0802
     20 C          -2.4794   -0.6340   -0.9480 C.ar    1  UNL1        0.0765
     21 C          -3.3115    0.4832   -0.5867 C.ar    1  UNL1        0.0260
     22 C          -3.1692    1.6892   -1.2263 C.ar    1  UNL1        0.0503
     23 CL         -1.9596    1.9218   -2.5196 Cl      1  UNL1       -0.0829
     24 C          -3.9796    2.7412   -0.8596 C.ar    1  UNL1       -0.0427
     25 C          -4.9205    2.5898    0.1341 C.ar    1  UNL1       -0.0590
     26 C          -5.0767    1.3729    0.7921 C.ar    1  UNL1       -0.0427
     27 C          -4.2511    0.3429    0.4012 C.ar    1  UNL1        0.0503
     28 CL         -4.4879   -1.1907    1.2700 Cl      1  UNL1       -0.0829
     29 H          -0.2265   -3.5282   -1.8191 H       1  UNL1        0.1049
     30 H           4.3801   -2.3811   -0.4966 H       1  UNL1        0.0630
     31 H           6.2335   -1.2000   -1.7048 H       1  UNL1        0.0646
     32 H           5.7042    2.1679    0.8915 H       1  UNL1        0.0675
     33 H           0.7045    0.5017    2.1085 H       1  UNL1        0.0645
     34 H          -1.4987    0.9034    0.9678 H       1  UNL1        0.0640
     35 H          -3.8477    3.6987   -1.3862 H       1  UNL1        0.0632
     36 H          -5.5654    3.4105    0.4329 H       1  UNL1        0.0618
     37 H          -5.8215    1.2782    1.5684 H       1  UNL1        0.0632
@<TRIPOS>BOND
     1     1     2    2
     2     2     3   ar
     3     3     4   ar
     4     4     5   ar
     5     5     6   ar
     6     6     7   ar
     7     7     8    1
     8     8     9    1
     9     9    10   ar
    10    10    11   ar
    11    11    12   ar
    12    12    13    1
    13    12    14   ar
    14    14    15   ar
    15    15    16    1
    16     7    17   ar
    17    17    18   ar
    18    18    19   ar
    19    19    20   ar
    20    20    21    1
    21    21    22   ar
    22    22    23    1
    23    22    24   ar
    24    24    25   ar
    25    25    26   ar
    26    26    27   ar
    27    27    28    1
    28    20     2   ar
    29    27    21   ar
    30    19     5   ar
    31    15     9   ar
    32     4    29    1
    33    10    30    1
    34    11    31    1
    35    14    32    1
    36    17    33    1
    37    18    34    1
    38    24    35    1
    39    25    36    1
    40    26    37    1
