
     RDKit          3D

 37 40  0  0  0  0  0  0  0  0999 V2000
   -3.9837   -1.3815   -2.5652 O   0  0  0  0  0  0  0  0  0  0  0  0
   -2.8979   -1.5040   -1.9411 C   0  0  0  0  0  0  0  0  0  0  0  0
   -2.0719   -2.5243   -2.2270 N   0  0  0  0  0  0  0  0  0  0  0  0
   -0.8900   -2.7066   -1.5879 C   0  0  0  0  0  0  0  0  0  0  0  0
   -0.5089   -1.8397   -0.6222 N   0  0  0  0  0  0  0  0  0  0  0  0
    0.6526   -2.0317   -0.0047 N   0  0  0  0  0  0  0  0  0  0  0  0
    1.1211   -1.2441    0.9541 C   0  0  0  0  0  0  0  0  0  0  0  0
    2.7055   -1.6066    1.7140 S   0  0  0  0  0  0  0  0  0  0  0  0
    4.0289   -0.7924    0.8336 C   0  0  0  0  0  0  0  0  0  0  0  0
    4.6912   -1.3878   -0.2164 C   0  0  0  0  0  0  0  0  0  0  0  0
    5.7204   -0.7144   -0.8766 C   0  0  0  0  0  0  0  0  0  0  0  0
    6.0936    0.5597   -0.4903 C   0  0  0  0  0  0  0  0  0  0  0  0
    7.0932    1.2056   -1.1365 F   0  0  0  0  0  0  0  0  0  0  0  0
    5.4319    1.1595    0.5617 C   0  0  0  0  0  0  0  0  0  0  0  0
    4.4017    0.4731    1.2152 C   0  0  0  0  0  0  0  0  0  0  0  0
    3.7465    1.0540    2.2489 F   0  0  0  0  0  0  0  0  0  0  0  0
    0.3612   -0.1575    1.3385 C   0  0  0  0  0  0  0  0  0  0  0  0
   -0.8418    0.0632    0.7168 C   0  0  0  0  0  0  0  0  0  0  0  0
   -1.2805   -0.7917   -0.2773 C   0  0  0  0  0  0  0  0  0  0  0  0
   -2.4794   -0.6340   -0.9480 C   0  0  0  0  0  0  0  0  0  0  0  0
   -3.3115    0.4832   -0.5867 C   0  0  0  0  0  0  0  0  0  0  0  0
   -3.1692    1.6892   -1.2263 C   0  0  0  0  0  0  0  0  0  0  0  0
   -1.9596    1.9218   -2.5196 Cl  0  0  0  0  0  0  0  0  0  0  0  0
   -3.9796    2.7412   -0.8596 C   0  0  0  0  0  0  0  0  0  0  0  0
   -4.9205    2.5898    0.1341 C   0  0  0  0  0  0  0  0  0  0  0  0
   -5.0767    1.3729    0.7921 C   0  0  0  0  0  0  0  0  0  0  0  0
   -4.2511    0.3429    0.4012 C   0  0  0  0  0  0  0  0  0  0  0  0
   -4.4879   -1.1907    1.2700 Cl  0  0  0  0  0  0  0  0  0  0  0  0
   -0.2265   -3.5282   -1.8191 H   0  0  0  0  0  0  0  0  0  0  0  0
    4.3801   -2.3811   -0.4966 H   0  0  0  0  0  0  0  0  0  0  0  0
    6.2335   -1.2000   -1.7048 H   0  0  0  0  0  0  0  0  0  0  0  0
    5.7042    2.1679    0.8915 H   0  0  0  0  0  0  0  0  0  0  0  0
    0.7045    0.5017    2.1085 H   0  0  0  0  0  0  0  0  0  0  0  0
   -1.4987    0.9034    0.9678 H   0  0  0  0  0  0  0  0  0  0  0  0
   -3.8477    3.6987   -1.3862 H   0  0  0  0  0  0  0  0  0  0  0  0
   -5.5654    3.4105    0.4329 H   0  0  0  0  0  0  0  0  0  0  0  0
   -5.8215    1.2782    1.5684 H   0  0  0  0  0  0  0  0  0  0  0  0
  1  2  2  0
  2  3  1  0
  3  4  2  0
  4  5  1  0
  5  6  1  0
  6  7  2  0
  7  8  1  0
  8  9  1  0
  9 10  2  0
 10 11  1  0
 11 12  2  0
 12 13  1  0
 12 14  1  0
 14 15  2  0
 15 16  1  0
  7 17  1  0
 17 18  2  0
 18 19  1  0
 19 20  2  0
 20 21  1  0
 21 22  2  0
 22 23  1  0
 22 24  1  0
 24 25  2  0
 25 26  1  0
 26 27  2  0
 27 28  1  0
 20  2  1  0
 27 21  1  0
 19  5  1  0
 15  9  1  0
  4 29  1  0
 10 30  1  0
 11 31  1  0
 14 32  1  0
 17 33  1  0
 18 34  1  0
 24 35  1  0
 25 36  1  0
 26 37  1  0
M  END
$$$$
