@<TRIPOS>MOLECULE
*****
 49 53 0 0 0
SMALL
GASTEIGER

@<TRIPOS>ATOM
      1 C          -7.6246   -1.6415    0.7266 C.3     1  UNL1       -0.0281
      2 C          -6.8993   -0.3089    0.6033 C.3     1  UNL1        0.0946
      3 C          -7.9509    0.7975    0.4115 C.3     1  UNL1       -0.0281
      4 O          -5.9637   -0.2950   -0.4037 O.3     1  UNL1       -0.4894
      5 C          -4.6176   -0.0600   -0.2646 C.ar    1  UNL1        0.1209
      6 C          -3.8236   -0.0918   -1.4344 C.ar    1  UNL1       -0.0194
      7 C          -2.4741    0.1365   -1.3473 C.ar    1  UNL1       -0.0505
      8 C          -1.8398    0.3998   -0.1610 C.ar    1  UNL1       -0.0148
      9 C          -0.4116    0.6321   -0.1336 C.ar    1  UNL1        0.0184
     10 C           0.4299   -0.0103   -1.0517 C.ar    1  UNL1        0.0391
     11 N           1.7522    0.2132   -1.0162 N.ar    1  UNL1       -0.2350
     12 C           2.2995    1.0625   -0.0940 C.ar    1  UNL1        0.1632
     13 C           3.5925    1.4588    0.1542 C.ar    1  UNL1        0.0467
     14 C           4.7480    0.9859   -0.6158 C.ar    1  UNL1       -0.0022
     15 C           5.1496    1.6887   -1.7408 C.ar    1  UNL1       -0.0351
     16 C           6.2336    1.2225   -2.4405 C.ar    1  UNL1        0.0288
     17 N           6.8811    0.1103   -2.0342 N.ar    1  UNL1       -0.2549
     18 C           6.5238   -0.5982   -0.9511 C.ar    1  UNL1        0.0715
     19 C           7.2074   -1.7303   -0.5639 C.ar    1  UNL1       -0.0357
     20 C           6.8229   -2.4394    0.5485 C.ar    1  UNL1       -0.0597
     21 C           5.7346   -1.9775    1.2571 C.ar    1  UNL1       -0.0611
     22 C           5.0139   -0.8541    0.9183 C.ar    1  UNL1       -0.0520
     23 C           5.4249   -0.1554   -0.2122 C.ar    1  UNL1        0.0082
     24 C           3.5609    2.3339    1.2091 C.ar    1  UNL1        0.0597
     25 N           2.2886    2.4646    1.5893 N.ar    1  UNL1       -0.1727
     26 N           1.5427    1.7037    0.8079 N.ar    1  UNL1       -0.2206
     27 C           0.1969    1.4732    0.7680 C.ar    1  UNL1        0.0406
     28 C          -2.5868    0.4354    0.9814 C.ar    1  UNL1       -0.0505
     29 C          -3.9738    0.2043    0.9188 C.ar    1  UNL1       -0.0194
     30 H          -8.4229   -1.7456   -0.0347 H       1  UNL1        0.0265
     31 H          -6.8633   -2.4469    0.6730 H       1  UNL1        0.0265
     32 H          -8.1329   -1.6343    1.7200 H       1  UNL1        0.0265
     33 H          -6.4551   -0.1059    1.5910 H       1  UNL1        0.0727
     34 H          -8.8995    0.4109    0.8242 H       1  UNL1        0.0265
     35 H          -8.0421    1.0688   -0.6581 H       1  UNL1        0.0265
     36 H          -7.6416    1.7076    0.9656 H       1  UNL1        0.0265
     37 H          -4.3053   -0.2971   -2.3750 H       1  UNL1        0.0654
     38 H          -1.9048    0.1006   -2.2834 H       1  UNL1        0.0625
     39 H          -0.0266   -0.6749   -1.7685 H       1  UNL1        0.0837
     40 H           4.5941    2.5761   -2.0232 H       1  UNL1        0.0639
     41 H           6.5557    1.7560   -3.3129 H       1  UNL1        0.0830
     42 H           8.0527   -2.0517   -1.1513 H       1  UNL1        0.0639
     43 H           7.3824   -3.3328    0.8326 H       1  UNL1        0.0618
     44 H           5.4145   -2.5188    2.1347 H       1  UNL1        0.0618
     45 H           4.1615   -0.5078    1.4886 H       1  UNL1        0.0624
     46 H           4.4451    2.8371    1.6572 H       1  UNL1        0.0855
     47 H          -0.4317    1.9937    1.5026 H       1  UNL1        0.0837
     48 H          -2.1590    0.6371    1.9596 H       1  UNL1        0.0625
     49 H          -4.5584    0.2344    1.8291 H       1  UNL1        0.0654
@<TRIPOS>BOND
     1     1     2    1
     2     2     3    1
     3     2     4    1
     4     4     5    1
     5     5     6   ar
     6     6     7   ar
     7     7     8   ar
     8     8     9    1
     9     9    10   ar
    10    10    11   ar
    11    11    12   ar
    12    12    13   ar
    13    13    14    1
    14    14    15   ar
    15    15    16   ar
    16    16    17   ar
    17    17    18   ar
    18    18    19   ar
    19    19    20   ar
    20    20    21   ar
    21    21    22   ar
    22    22    23   ar
    23    13    24   ar
    24    24    25   ar
    25    25    26   ar
    26    26    27   ar
    27     8    28   ar
    28    28    29   ar
    29    29     5   ar
    30    27     9   ar
    31    26    12   ar
    32    23    14   ar
    33    23    18   ar
    34     1    30    1
    35     1    31    1
    36     1    32    1
    37     2    33    1
    38     3    34    1
    39     3    35    1
    40     3    36    1
    41     6    37    1
    42     7    38    1
    43    10    39    1
    44    15    40    1
    45    16    41    1
    46    19    42    1
    47    20    43    1
    48    21    44    1
    49    22    45    1
    50    24    46    1
    51    27    47    1
    52    28    48    1
    53    29    49    1
