@<TRIPOS>MOLECULE
*****
 56 57 0 0 0
SMALL
GASTEIGER

@<TRIPOS>ATOM
      1 C          -3.0380    4.9440   -0.5949 C.3     1  UNL1       -0.0653
      2 C          -2.3311    4.7454    0.7039 C.3     1  UNL1       -0.0555
      3 C          -1.1183    3.8519    0.5801 C.3     1  UNL1       -0.0465
      4 C          -1.4864    2.4705    0.0768 C.3     1  UNL1        0.0056
      5 C          -0.2368    1.6691   -0.0120 C.ar    1  UNL1        0.1108
      6 N           1.0323    2.0222    0.2864 N.ar    1  UNL1       -0.2323
      7 C           1.8697    0.9693    0.0496 C.ar    1  UNL1        0.0899
      8 C           3.2267    0.7532    0.1641 C.ar    1  UNL1       -0.0271
      9 C           3.7972   -0.4458   -0.1642 C.ar    1  UNL1       -0.0227
     10 C           5.2168   -0.7385   -0.0695 C.2     1  UNL1       -0.0496
     11 C           6.1570    0.0854    0.3461 C.2     1  UNL1        0.0027
     12 C           7.5814   -0.2095    0.4410 C.2     1  UNL1        0.2593
     13 O           8.4099    0.6614    0.8596 O.2     1  UNL1       -0.2687
     14 N           8.1555   -1.4397    0.0923 N.am    1  UNL1       -0.1940
     15 O           9.4733   -1.7014    0.1838 O.3     1  UNL1       -0.2949
     16 C           2.9750   -1.4621   -0.6234 C.ar    1  UNL1       -0.0525
     17 C           1.6371   -1.2239   -0.7280 C.ar    1  UNL1       -0.0355
     18 C           1.0263   -0.0219   -0.4043 C.ar    1  UNL1        0.0689
     19 N          -0.2737    0.3982   -0.4460 N.ar    1  UNL1       -0.3263
     20 C          -1.3194   -0.5007   -0.8962 C.3     1  UNL1        0.0377
     21 C          -1.8669   -1.2348    0.2958 C.3     1  UNL1        0.0169
     22 N          -2.8889   -2.1550    0.0153 N.3     1  UNL1       -0.3012
     23 C          -3.4844   -2.8721    1.0681 C.3     1  UNL1       -0.0039
     24 C          -4.3249   -2.0438    2.0117 C.3     1  UNL1       -0.0524
     25 C          -3.3922   -2.2733   -1.2877 C.3     1  UNL1       -0.0039
     26 C          -4.4905   -3.3102   -1.3873 C.3     1  UNL1       -0.0524
     27 H          -3.9746    4.3164   -0.6595 H       1  UNL1        0.0230
     28 H          -3.4013    5.9971   -0.6386 H       1  UNL1        0.0230
     29 H          -2.3882    4.8056   -1.4849 H       1  UNL1        0.0230
     30 H          -1.9825    5.7254    1.0828 H       1  UNL1        0.0263
     31 H          -3.0618    4.3682    1.4335 H       1  UNL1        0.0263
     32 H          -0.3861    4.3044   -0.1054 H       1  UNL1        0.0269
     33 H          -0.6527    3.7822    1.5816 H       1  UNL1        0.0269
     34 H          -2.1598    1.9456    0.7875 H       1  UNL1        0.0343
     35 H          -1.9362    2.5851   -0.9280 H       1  UNL1        0.0343
     36 H           3.8656    1.5651    0.5292 H       1  UNL1        0.0645
     37 H           5.6179   -1.6993   -0.3484 H       1  UNL1        0.0625
     38 H           5.8341    1.0900    0.6500 H       1  UNL1        0.0670
     39 H           7.5731   -2.2100   -0.2575 H       1  UNL1        0.1825
     40 H           9.7424   -2.5080   -0.3254 H       1  UNL1        0.2414
     41 H           3.4064   -2.4225   -0.8897 H       1  UNL1        0.0624
     42 H           1.0368   -2.0715   -1.1006 H       1  UNL1        0.0639
     43 H          -0.9355   -1.2370   -1.6086 H       1  UNL1        0.0505
     44 H          -2.1416    0.1164   -1.3391 H       1  UNL1        0.0505
     45 H          -1.0505   -1.6932    0.8881 H       1  UNL1        0.0444
     46 H          -2.2854   -0.4366    0.9768 H       1  UNL1        0.0444
     47 H          -2.6441   -3.2707    1.7136 H       1  UNL1        0.0424
     48 H          -4.0157   -3.7849    0.7356 H       1  UNL1        0.0424
     49 H          -4.7124   -1.1128    1.5536 H       1  UNL1        0.0242
     50 H          -5.2369   -2.6069    2.3518 H       1  UNL1        0.0242
     51 H          -3.7877   -1.7420    2.9353 H       1  UNL1        0.0242
     52 H          -3.7222   -1.3382   -1.7719 H       1  UNL1        0.0424
     53 H          -2.5553   -2.6468   -1.9412 H       1  UNL1        0.0424
     54 H          -4.9513   -3.2689   -2.4110 H       1  UNL1        0.0242
     55 H          -5.3212   -3.1430   -0.6897 H       1  UNL1        0.0242
     56 H          -4.0798   -4.3472   -1.2326 H       1  UNL1        0.0242
@<TRIPOS>BOND
     1     1     2    1
     2     2     3    1
     3     3     4    1
     4     4     5    1
     5     5     6   ar
     6     6     7   ar
     7     7     8   ar
     8     8     9   ar
     9     9    10    1
    10    10    11    2
    11    11    12    1
    12    12    13    2
    13    12    14   am
    14    14    15    1
    15     9    16   ar
    16    16    17   ar
    17    17    18   ar
    18    18    19   ar
    19    19    20    1
    20    20    21    1
    21    21    22    1
    22    22    23    1
    23    23    24    1
    24    22    25    1
    25    25    26    1
    26    19     5   ar
    27    18     7   ar
    28     1    27    1
    29     1    28    1
    30     1    29    1
    31     2    30    1
    32     2    31    1
    33     3    32    1
    34     3    33    1
    35     4    34    1
    36     4    35    1
    37     8    36    1
    38    10    37    1
    39    11    38    1
    40    14    39    1
    41    15    40    1
    42    16    41    1
    43    17    42    1
    44    20    43    1
    45    20    44    1
    46    21    45    1
    47    21    46    1
    48    23    47    1
    49    23    48    1
    50    24    49    1
    51    24    50    1
    52    24    51    1
    53    25    52    1
    54    25    53    1
    55    26    54    1
    56    26    55    1
    57    26    56    1
