
     RDKit          3D

 22 23  0  0  0  0  0  0  0  0999 V2000
    3.8728   -0.4144    0.0814 N   0  0  0  0  0  0  0  0  0  0  0  0
    2.8204    0.5340    0.0116 C   0  0  0  0  0  0  0  0  0  0  0  0
    3.3386    1.7057    0.0381 N   0  0  0  0  0  0  0  0  0  0  0  0
    1.4482    0.1774   -0.0731 N   0  0  0  0  0  0  0  0  0  0  0  0
    1.0325   -1.0982    0.0140 C   0  0  0  0  0  0  0  0  0  0  0  0
   -0.3494   -1.0324   -0.1118 C   0  0  0  0  0  0  0  0  0  0  0  0
   -1.3866   -1.9668   -0.1119 C   0  0  0  0  0  0  0  0  0  0  0  0
   -2.7011   -1.5257   -0.2695 C   0  0  0  0  0  0  0  0  0  0  0  0
   -2.9917   -0.2012   -0.4226 C   0  0  0  0  0  0  0  0  0  0  0  0
   -2.0124    0.7535   -0.4290 C   0  0  0  0  0  0  0  0  0  0  0  0
   -0.7286    0.3021   -0.2736 C   0  0  0  0  0  0  0  0  0  0  0  0
    0.4374    1.0066   -0.2405 N   0  0  0  0  0  0  0  0  0  0  0  0
   -2.2686    2.1441   -0.5862 N   0  0  0  0  0  4  0  0  0  0  0  0
   -3.4114    2.7715   -0.1425 O   0  0  0  0  0  1  0  0  0  0  0  0
   -1.4721    2.9336   -1.1482 O   0  0  0  0  0  0  0  0  0  0  0  0
    4.1990   -0.6254    1.0571 H   0  0  0  0  0  0  0  0  0  0  0  0
    4.2517   -0.8336   -0.7897 H   0  0  0  0  0  0  0  0  0  0  0  0
    2.8363    2.6087    0.0027 H   0  0  0  0  0  0  0  0  0  0  0  0
    1.5954   -2.0132    0.1510 H   0  0  0  0  0  0  0  0  0  0  0  0
   -1.0544   -2.9855    0.0164 H   0  0  0  0  0  0  0  0  0  0  0  0
   -3.4347   -2.3244   -0.2565 H   0  0  0  0  0  0  0  0  0  0  0  0
   -4.0214    0.0834   -0.5403 H   0  0  0  0  0  0  0  0  0  0  0  0
  1  2  1  0
  2  3  2  3
  2  4  1  0
  4  5  1  0
  5  6  2  0
  6  7  1  0
  7  8  2  0
  8  9  1  0
  9 10  2  0
 10 11  1  0
 11 12  2  0
 10 13  1  0
 13 14  1  0
 13 15  2  0
 12  4  1  0
 11  6  1  0
  1 16  1  0
  1 17  1  0
  3 18  1  0
  5 19  1  0
  7 20  1  0
  8 21  1  0
  9 22  1  0
M  CHG  2  13   1  14  -1
M  END
$$$$
