@<TRIPOS>MOLECULE
*****
 22 23 0 0 0
SMALL
GASTEIGER

@<TRIPOS>ATOM
      1 N           3.8728   -0.4144    0.0814 N.pl3   1  UNL1       -0.2480
      2 C           2.8204    0.5340    0.0116 C.2     1  UNL1        0.3985
      3 N           3.3386    1.7057    0.0381 N.2     1  UNL1       -0.1295
      4 N           1.4482    0.1774   -0.0731 N.ar    1  UNL1       -0.1136
      5 C           1.0325   -1.0982    0.0140 C.ar    1  UNL1        0.1034
      6 C          -0.3494   -1.0324   -0.1118 C.ar    1  UNL1        0.0434
      7 C          -1.3866   -1.9668   -0.1119 C.ar    1  UNL1       -0.0493
      8 C          -2.7011   -1.5257   -0.2695 C.ar    1  UNL1       -0.0546
      9 C          -2.9917   -0.2012   -0.4226 C.ar    1  UNL1        0.0180
     10 C          -2.0124    0.7535   -0.4290 C.ar    1  UNL1        0.3018
     11 C          -0.7286    0.3021   -0.2736 C.ar    1  UNL1        0.1858
     12 N           0.4374    1.0066   -0.2405 N.ar    1  UNL1       -0.0973
     13 N          -2.2686    2.1441   -0.5862 N.pl3   1  UNL1        0.0819
     14 O          -3.4114    2.7715   -0.1425 O.co2   1  UNL1       -0.5760
     15 O          -1.4721    2.9336   -1.1482 O.2     1  UNL1        0.0415
     16 H           4.1990   -0.6254    1.0571 H       1  UNL1        0.2414
     17 H           4.2517   -0.8336   -0.7897 H       1  UNL1        0.2414
     18 H           2.8363    2.6087    0.0027 H       1  UNL1        0.3061
     19 H           1.5954   -2.0132    0.1510 H       1  UNL1        0.1018
     20 H          -1.0544   -2.9855    0.0164 H       1  UNL1        0.0625
     21 H          -3.4347   -2.3244   -0.2565 H       1  UNL1        0.0620
     22 H          -4.0214    0.0834   -0.5403 H       1  UNL1        0.0686
@<TRIPOS>UNITY_ATOM_ATTR
13 1
charge 1
14 1
charge -1
@<TRIPOS>BOND
     1     1     2    1
     2     2     3    2
     3     2     4    1
     4     4     5   ar
     5     5     6   ar
     6     6     7   ar
     7     7     8   ar
     8     8     9   ar
     9     9    10   ar
    10    10    11   ar
    11    11    12   ar
    12    10    13    1
    13    13    14    1
    14    13    15    2
    15    12     4   ar
    16    11     6   ar
    17     1    16    1
    18     1    17    1
    19     3    18    1
    20     5    19    1
    21     7    20    1
    22     8    21    1
    23     9    22    1
