@<TRIPOS>MOLECULE
*****
 52 54 0 0 0
SMALL
GASTEIGER

@<TRIPOS>ATOM
      1 C          -7.3378    0.9471    0.5326 C.3     1  UNL1       -0.0201
      2 C          -5.8852    0.6436    0.4598 C.ar    1  UNL1        0.0689
      3 N          -5.0422    1.7197    0.5410 N.ar    1  UNL1       -0.2527
      4 C          -3.6952    1.5106    0.4767 C.ar    1  UNL1        0.0644
      5 C          -2.7548    2.6516    0.5463 C.3     1  UNL1       -0.0203
      6 C          -3.2309    0.2326    0.3342 C.ar    1  UNL1        0.0928
      7 C          -1.7892   -0.0135    0.2396 C.ar    1  UNL1        0.0021
      8 C          -1.3982   -0.8426   -0.8166 C.ar    1  UNL1       -0.0522
      9 C          -0.0651   -1.1412   -0.9923 C.ar    1  UNL1       -0.0577
     10 C           0.8920   -0.6315   -0.1370 C.ar    1  UNL1       -0.0442
     11 C           2.3444   -0.9656   -0.3252 C.3     1  UNL1       -0.0158
     12 C           2.8098   -0.4926   -1.6671 C.3     1  UNL1       -0.0459
     13 C           4.1132    0.1524   -1.7882 C.3     1  UNL1       -0.0492
     14 C           4.9664    0.2540   -0.5603 C.3     1  UNL1       -0.0310
     15 C           6.4521    0.0478   -0.8855 C.3     1  UNL1        0.0476
     16 C           7.1754    0.1973    0.4019 C.2     1  UNL1        0.3050
     17 O           6.9315    1.2100    1.1209 O.2     1  UNL1       -0.2510
     18 O           8.1126   -0.7248    0.8633 O.3     1  UNL1       -0.4806
     19 C           4.6211   -0.8286    0.4567 C.3     1  UNL1       -0.0492
     20 C           3.1620   -0.5044    0.8264 C.3     1  UNL1       -0.0459
     21 C           0.5063    0.1809    0.8981 C.ar    1  UNL1       -0.0577
     22 C          -0.8439    0.4832    1.0757 C.ar    1  UNL1       -0.0522
     23 N          -4.0756   -0.8273    0.2547 N.ar    1  UNL1       -0.2385
     24 C          -5.4298   -0.6316    0.3174 C.ar    1  UNL1        0.1467
     25 C          -6.3304   -1.7630    0.2138 C.2     1  UNL1        0.2616
     26 N          -7.7241   -1.6854    0.1384 N.am    1  UNL1       -0.3240
     27 O          -5.7784   -2.9449    0.1881 O.2     1  UNL1       -0.2687
     28 H          -7.4984    2.0485    0.7846 H       1  UNL1        0.0293
     29 H          -7.8227    0.7812   -0.4266 H       1  UNL1        0.0293
     30 H          -7.7587    0.4238    1.4138 H       1  UNL1        0.0293
     31 H          -2.5595    2.9610    1.6108 H       1  UNL1        0.0293
     32 H          -1.7917    2.4854    0.0676 H       1  UNL1        0.0293
     33 H          -3.2491    3.5689    0.1074 H       1  UNL1        0.0293
     34 H          -2.1413   -1.2580   -1.5050 H       1  UNL1        0.0624
     35 H           0.2547   -1.7929   -1.8258 H       1  UNL1        0.0621
     36 H           2.3748   -2.1008   -0.3264 H       1  UNL1        0.0349
     37 H           2.7654   -1.3820   -2.3708 H       1  UNL1        0.0271
     38 H           2.0170    0.1746   -2.0832 H       1  UNL1        0.0271
     39 H           4.0140    1.1873   -2.2002 H       1  UNL1        0.0268
     40 H           4.7617   -0.3803   -2.5551 H       1  UNL1        0.0268
     41 H           4.8859    1.2174   -0.0465 H       1  UNL1        0.0306
     42 H           6.8112    0.8833   -1.5306 H       1  UNL1        0.0380
     43 H           6.6537   -0.9292   -1.3183 H       1  UNL1        0.0380
     44 H           8.1183   -0.9901    1.8699 H       1  UNL1        0.2951
     45 H           4.6287   -1.7954   -0.0844 H       1  UNL1        0.0268
     46 H           5.3056   -0.7612    1.2907 H       1  UNL1        0.0268
     47 H           2.9020   -1.0504    1.7282 H       1  UNL1        0.0271
     48 H           3.0632    0.6018    0.9164 H       1  UNL1        0.0271
     49 H           1.2058    0.6226    1.6242 H       1  UNL1        0.0621
     50 H          -1.1413    1.1199    1.9071 H       1  UNL1        0.0624
     51 H          -8.3020   -1.8226    0.9953 H       1  UNL1        0.1453
     52 H          -8.2035   -1.4991   -0.7568 H       1  UNL1        0.1453
@<TRIPOS>BOND
     1     1     2    1
     2     2     3   ar
     3     3     4   ar
     4     4     5    1
     5     4     6   ar
     6     6     7    1
     7     7     8   ar
     8     8     9   ar
     9     9    10   ar
    10    10    11    1
    11    11    12    1
    12    12    13    1
    13    13    14    1
    14    14    15    1
    15    15    16    1
    16    16    17    2
    17    16    18    1
    18    14    19    1
    19    19    20    1
    20    10    21   ar
    21    21    22   ar
    22     6    23   ar
    23    23    24   ar
    24    24    25    1
    25    25    26   am
    26    25    27    2
    27    24     2   ar
    28    22     7   ar
    29    20    11    1
    30     1    28    1
    31     1    29    1
    32     1    30    1
    33     5    31    1
    34     5    32    1
    35     5    33    1
    36     8    34    1
    37     9    35    1
    38    11    36    1
    39    12    37    1
    40    12    38    1
    41    13    39    1
    42    13    40    1
    43    14    41    1
    44    15    42    1
    45    15    43    1
    46    18    44    1
    47    19    45    1
    48    19    46    1
    49    20    47    1
    50    20    48    1
    51    21    49    1
    52    22    50    1
    53    26    51    1
    54    26    52    1
