@<TRIPOS>MOLECULE
*****
 42 46 0 0 0
SMALL
GASTEIGER

@<TRIPOS>ATOM
      1 O           4.7985    0.5249    1.7587 O.2     1  UNL1       -0.2665
      2 C           4.7175    0.5518    0.5280 C.2     1  UNL1        0.2835
      3 N           3.5315    0.1616   -0.0887 N.am    1  UNL1       -0.2790
      4 C           2.3103   -0.2936    0.4640 C.ar    1  UNL1        0.0344
      5 C           1.2616   -0.6261   -0.3578 C.ar    1  UNL1       -0.0312
      6 C           0.0549   -1.0732    0.1277 C.ar    1  UNL1        0.0044
      7 C          -0.1714   -1.2139    1.4804 C.ar    1  UNL1       -0.0524
      8 C           0.8511   -0.8921    2.3363 C.ar    1  UNL1       -0.0594
      9 C           2.0402   -0.4490    1.8023 C.ar    1  UNL1       -0.0404
     10 C          -0.9821   -1.3947   -0.8469 C.ar    1  UNL1        0.1003
     11 N          -0.8092   -2.1070   -1.9902 N.ar    1  UNL1       -0.1727
     12 N          -1.9547   -2.2123   -2.6408 N.ar    1  UNL1       -0.2764
     13 C          -2.9208   -1.5840   -1.9667 C.ar    1  UNL1        0.0664
     14 C          -4.2824   -1.4076   -2.2259 C.ar    1  UNL1       -0.0356
     15 C          -4.9794   -0.6846   -1.2797 C.ar    1  UNL1       -0.0490
     16 C          -4.4265   -0.1538   -0.1474 C.ar    1  UNL1        0.0216
     17 C          -3.0757   -0.3492    0.0749 C.ar    1  UNL1       -0.0397
     18 C          -2.3184   -1.0654   -0.8349 C.ar    1  UNL1        0.0280
     19 C          -5.2713    0.5934    0.7792 C.ar    1  UNL1        0.1810
     20 N          -5.1030    0.7420    2.1201 N.ar    1  UNL1       -0.1525
     21 N          -6.0827    1.4930    2.6025 N.ar    1  UNL1       -0.2649
     22 C          -6.9023    1.8445    1.5865 C.ar    1  UNL1        0.1120
     23 N          -6.3886    1.2805    0.4605 N.ar    1  UNL1       -0.2150
     24 C           5.9081    1.0030   -0.1754 C.ar    1  UNL1        0.1893
     25 C           7.0864    1.3915    0.4184 C.ar    1  UNL1       -0.0113
     26 C           7.9902    1.7552   -0.5863 C.ar    1  UNL1       -0.0231
     27 C           7.2887    1.5607   -1.7575 C.ar    1  UNL1        0.0928
     28 O           6.0870    1.1241   -1.4640 O.2     1  UNL1       -0.4583
     29 H           3.5930    0.2307   -1.1404 H       1  UNL1        0.1552
     30 H           1.3994   -0.5287   -1.4430 H       1  UNL1        0.0643
     31 H          -1.1159   -1.5644    1.8735 H       1  UNL1        0.0624
     32 H           0.6935   -0.9952    3.3938 H       1  UNL1        0.0618
     33 H           2.7965   -0.2155    2.5337 H       1  UNL1        0.0636
     34 H          -2.1290   -2.7095   -3.5601 H       1  UNL1        0.1889
     35 H          -4.7614   -1.8126   -3.1133 H       1  UNL1        0.0639
     36 H          -6.0370   -0.5379   -1.4645 H       1  UNL1        0.0625
     37 H          -2.6263    0.0657    0.9669 H       1  UNL1        0.0632
     38 H          -6.2969    1.8245    3.5661 H       1  UNL1        0.1900
     39 H          -7.8141    2.4346    1.4767 H       1  UNL1        0.1041
     40 H           7.3306    1.4302    1.4716 H       1  UNL1        0.0657
     41 H           9.0164    2.1098   -0.4300 H       1  UNL1        0.0649
     42 H           7.6933    1.7484   -2.7602 H       1  UNL1        0.1029
@<TRIPOS>BOND
     1     1     2    2
     2     2     3   am
     3     3     4    1
     4     4     5   ar
     5     5     6   ar
     6     6     7   ar
     7     7     8   ar
     8     8     9   ar
     9     6    10    1
    10    10    11   ar
    11    11    12   ar
    12    12    13   ar
    13    13    14   ar
    14    14    15   ar
    15    15    16   ar
    16    16    17   ar
    17    17    18   ar
    18    16    19    1
    19    19    20   ar
    20    20    21   ar
    21    21    22   ar
    22    22    23   ar
    23     2    24    1
    24    24    25   ar
    25    25    26   ar
    26    26    27   ar
    27    27    28   ar
    28     9     4   ar
    29    18    10   ar
    30    23    19   ar
    31    28    24   ar
    32    18    13   ar
    33     3    29    1
    34     5    30    1
    35     7    31    1
    36     8    32    1
    37     9    33    1
    38    12    34    1
    39    14    35    1
    40    15    36    1
    41    17    37    1
    42    21    38    1
    43    22    39    1
    44    25    40    1
    45    26    41    1
    46    27    42    1
