@<TRIPOS>MOLECULE
*****
 60 64 0 0 0
SMALL
GASTEIGER

@<TRIPOS>ATOM
      1 C           8.5792   -2.8344   -0.0534 C.3     1  UNL1        0.0788
      2 O           7.4361   -2.7487   -0.8662 O.3     1  UNL1       -0.4951
      3 C           6.5911   -1.6746   -0.9041 C.ar    1  UNL1        0.1201
      4 C           5.4946   -1.6891   -1.7379 C.ar    1  UNL1       -0.0196
      5 C           4.6324   -0.5950   -1.7780 C.ar    1  UNL1       -0.0534
      6 C           4.8737    0.5036   -0.9844 C.ar    1  UNL1       -0.0275
      7 C           3.9678    1.6883   -1.0118 C.3     1  UNL1        0.0497
      8 N           2.8004    1.3709   -0.2105 N.ar    1  UNL1       -0.3274
      9 C           2.6342    1.5222    1.0957 C.ar    1  UNL1        0.0076
     10 C           1.3617    1.0838    1.4398 C.ar    1  UNL1       -0.0315
     11 C           0.7199    0.6470    0.2988 C.ar    1  UNL1        0.0589
     12 C          -0.5025    0.1451    0.0084 C.ar    1  UNL1        0.1354
     13 N          -1.4978   -0.0895    1.0076 N.pl3   1  UNL1       -0.2985
     14 C          -2.8371    0.2678    0.7778 C.ar    1  UNL1        0.0394
     15 C          -3.7810   -0.7546    0.5676 C.ar    1  UNL1       -0.0126
     16 C          -5.0943   -0.4866    0.3038 C.ar    1  UNL1        0.0937
     17 C          -6.0858   -1.5362    0.0280 C.ar    1  UNL1        0.1242
     18 N          -6.9182   -1.3839   -1.0480 N.ar    1  UNL1       -0.2505
     19 C          -7.8314   -2.3300   -1.3238 C.ar    1  UNL1        0.0285
     20 C          -7.9642   -3.4565   -0.5595 C.ar    1  UNL1       -0.0408
     21 C          -7.1184   -3.6022    0.5287 C.ar    1  UNL1       -0.0228
     22 C          -6.1625   -2.6358    0.8363 C.ar    1  UNL1        0.1507
     23 F          -5.3440   -2.7905    1.9020 F       1  UNL1       -0.2032
     24 N          -5.4982    0.7938    0.2459 N.ar    1  UNL1       -0.2529
     25 C          -4.6528    1.8145    0.4396 C.ar    1  UNL1        0.0335
     26 C          -3.2814    1.5452    0.7147 C.ar    1  UNL1       -0.0055
     27 C          -2.3879    2.6929    0.9878 C.3     1  UNL1       -0.0183
     28 C          -1.5351    3.1255   -0.1533 C.3     1  UNL1       -0.0585
     29 C          -1.7060    2.6402    2.3325 C.3     1  UNL1       -0.0585
     30 N          -0.7911   -0.1614   -1.2855 N.ar    1  UNL1       -0.2199
     31 C           0.1118    0.0249   -2.2598 C.ar    1  UNL1        0.1204
     32 N           1.3241    0.5244   -1.9659 N.ar    1  UNL1       -0.2176
     33 C           1.6639    0.8445   -0.7206 C.ar    1  UNL1        0.1460
     34 C           5.9696    0.5329   -0.1428 C.ar    1  UNL1       -0.0534
     35 C           6.7998   -0.5591   -0.1258 C.ar    1  UNL1       -0.0196
     36 H           9.4216   -2.3401   -0.5869 H       1  UNL1        0.0660
     37 H           8.3436   -2.3744    0.9227 H       1  UNL1        0.0660
     38 H           8.8101   -3.9126    0.1169 H       1  UNL1        0.0660
     39 H           5.2760   -2.5470   -2.3756 H       1  UNL1        0.0654
     40 H           3.7970   -0.6681   -2.4430 H       1  UNL1        0.0622
     41 H           4.5020    2.5720   -0.6046 H       1  UNL1        0.0542
     42 H           3.6714    1.9443   -2.0670 H       1  UNL1        0.0542
     43 H           3.3639    1.9257    1.8098 H       1  UNL1        0.0810
     44 H           0.9385    1.0764    2.4203 H       1  UNL1        0.0640
     45 H          -1.2132   -0.5389    1.8859 H       1  UNL1        0.1536
     46 H          -3.4415   -1.7832    0.6215 H       1  UNL1        0.0658
     47 H          -8.4676   -2.1490   -2.2054 H       1  UNL1        0.0830
     48 H          -8.7100   -4.1812   -0.8299 H       1  UNL1        0.0634
     49 H          -7.2052   -4.4764    1.1458 H       1  UNL1        0.0647
     50 H          -4.9811    2.8437    0.3922 H       1  UNL1        0.0833
     51 H          -3.1098    3.5948    1.1360 H       1  UNL1        0.0344
     52 H          -1.7871    2.4980   -1.0344 H       1  UNL1        0.0235
     53 H          -1.7739    4.1804   -0.5152 H       1  UNL1        0.0235
     54 H          -0.4507    3.1841    0.0719 H       1  UNL1        0.0235
     55 H          -0.9650    3.4629    2.3778 H       1  UNL1        0.0235
     56 H          -2.4451    2.9207    3.1608 H       1  UNL1        0.0235
     57 H          -1.2956    1.6559    2.5833 H       1  UNL1        0.0235
     58 H          -0.0859   -0.2106   -3.3005 H       1  UNL1        0.1048
     59 H           6.1769    1.3899    0.4861 H       1  UNL1        0.0622
     60 H           7.6598   -0.5066    0.5459 H       1  UNL1        0.0654
@<TRIPOS>BOND
     1     1     2    1
     2     2     3    1
     3     3     4   ar
     4     4     5   ar
     5     5     6   ar
     6     6     7    1
     7     7     8    1
     8     8     9   ar
     9     9    10   ar
    10    10    11   ar
    11    11    12   ar
    12    12    13    1
    13    13    14    1
    14    14    15   ar
    15    15    16   ar
    16    16    17    1
    17    17    18   ar
    18    18    19   ar
    19    19    20   ar
    20    20    21   ar
    21    21    22   ar
    22    22    23    1
    23    16    24   ar
    24    24    25   ar
    25    25    26   ar
    26    26    27    1
    27    27    28    1
    28    27    29    1
    29    12    30   ar
    30    30    31   ar
    31    31    32   ar
    32    32    33   ar
    33     6    34   ar
    34    34    35   ar
    35    35     3   ar
    36    33     8   ar
    37    33    11   ar
    38    26    14   ar
    39    22    17   ar
    40     1    36    1
    41     1    37    1
    42     1    38    1
    43     4    39    1
    44     5    40    1
    45     7    41    1
    46     7    42    1
    47     9    43    1
    48    10    44    1
    49    13    45    1
    50    15    46    1
    51    19    47    1
    52    20    48    1
    53    21    49    1
    54    25    50    1
    55    27    51    1
    56    28    52    1
    57    28    53    1
    58    28    54    1
    59    29    55    1
    60    29    56    1
    61    29    57    1
    62    31    58    1
    63    34    59    1
    64    35    60    1
