
     RDKit          3D

 60 64  0  0  0  0  0  0  0  0999 V2000
    8.5792   -2.8344   -0.0534 C   0  0  0  0  0  0  0  0  0  0  0  0
    7.4361   -2.7487   -0.8662 O   0  0  0  0  0  0  0  0  0  0  0  0
    6.5911   -1.6746   -0.9041 C   0  0  0  0  0  0  0  0  0  0  0  0
    5.4946   -1.6891   -1.7379 C   0  0  0  0  0  0  0  0  0  0  0  0
    4.6324   -0.5950   -1.7780 C   0  0  0  0  0  0  0  0  0  0  0  0
    4.8737    0.5036   -0.9844 C   0  0  0  0  0  0  0  0  0  0  0  0
    3.9678    1.6883   -1.0118 C   0  0  0  0  0  0  0  0  0  0  0  0
    2.8004    1.3709   -0.2105 N   0  0  0  0  0  0  0  0  0  0  0  0
    2.6342    1.5222    1.0957 C   0  0  0  0  0  0  0  0  0  0  0  0
    1.3617    1.0838    1.4398 C   0  0  0  0  0  0  0  0  0  0  0  0
    0.7199    0.6470    0.2988 C   0  0  0  0  0  0  0  0  0  0  0  0
   -0.5025    0.1451    0.0084 C   0  0  0  0  0  0  0  0  0  0  0  0
   -1.4978   -0.0895    1.0076 N   0  0  0  0  0  0  0  0  0  0  0  0
   -2.8371    0.2678    0.7778 C   0  0  0  0  0  0  0  0  0  0  0  0
   -3.7810   -0.7546    0.5676 C   0  0  0  0  0  0  0  0  0  0  0  0
   -5.0943   -0.4866    0.3038 C   0  0  0  0  0  0  0  0  0  0  0  0
   -6.0858   -1.5362    0.0280 C   0  0  0  0  0  0  0  0  0  0  0  0
   -6.9182   -1.3839   -1.0480 N   0  0  0  0  0  0  0  0  0  0  0  0
   -7.8314   -2.3300   -1.3238 C   0  0  0  0  0  0  0  0  0  0  0  0
   -7.9642   -3.4565   -0.5595 C   0  0  0  0  0  0  0  0  0  0  0  0
   -7.1184   -3.6022    0.5287 C   0  0  0  0  0  0  0  0  0  0  0  0
   -6.1625   -2.6358    0.8363 C   0  0  0  0  0  0  0  0  0  0  0  0
   -5.3440   -2.7905    1.9020 F   0  0  0  0  0  0  0  0  0  0  0  0
   -5.4982    0.7938    0.2459 N   0  0  0  0  0  0  0  0  0  0  0  0
   -4.6528    1.8145    0.4396 C   0  0  0  0  0  0  0  0  0  0  0  0
   -3.2814    1.5452    0.7147 C   0  0  0  0  0  0  0  0  0  0  0  0
   -2.3879    2.6929    0.9878 C   0  0  0  0  0  0  0  0  0  0  0  0
   -1.5351    3.1255   -0.1533 C   0  0  0  0  0  0  0  0  0  0  0  0
   -1.7060    2.6402    2.3325 C   0  0  0  0  0  0  0  0  0  0  0  0
   -0.7911   -0.1614   -1.2855 N   0  0  0  0  0  0  0  0  0  0  0  0
    0.1118    0.0249   -2.2598 C   0  0  0  0  0  0  0  0  0  0  0  0
    1.3241    0.5244   -1.9659 N   0  0  0  0  0  0  0  0  0  0  0  0
    1.6639    0.8445   -0.7206 C   0  0  0  0  0  0  0  0  0  0  0  0
    5.9696    0.5329   -0.1428 C   0  0  0  0  0  0  0  0  0  0  0  0
    6.7998   -0.5591   -0.1258 C   0  0  0  0  0  0  0  0  0  0  0  0
    9.4216   -2.3401   -0.5869 H   0  0  0  0  0  0  0  0  0  0  0  0
    8.3436   -2.3744    0.9227 H   0  0  0  0  0  0  0  0  0  0  0  0
    8.8101   -3.9126    0.1169 H   0  0  0  0  0  0  0  0  0  0  0  0
    5.2760   -2.5470   -2.3756 H   0  0  0  0  0  0  0  0  0  0  0  0
    3.7970   -0.6681   -2.4430 H   0  0  0  0  0  0  0  0  0  0  0  0
    4.5020    2.5720   -0.6046 H   0  0  0  0  0  0  0  0  0  0  0  0
    3.6714    1.9443   -2.0670 H   0  0  0  0  0  0  0  0  0  0  0  0
    3.3639    1.9257    1.8098 H   0  0  0  0  0  0  0  0  0  0  0  0
    0.9385    1.0764    2.4203 H   0  0  0  0  0  0  0  0  0  0  0  0
   -1.2132   -0.5389    1.8859 H   0  0  0  0  0  0  0  0  0  0  0  0
   -3.4415   -1.7832    0.6215 H   0  0  0  0  0  0  0  0  0  0  0  0
   -8.4676   -2.1490   -2.2054 H   0  0  0  0  0  0  0  0  0  0  0  0
   -8.7100   -4.1812   -0.8299 H   0  0  0  0  0  0  0  0  0  0  0  0
   -7.2052   -4.4764    1.1458 H   0  0  0  0  0  0  0  0  0  0  0  0
   -4.9811    2.8437    0.3922 H   0  0  0  0  0  0  0  0  0  0  0  0
   -3.1098    3.5948    1.1360 H   0  0  0  0  0  0  0  0  0  0  0  0
   -1.7871    2.4980   -1.0344 H   0  0  0  0  0  0  0  0  0  0  0  0
   -1.7739    4.1804   -0.5152 H   0  0  0  0  0  0  0  0  0  0  0  0
   -0.4507    3.1841    0.0719 H   0  0  0  0  0  0  0  0  0  0  0  0
   -0.9650    3.4629    2.3778 H   0  0  0  0  0  0  0  0  0  0  0  0
   -2.4451    2.9207    3.1608 H   0  0  0  0  0  0  0  0  0  0  0  0
   -1.2956    1.6559    2.5833 H   0  0  0  0  0  0  0  0  0  0  0  0
   -0.0859   -0.2106   -3.3005 H   0  0  0  0  0  0  0  0  0  0  0  0
    6.1769    1.3899    0.4861 H   0  0  0  0  0  0  0  0  0  0  0  0
    7.6598   -0.5066    0.5459 H   0  0  0  0  0  0  0  0  0  0  0  0
  1  2  1  0
  2  3  1  0
  3  4  2  0
  4  5  1  0
  5  6  2  0
  6  7  1  0
  7  8  1  0
  8  9  1  0
  9 10  2  0
 10 11  1  0
 11 12  2  0
 12 13  1  0
 13 14  1  0
 14 15  2  0
 15 16  1  0
 16 17  1  0
 17 18  2  0
 18 19  1  0
 19 20  2  0
 20 21  1  0
 21 22  2  0
 22 23  1  0
 16 24  2  0
 24 25  1  0
 25 26  2  0
 26 27  1  0
 27 28  1  0
 27 29  1  0
 12 30  1  0
 30 31  2  0
 31 32  1  0
 32 33  2  0
  6 34  1  0
 34 35  2  0
 35  3  1  0
 33  8  1  0
 33 11  1  0
 26 14  1  0
 22 17  1  0
  1 36  1  0
  1 37  1  0
  1 38  1  0
  4 39  1  0
  5 40  1  0
  7 41  1  0
  7 42  1  0
  9 43  1  0
 10 44  1  0
 13 45  1  0
 15 46  1  0
 19 47  1  0
 20 48  1  0
 21 49  1  0
 25 50  1  0
 27 51  1  0
 28 52  1  0
 28 53  1  0
 28 54  1  0
 29 55  1  0
 29 56  1  0
 29 57  1  0
 31 58  1  0
 34 59  1  0
 35 60  1  0
M  END
$$$$
