@<TRIPOS>MOLECULE
*****
 83 83 0 0 0
SMALL
GASTEIGER

@<TRIPOS>ATOM
      1 C           5.9304   -2.7976    1.5006 C.3     1  UNL1       -0.0626
      2 C           5.1593   -1.7224    2.2174 C.3     1  UNL1       -0.0448
      3 C           4.6906   -2.3266    3.5511 C.3     1  UNL1       -0.0626
      4 C           3.9485   -1.2318    1.5184 C.3     1  UNL1       -0.0285
      5 C           4.1041   -0.6167    0.1895 C.3     1  UNL1        0.0432
      6 C           4.7391   -1.4938   -0.8356 C.2     1  UNL1       -0.0464
      7 C           5.9131   -1.2032   -1.3332 C.2     1  UNL1        0.0495
      8 S           6.9094    0.1606   -0.9386 S.O2    1  UNL1       -0.0127
      9 C           8.3223    0.2520   -2.0411 C.3     1  UNL1        0.0589
     10 O           7.4837    0.0130    0.4384 O.2     1  UNL1       -0.1702
     11 O           6.2148    1.4876   -1.0400 O.2     1  UNL1       -0.1702
     12 N           2.7437   -0.2879   -0.3055 N.am    1  UNL1       -0.3075
     13 C           2.4573    0.5810   -1.3408 C.2     1  UNL1        0.2335
     14 O           3.4428    1.1405   -1.9819 O.2     1  UNL1       -0.2738
     15 C           1.1374    1.0015   -1.8537 C.3     1  UNL1        0.0966
     16 C           1.1843    2.5597   -1.8714 C.3     1  UNL1       -0.0381
     17 N          -0.0007    0.5700   -1.1194 N.am    1  UNL1       -0.3027
     18 C          -1.2583    0.3134   -1.7351 C.2     1  UNL1        0.2341
     19 O          -1.3107    0.4739   -3.0009 O.2     1  UNL1       -0.2738
     20 C          -2.4777   -0.1123   -0.9907 C.3     1  UNL1        0.1030
     21 C          -3.5744    0.9476   -1.1841 C.3     1  UNL1       -0.0158
     22 C          -3.1733    2.2913   -0.6848 C.3     1  UNL1        0.0471
     23 C          -4.3324    3.2318   -0.9273 C.2     1  UNL1        0.3076
     24 O          -5.3996    3.0435   -0.3230 O.2     1  UNL1       -0.2508
     25 O          -4.2339    4.2898   -1.7981 O.3     1  UNL1       -0.4589
     26 C          -5.2325    5.2109   -2.0916 C.3     1  UNL1        0.1052
     27 C          -5.7196    5.9833   -0.8861 C.3     1  UNL1       -0.0254
     28 C          -4.6505    6.2492   -3.0458 C.3     1  UNL1       -0.0254
     29 C          -6.4481    4.6009   -2.7390 C.3     1  UNL1       -0.0254
     30 N          -2.2451   -0.3480    0.4023 N.am    1  UNL1       -0.2698
     31 C          -2.8461   -1.4755    1.0800 C.2     1  UNL1        0.4012
     32 O          -3.5873   -2.2352    0.4061 O.2     1  UNL1       -0.2265
     33 O          -2.6515   -1.7502    2.3927 O.3     1  UNL1       -0.4456
     34 C          -3.1734   -2.7828    3.1732 C.3     1  UNL1        0.1191
     35 C          -2.8600   -4.1444    2.7055 C.ar    1  UNL1       -0.0103
     36 C          -3.7671   -4.8297    1.9032 C.ar    1  UNL1       -0.0554
     37 C          -3.4759   -6.1019    1.4487 C.ar    1  UNL1       -0.0614
     38 C          -2.2912   -6.6932    1.7882 C.ar    1  UNL1       -0.0617
     39 C          -1.3813   -6.0277    2.5831 C.ar    1  UNL1       -0.0614
     40 C          -1.6809   -4.7386    3.0411 C.ar    1  UNL1       -0.0554
     41 H           6.8885   -2.4430    1.1348 H       1  UNL1        0.0232
     42 H           5.2822   -3.2892    0.7455 H       1  UNL1        0.0232
     43 H           6.1917   -3.6351    2.2225 H       1  UNL1        0.0232
     44 H           5.8151   -0.8638    2.5478 H       1  UNL1        0.0296
     45 H           4.0506   -1.6448    4.1019 H       1  UNL1        0.0232
     46 H           5.5437   -2.7488    4.1091 H       1  UNL1        0.0232
     47 H           4.0547   -3.2070    3.2425 H       1  UNL1        0.0232
     48 H           3.1963   -2.0748    1.5349 H       1  UNL1        0.0289
     49 H           3.4817   -0.4609    2.1894 H       1  UNL1        0.0289
     50 H           4.6534    0.3380    0.2274 H       1  UNL1        0.0543
     51 H           4.2063   -2.3664   -1.1635 H       1  UNL1        0.0603
     52 H           6.3442   -1.8982   -2.1075 H       1  UNL1        0.0816
     53 H           8.0740   -0.0946   -3.0597 H       1  UNL1        0.0468
     54 H           9.1693   -0.3134   -1.6207 H       1  UNL1        0.0468
     55 H           8.6085    1.3133   -2.1095 H       1  UNL1        0.0468
     56 H           1.8979   -0.7511    0.1609 H       1  UNL1        0.1493
     57 H           1.0367    0.7391   -2.9154 H       1  UNL1        0.0592
     58 H           2.1709    2.8411   -2.2619 H       1  UNL1        0.0252
     59 H           1.0700    2.8722   -0.8133 H       1  UNL1        0.0252
     60 H           0.3287    2.9618   -2.4397 H       1  UNL1        0.0252
     61 H           0.0705    0.4221   -0.0663 H       1  UNL1        0.1495
     62 H          -2.8873   -1.0112   -1.4610 H       1  UNL1        0.0596
     63 H          -4.4912    0.5474   -0.7382 H       1  UNL1        0.0293
     64 H          -3.7184    0.9843   -2.2898 H       1  UNL1        0.0293
     65 H          -2.3340    2.6857   -1.2923 H       1  UNL1        0.0378
     66 H          -2.8594    2.3237    0.3590 H       1  UNL1        0.0378
     67 H          -4.9434    6.6011   -0.4000 H       1  UNL1        0.0268
     68 H          -6.4454    6.7390   -1.3080 H       1  UNL1        0.0268
     69 H          -6.3307    5.3805   -0.1867 H       1  UNL1        0.0268
     70 H          -4.3278    7.1582   -2.4760 H       1  UNL1        0.0268
     71 H          -3.7810    5.8700   -3.5809 H       1  UNL1        0.0268
     72 H          -5.4076    6.6093   -3.7863 H       1  UNL1        0.0268
     73 H          -7.2335    4.3230   -2.0040 H       1  UNL1        0.0268
     74 H          -6.8648    5.3755   -3.4419 H       1  UNL1        0.0268
     75 H          -6.1577    3.7383   -3.3720 H       1  UNL1        0.0268
     76 H          -1.6442    0.2588    1.0007 H       1  UNL1        0.1528
     77 H          -2.7565   -2.6620    4.2183 H       1  UNL1        0.0749
     78 H          -4.2860   -2.6196    3.2162 H       1  UNL1        0.0749
     79 H          -4.6934   -4.3837    1.6371 H       1  UNL1        0.0621
     80 H          -4.1659   -6.6607    0.8216 H       1  UNL1        0.0618
     81 H          -2.0391   -7.6927    1.4449 H       1  UNL1        0.0618
     82 H          -0.4489   -6.4783    2.8568 H       1  UNL1        0.0618
     83 H          -0.9281   -4.2651    3.6624 H       1  UNL1        0.0621
@<TRIPOS>BOND
     1     1     2    1
     2     2     3    1
     3     2     4    1
     4     4     5    1
     5     5     6    1
     6     6     7    2
     7     7     8    1
     8     8     9    1
     9     8    10    2
    10     8    11    2
    11     5    12    1
    12    12    13   am
    13    13    14    2
    14    13    15    1
    15    15    16    1
    16    15    17    1
    17    17    18   am
    18    18    19    2
    19    18    20    1
    20    20    21    1
    21    21    22    1
    22    22    23    1
    23    23    24    2
    24    23    25    1
    25    25    26    1
    26    26    27    1
    27    26    28    1
    28    26    29    1
    29    20    30    1
    30    30    31   am
    31    31    32    2
    32    31    33    1
    33    33    34    1
    34    34    35    1
    35    35    36   ar
    36    36    37   ar
    37    37    38   ar
    38    38    39   ar
    39    39    40   ar
    40    40    35   ar
    41     1    41    1
    42     1    42    1
    43     1    43    1
    44     2    44    1
    45     3    45    1
    46     3    46    1
    47     3    47    1
    48     4    48    1
    49     4    49    1
    50     5    50    1
    51     6    51    1
    52     7    52    1
    53     9    53    1
    54     9    54    1
    55     9    55    1
    56    12    56    1
    57    15    57    1
    58    16    58    1
    59    16    59    1
    60    16    60    1
    61    17    61    1
    62    20    62    1
    63    21    63    1
    64    21    64    1
    65    22    65    1
    66    22    66    1
    67    27    67    1
    68    27    68    1
    69    27    69    1
    70    28    70    1
    71    28    71    1
    72    28    72    1
    73    29    73    1
    74    29    74    1
    75    29    75    1
    76    30    76    1
    77    34    77    1
    78    34    78    1
    79    36    79    1
    80    37    80    1
    81    38    81    1
    82    39    82    1
    83    40    83    1
