
     RDKit          3D

 83 83  0  0  0  0  0  0  0  0999 V2000
    5.9304   -2.7976    1.5006 C   0  0  0  0  0  0  0  0  0  0  0  0
    5.1593   -1.7224    2.2174 C   0  0  0  0  0  0  0  0  0  0  0  0
    4.6906   -2.3266    3.5511 C   0  0  0  0  0  0  0  0  0  0  0  0
    3.9485   -1.2318    1.5184 C   0  0  0  0  0  0  0  0  0  0  0  0
    4.1041   -0.6167    0.1895 C   0  0  1  0  0  0  0  0  0  0  0  0
    4.7391   -1.4938   -0.8356 C   0  0  0  0  0  0  0  0  0  0  0  0
    5.9131   -1.2032   -1.3332 C   0  0  0  0  0  0  0  0  0  0  0  0
    6.9094    0.1606   -0.9386 S   0  0  0  0  0  6  0  0  0  0  0  0
    8.3223    0.2520   -2.0411 C   0  0  0  0  0  0  0  0  0  0  0  0
    7.4837    0.0130    0.4384 O   0  0  0  0  0  0  0  0  0  0  0  0
    6.2148    1.4876   -1.0400 O   0  0  0  0  0  0  0  0  0  0  0  0
    2.7437   -0.2879   -0.3055 N   0  0  0  0  0  0  0  0  0  0  0  0
    2.4573    0.5810   -1.3408 C   0  0  0  0  0  0  0  0  0  0  0  0
    3.4428    1.1405   -1.9819 O   0  0  0  0  0  0  0  0  0  0  0  0
    1.1374    1.0015   -1.8537 C   0  0  2  0  0  0  0  0  0  0  0  0
    1.1843    2.5597   -1.8714 C   0  0  0  0  0  0  0  0  0  0  0  0
   -0.0007    0.5700   -1.1194 N   0  0  0  0  0  0  0  0  0  0  0  0
   -1.2583    0.3134   -1.7351 C   0  0  0  0  0  0  0  0  0  0  0  0
   -1.3107    0.4739   -3.0009 O   0  0  0  0  0  0  0  0  0  0  0  0
   -2.4777   -0.1123   -0.9907 C   0  0  2  0  0  0  0  0  0  0  0  0
   -3.5744    0.9476   -1.1841 C   0  0  0  0  0  0  0  0  0  0  0  0
   -3.1733    2.2913   -0.6848 C   0  0  0  0  0  0  0  0  0  0  0  0
   -4.3324    3.2318   -0.9273 C   0  0  0  0  0  0  0  0  0  0  0  0
   -5.3996    3.0435   -0.3230 O   0  0  0  0  0  0  0  0  0  0  0  0
   -4.2339    4.2898   -1.7981 O   0  0  0  0  0  0  0  0  0  0  0  0
   -5.2325    5.2109   -2.0916 C   0  0  0  0  0  0  0  0  0  0  0  0
   -5.7196    5.9833   -0.8861 C   0  0  0  0  0  0  0  0  0  0  0  0
   -4.6505    6.2492   -3.0458 C   0  0  0  0  0  0  0  0  0  0  0  0
   -6.4481    4.6009   -2.7390 C   0  0  0  0  0  0  0  0  0  0  0  0
   -2.2451   -0.3480    0.4023 N   0  0  0  0  0  0  0  0  0  0  0  0
   -2.8461   -1.4755    1.0800 C   0  0  0  0  0  0  0  0  0  0  0  0
   -3.5873   -2.2352    0.4061 O   0  0  0  0  0  0  0  0  0  0  0  0
   -2.6515   -1.7502    2.3927 O   0  0  0  0  0  0  0  0  0  0  0  0
   -3.1734   -2.7828    3.1732 C   0  0  0  0  0  0  0  0  0  0  0  0
   -2.8600   -4.1444    2.7055 C   0  0  0  0  0  0  0  0  0  0  0  0
   -3.7671   -4.8297    1.9032 C   0  0  0  0  0  0  0  0  0  0  0  0
   -3.4759   -6.1019    1.4487 C   0  0  0  0  0  0  0  0  0  0  0  0
   -2.2912   -6.6932    1.7882 C   0  0  0  0  0  0  0  0  0  0  0  0
   -1.3813   -6.0277    2.5831 C   0  0  0  0  0  0  0  0  0  0  0  0
   -1.6809   -4.7386    3.0411 C   0  0  0  0  0  0  0  0  0  0  0  0
    6.8885   -2.4430    1.1348 H   0  0  0  0  0  0  0  0  0  0  0  0
    5.2822   -3.2892    0.7455 H   0  0  0  0  0  0  0  0  0  0  0  0
    6.1917   -3.6351    2.2225 H   0  0  0  0  0  0  0  0  0  0  0  0
    5.8151   -0.8638    2.5478 H   0  0  0  0  0  0  0  0  0  0  0  0
    4.0506   -1.6448    4.1019 H   0  0  0  0  0  0  0  0  0  0  0  0
    5.5437   -2.7488    4.1091 H   0  0  0  0  0  0  0  0  0  0  0  0
    4.0547   -3.2070    3.2425 H   0  0  0  0  0  0  0  0  0  0  0  0
    3.1963   -2.0748    1.5349 H   0  0  0  0  0  0  0  0  0  0  0  0
    3.4817   -0.4609    2.1894 H   0  0  0  0  0  0  0  0  0  0  0  0
    4.6534    0.3380    0.2274 H   0  0  0  0  0  0  0  0  0  0  0  0
    4.2063   -2.3664   -1.1635 H   0  0  0  0  0  0  0  0  0  0  0  0
    6.3442   -1.8982   -2.1075 H   0  0  0  0  0  0  0  0  0  0  0  0
    8.0740   -0.0946   -3.0597 H   0  0  0  0  0  0  0  0  0  0  0  0
    9.1693   -0.3134   -1.6207 H   0  0  0  0  0  0  0  0  0  0  0  0
    8.6085    1.3133   -2.1095 H   0  0  0  0  0  0  0  0  0  0  0  0
    1.8979   -0.7511    0.1609 H   0  0  0  0  0  0  0  0  0  0  0  0
    1.0367    0.7391   -2.9154 H   0  0  0  0  0  0  0  0  0  0  0  0
    2.1709    2.8411   -2.2619 H   0  0  0  0  0  0  0  0  0  0  0  0
    1.0700    2.8722   -0.8133 H   0  0  0  0  0  0  0  0  0  0  0  0
    0.3287    2.9618   -2.4397 H   0  0  0  0  0  0  0  0  0  0  0  0
    0.0705    0.4221   -0.0663 H   0  0  0  0  0  0  0  0  0  0  0  0
   -2.8873   -1.0112   -1.4610 H   0  0  0  0  0  0  0  0  0  0  0  0
   -4.4912    0.5474   -0.7382 H   0  0  0  0  0  0  0  0  0  0  0  0
   -3.7184    0.9843   -2.2898 H   0  0  0  0  0  0  0  0  0  0  0  0
   -2.3340    2.6857   -1.2923 H   0  0  0  0  0  0  0  0  0  0  0  0
   -2.8594    2.3237    0.3590 H   0  0  0  0  0  0  0  0  0  0  0  0
   -4.9434    6.6011   -0.4000 H   0  0  0  0  0  0  0  0  0  0  0  0
   -6.4454    6.7390   -1.3080 H   0  0  0  0  0  0  0  0  0  0  0  0
   -6.3307    5.3805   -0.1867 H   0  0  0  0  0  0  0  0  0  0  0  0
   -4.3278    7.1582   -2.4760 H   0  0  0  0  0  0  0  0  0  0  0  0
   -3.7810    5.8700   -3.5809 H   0  0  0  0  0  0  0  0  0  0  0  0
   -5.4076    6.6093   -3.7863 H   0  0  0  0  0  0  0  0  0  0  0  0
   -7.2335    4.3230   -2.0040 H   0  0  0  0  0  0  0  0  0  0  0  0
   -6.8648    5.3755   -3.4419 H   0  0  0  0  0  0  0  0  0  0  0  0
   -6.1577    3.7383   -3.3720 H   0  0  0  0  0  0  0  0  0  0  0  0
   -1.6442    0.2588    1.0007 H   0  0  0  0  0  0  0  0  0  0  0  0
   -2.7565   -2.6620    4.2183 H   0  0  0  0  0  0  0  0  0  0  0  0
   -4.2860   -2.6196    3.2162 H   0  0  0  0  0  0  0  0  0  0  0  0
   -4.6934   -4.3837    1.6371 H   0  0  0  0  0  0  0  0  0  0  0  0
   -4.1659   -6.6607    0.8216 H   0  0  0  0  0  0  0  0  0  0  0  0
   -2.0391   -7.6927    1.4449 H   0  0  0  0  0  0  0  0  0  0  0  0
   -0.4489   -6.4783    2.8568 H   0  0  0  0  0  0  0  0  0  0  0  0
   -0.9281   -4.2651    3.6624 H   0  0  0  0  0  0  0  0  0  0  0  0
  1  2  1  0
  2  3  1  0
  2  4  1  0
  4  5  1  0
  5  6  1  0
  6  7  2  3
  7  8  1  0
  8  9  1  0
  8 10  2  0
  8 11  2  0
  5 12  1  0
 12 13  1  0
 13 14  2  0
 13 15  1  0
 15 16  1  0
 15 17  1  0
 17 18  1  0
 18 19  2  0
 18 20  1  0
 20 21  1  0
 21 22  1  0
 22 23  1  0
 23 24  2  0
 23 25  1  0
 25 26  1  0
 26 27  1  0
 26 28  1  0
 26 29  1  0
 20 30  1  0
 30 31  1  0
 31 32  2  0
 31 33  1  0
 33 34  1  0
 34 35  1  0
 35 36  2  0
 36 37  1  0
 37 38  2  0
 38 39  1  0
 39 40  2  0
 40 35  1  0
  1 41  1  0
  1 42  1  0
  1 43  1  0
  2 44  1  0
  3 45  1  0
  3 46  1  0
  3 47  1  0
  4 48  1  0
  4 49  1  0
  5 50  1  1
  6 51  1  0
  7 52  1  0
  9 53  1  0
  9 54  1  0
  9 55  1  0
 12 56  1  0
 15 57  1  6
 16 58  1  0
 16 59  1  0
 16 60  1  0
 17 61  1  0
 20 62  1  6
 21 63  1  0
 21 64  1  0
 22 65  1  0
 22 66  1  0
 27 67  1  0
 27 68  1  0
 27 69  1  0
 28 70  1  0
 28 71  1  0
 28 72  1  0
 29 73  1  0
 29 74  1  0
 29 75  1  0
 30 76  1  0
 34 77  1  0
 34 78  1  0
 36 79  1  0
 37 80  1  0
 38 81  1  0
 39 82  1  0
 40 83  1  0
M  END
$$$$
