
     RDKit          3D

 50 54  0  0  0  0  0  0  0  0999 V2000
    8.1595    3.2962    1.2060 Cl  0  0  0  0  0  0  0  0  0  0  0  0
    6.7865    2.2319    0.9455 C   0  0  0  0  0  0  0  0  0  0  0  0
    5.8374    2.0676    1.9238 C   0  0  0  0  0  0  0  0  0  0  0  0
    4.7525    1.2154    1.6954 C   0  0  0  0  0  0  0  0  0  0  0  0
    4.6362    0.5467    0.5002 C   0  0  0  0  0  0  0  0  0  0  0  0
    3.4935   -0.3456    0.2700 C   0  0  0  0  0  0  0  0  0  0  0  0
    2.4736   -0.6010    1.1619 C   0  0  0  0  0  0  0  0  0  0  0  0
    1.6091   -1.4927    0.5485 C   0  0  0  0  0  0  0  0  0  0  0  0
    2.1400   -1.7471   -0.7012 C   0  0  0  0  0  0  0  0  0  0  0  0
    1.5333   -2.6473   -1.6883 C   0  0  0  0  0  0  0  0  0  0  0  0
    2.1380   -3.5821   -2.4506 N   0  0  0  0  0  0  0  0  0  0  0  0
    1.2266   -4.1976   -3.2312 C   0  0  0  0  0  0  0  0  0  0  0  0
    0.0014   -3.6121   -2.9340 C   0  0  0  0  0  0  0  0  0  0  0  0
    0.2219   -2.6634   -1.9827 N   0  0  0  0  0  0  0  0  0  0  0  0
   -0.7562   -1.8199   -1.3870 C   0  0  0  0  0  0  0  0  0  0  0  0
   -0.5589   -0.4555   -1.3665 C   0  0  0  0  0  0  0  0  0  0  0  0
   -1.5262    0.3571   -0.7792 C   0  0  0  0  0  0  0  0  0  0  0  0
   -2.6753   -0.1162   -0.2135 C   0  0  0  0  0  0  0  0  0  0  0  0
   -3.6519    0.7287    0.3782 N   0  0  0  0  0  0  0  0  0  0  0  0
   -3.4798    2.1560    0.3250 C   0  0  0  0  0  0  0  0  0  0  0  0
   -4.8815    2.7659    0.3814 C   0  0  0  0  0  0  0  0  0  0  0  0
   -5.5015    2.4976    1.6508 N   0  0  0  0  0  0  0  0  0  0  0  0
   -5.2218    1.1919    2.1721 C   0  0  0  0  0  0  0  0  0  0  0  0
   -4.8318    0.2272    1.0475 C   0  0  0  0  0  0  0  0  0  0  0  0
   -2.8553   -1.5025   -0.2452 C   0  0  0  0  0  0  0  0  0  0  0  0
   -1.9095   -2.3242   -0.8218 C   0  0  0  0  0  0  0  0  0  0  0  0
    3.2322   -1.0483   -0.7939 O   0  0  0  0  0  0  0  0  0  0  0  0
    5.6131    0.7447   -0.4483 C   0  0  0  0  0  0  0  0  0  0  0  0
    6.6931    1.5740   -0.2595 C   0  0  0  0  0  0  0  0  0  0  0  0
    5.9333    2.6014    2.8736 H   0  0  0  0  0  0  0  0  0  0  0  0
    3.9986    1.0753    2.4529 H   0  0  0  0  0  0  0  0  0  0  0  0
    2.4071   -0.1614    2.1455 H   0  0  0  0  0  0  0  0  0  0  0  0
    0.7150   -1.8711    1.0171 H   0  0  0  0  0  0  0  0  0  0  0  0
    1.3907   -4.9923   -3.9538 H   0  0  0  0  0  0  0  0  0  0  0  0
   -0.9604   -3.8530   -3.3683 H   0  0  0  0  0  0  0  0  0  0  0  0
    0.3451   -0.0751   -1.8109 H   0  0  0  0  0  0  0  0  0  0  0  0
   -1.3083    1.4228   -0.7958 H   0  0  0  0  0  0  0  0  0  0  0  0
   -3.0411    2.4637   -0.6472 H   0  0  0  0  0  0  0  0  0  0  0  0
   -2.8715    2.5596    1.1329 H   0  0  0  0  0  0  0  0  0  0  0  0
   -5.4939    2.3249   -0.4300 H   0  0  0  0  0  0  0  0  0  0  0  0
   -4.7493    3.8580    0.2840 H   0  0  0  0  0  0  0  0  0  0  0  0
   -5.3459    3.2612    2.3350 H   0  0  0  0  0  0  0  0  0  0  0  0
   -6.1127    0.7532    2.6872 H   0  0  0  0  0  0  0  0  0  0  0  0
   -4.4254    1.2338    2.9359 H   0  0  0  0  0  0  0  0  0  0  0  0
   -4.6315   -0.7606    1.5445 H   0  0  0  0  0  0  0  0  0  0  0  0
   -5.7008    0.1136    0.3688 H   0  0  0  0  0  0  0  0  0  0  0  0
   -3.7398   -1.9622    0.1804 H   0  0  0  0  0  0  0  0  0  0  0  0
   -2.1020   -3.3836   -0.8169 H   0  0  0  0  0  0  0  0  0  0  0  0
    5.5324    0.2253   -1.3901 H   0  0  0  0  0  0  0  0  0  0  0  0
    7.4624    1.7213   -1.0240 H   0  0  0  0  0  0  0  0  0  0  0  0
  1  2  1  0
  2  3  2  0
  3  4  1  0
  4  5  2  0
  5  6  1  0
  6  7  2  0
  7  8  1  0
  8  9  2  0
  9 10  1  0
 10 11  2  0
 11 12  1  0
 12 13  2  0
 13 14  1  0
 14 15  1  0
 15 16  2  0
 16 17  1  0
 17 18  2  0
 18 19  1  0
 19 20  1  0
 20 21  1  0
 21 22  1  0
 22 23  1  0
 23 24  1  0
 18 25  1  0
 25 26  2  0
  9 27  1  0
  5 28  1  0
 28 29  2  0
 29  2  1  0
 27  6  1  0
 14 10  1  0
 26 15  1  0
 24 19  1  0
  3 30  1  0
  4 31  1  0
  7 32  1  0
  8 33  1  0
 12 34  1  0
 13 35  1  0
 16 36  1  0
 17 37  1  0
 20 38  1  0
 20 39  1  0
 21 40  1  0
 21 41  1  0
 22 42  1  0
 23 43  1  0
 23 44  1  0
 24 45  1  0
 24 46  1  0
 25 47  1  0
 26 48  1  0
 28 49  1  0
 29 50  1  0
M  END
$$$$
