@<TRIPOS>MOLECULE
*****
 50 54 0 0 0
SMALL
GASTEIGER

@<TRIPOS>ATOM
      1 CL          8.1595    3.2962    1.2060 Cl      1  UNL1       -0.0835
      2 C           6.7865    2.2319    0.9455 C.ar    1  UNL1        0.0410
      3 C           5.8374    2.0676    1.9238 C.ar    1  UNL1       -0.0427
      4 C           4.7525    1.2154    1.6954 C.ar    1  UNL1       -0.0497
      5 C           4.6362    0.5467    0.5002 C.ar    1  UNL1        0.0174
      6 C           3.4935   -0.3456    0.2700 C.ar    1  UNL1        0.1358
      7 C           2.4736   -0.6010    1.1619 C.ar    1  UNL1       -0.0152
      8 C           1.6091   -1.4927    0.5485 C.ar    1  UNL1       -0.0122
      9 C           2.1400   -1.7471   -0.7012 C.ar    1  UNL1        0.1711
     10 C           1.5333   -2.6473   -1.6883 C.ar    1  UNL1        0.1811
     11 N           2.1380   -3.5821   -2.4506 N.ar    1  UNL1       -0.2328
     12 C           1.2266   -4.1976   -3.2312 C.ar    1  UNL1        0.0465
     13 C           0.0014   -3.6121   -2.9340 C.ar    1  UNL1        0.0299
     14 N           0.2219   -2.6634   -1.9827 N.ar    1  UNL1       -0.2970
     15 C          -0.7562   -1.8199   -1.3870 C.ar    1  UNL1        0.0482
     16 C          -0.5589   -0.4555   -1.3665 C.ar    1  UNL1       -0.0361
     17 C          -1.5262    0.3571   -0.7792 C.ar    1  UNL1       -0.0387
     18 C          -2.6753   -0.1162   -0.2135 C.ar    1  UNL1        0.0299
     19 N          -3.6519    0.7287    0.3782 N.pl3   1  UNL1       -0.3275
     20 C          -3.4798    2.1560    0.3250 C.3     1  UNL1        0.0248
     21 C          -4.8815    2.7659    0.3814 C.3     1  UNL1        0.0117
     22 N          -5.5015    2.4976    1.6508 N.3     1  UNL1       -0.3130
     23 C          -5.2218    1.1919    2.1721 C.3     1  UNL1        0.0117
     24 C          -4.8318    0.2272    1.0475 C.3     1  UNL1        0.0248
     25 C          -2.8553   -1.5025   -0.2452 C.ar    1  UNL1       -0.0387
     26 C          -1.9095   -2.3242   -0.8218 C.ar    1  UNL1       -0.0361
     27 O           3.2322   -1.0483   -0.7939 O.2     1  UNL1       -0.4518
     28 C           5.6131    0.7447   -0.4483 C.ar    1  UNL1       -0.0497
     29 C           6.6931    1.5740   -0.2595 C.ar    1  UNL1       -0.0427
     30 H           5.9333    2.6014    2.8736 H       1  UNL1        0.0632
     31 H           3.9986    1.0753    2.4529 H       1  UNL1        0.0625
     32 H           2.4071   -0.1614    2.1455 H       1  UNL1        0.0656
     33 H           0.7150   -1.8711    1.0171 H       1  UNL1        0.0657
     34 H           1.3907   -4.9923   -3.9538 H       1  UNL1        0.0845
     35 H          -0.9604   -3.8530   -3.3683 H       1  UNL1        0.0829
     36 H           0.3451   -0.0751   -1.8109 H       1  UNL1        0.0639
     37 H          -1.3083    1.4228   -0.7958 H       1  UNL1        0.0637
     38 H          -3.0411    2.4637   -0.6472 H       1  UNL1        0.0476
     39 H          -2.8715    2.5596    1.1329 H       1  UNL1        0.0476
     40 H          -5.4939    2.3249   -0.4300 H       1  UNL1        0.0439
     41 H          -4.7493    3.8580    0.2840 H       1  UNL1        0.0439
     42 H          -5.3459    3.2612    2.3350 H       1  UNL1        0.1220
     43 H          -6.1127    0.7532    2.6872 H       1  UNL1        0.0439
     44 H          -4.4254    1.2338    2.9359 H       1  UNL1        0.0439
     45 H          -4.6315   -0.7606    1.5445 H       1  UNL1        0.0476
     46 H          -5.7008    0.1136    0.3688 H       1  UNL1        0.0476
     47 H          -3.7398   -1.9622    0.1804 H       1  UNL1        0.0637
     48 H          -2.1020   -3.3836   -0.8169 H       1  UNL1        0.0639
     49 H           5.5324    0.2253   -1.3901 H       1  UNL1        0.0625
     50 H           7.4624    1.7213   -1.0240 H       1  UNL1        0.0632
@<TRIPOS>BOND
     1     1     2    1
     2     2     3   ar
     3     3     4   ar
     4     4     5   ar
     5     5     6    1
     6     6     7   ar
     7     7     8   ar
     8     8     9   ar
     9     9    10    1
    10    10    11   ar
    11    11    12   ar
    12    12    13   ar
    13    13    14   ar
    14    14    15    1
    15    15    16   ar
    16    16    17   ar
    17    17    18   ar
    18    18    19    1
    19    19    20    1
    20    20    21    1
    21    21    22    1
    22    22    23    1
    23    23    24    1
    24    18    25   ar
    25    25    26   ar
    26     9    27   ar
    27     5    28   ar
    28    28    29   ar
    29    29     2   ar
    30    27     6   ar
    31    14    10   ar
    32    26    15   ar
    33    24    19    1
    34     3    30    1
    35     4    31    1
    36     7    32    1
    37     8    33    1
    38    12    34    1
    39    13    35    1
    40    16    36    1
    41    17    37    1
    42    20    38    1
    43    20    39    1
    44    21    40    1
    45    21    41    1
    46    22    42    1
    47    23    43    1
    48    23    44    1
    49    24    45    1
    50    24    46    1
    51    25    47    1
    52    26    48    1
    53    28    49    1
    54    29    50    1
