
     RDKit          3D

 29 28  0  0  0  0  0  0  0  0999 V2000
    3.9856   -0.1905    0.2220 C   0  0  0  0  0  0  0  0  0  0  0  0
    2.8987    0.4720   -0.4227 N   0  0  0  0  0  0  0  0  0  0  0  0
    1.6736    0.3261    0.3988 C   0  0  0  0  0  0  0  0  0  0  0  0
    1.4301   -1.1437    0.4895 C   0  0  0  0  0  0  0  0  0  0  0  0
    0.6400    1.1267   -0.2968 C   0  0  0  0  0  0  0  0  0  0  0  0
   -0.7151    1.2000    0.2887 C   0  0  0  0  0  0  0  0  0  0  0  0
   -1.3929   -0.1053    0.4044 C   0  0  0  0  0  0  0  0  0  0  0  0
   -2.5388   -0.3188   -0.2785 C   0  0  0  0  0  0  0  0  0  0  0  0
   -3.0708    0.7767   -1.1224 C   0  0  0  0  0  0  0  0  0  0  0  0
   -3.3295   -1.5941   -0.2516 C   0  0  0  0  0  0  0  0  0  0  0  0
    4.2510   -1.0958   -0.3662 H   0  0  0  0  0  0  0  0  0  0  0  0
    3.7552   -0.4457    1.2736 H   0  0  0  0  0  0  0  0  0  0  0  0
    4.8924    0.4778    0.2163 H   0  0  0  0  0  0  0  0  0  0  0  0
    3.0569    1.4662   -0.6505 H   0  0  0  0  0  0  0  0  0  0  0  0
    1.9158    0.7155    1.4111 H   0  0  0  0  0  0  0  0  0  0  0  0
    2.4247   -1.6678    0.3322 H   0  0  0  0  0  0  0  0  0  0  0  0
    1.1038   -1.4586    1.5156 H   0  0  0  0  0  0  0  0  0  0  0  0
    0.7808   -1.5600   -0.2816 H   0  0  0  0  0  0  0  0  0  0  0  0
    0.6024    0.8140   -1.3649 H   0  0  0  0  0  0  0  0  0  0  0  0
    1.0450    2.1862   -0.3383 H   0  0  0  0  0  0  0  0  0  0  0  0
   -1.3743    1.9063   -0.2928 H   0  0  0  0  0  0  0  0  0  0  0  0
   -0.7272    1.6507    1.3184 H   0  0  0  0  0  0  0  0  0  0  0  0
   -1.1304   -0.9785    0.9809 H   0  0  0  0  0  0  0  0  0  0  0  0
   -2.3324    1.1321   -1.8994 H   0  0  0  0  0  0  0  0  0  0  0  0
   -3.3725    1.6759   -0.5522 H   0  0  0  0  0  0  0  0  0  0  0  0
   -3.9339    0.4255   -1.7524 H   0  0  0  0  0  0  0  0  0  0  0  0
   -3.7246   -1.8552   -1.2374 H   0  0  0  0  0  0  0  0  0  0  0  0
   -4.1466   -1.4755    0.4811 H   0  0  0  0  0  0  0  0  0  0  0  0
   -2.6671   -2.4626    0.0333 H   0  0  0  0  0  0  0  0  0  0  0  0
  1  2  1  0
  2  3  1  0
  3  4  1  0
  3  5  1  0
  5  6  1  0
  6  7  1  0
  7  8  2  3
  8  9  1  0
  8 10  1  0
  1 11  1  0
  1 12  1  0
  1 13  1  0
  2 14  1  0
  3 15  1  0
  4 16  1  0
  4 17  1  0
  4 18  1  0
  5 19  1  0
  5 20  1  0
  6 21  1  0
  6 22  1  0
  7 23  1  0
  9 24  1  0
  9 25  1  0
  9 26  1  0
 10 27  1  0
 10 28  1  0
 10 29  1  0
M  END
$$$$
