@<TRIPOS>MOLECULE
*****
 29 28 0 0 0
SMALL
GASTEIGER

@<TRIPOS>ATOM
      1 C           3.9856   -0.1905    0.2220 C.3     1  UNL1       -0.0156
      2 N           2.8987    0.4720   -0.4227 N.3     1  UNL1       -0.3165
      3 C           1.6736    0.3261    0.3988 C.3     1  UNL1        0.0048
      4 C           1.4301   -1.1437    0.4895 C.3     1  UNL1       -0.0497
      5 C           0.6400    1.1267   -0.2968 C.3     1  UNL1       -0.0344
      6 C          -0.7151    1.2000    0.2887 C.3     1  UNL1       -0.0331
      7 C          -1.3929   -0.1053    0.4044 C.2     1  UNL1       -0.0852
      8 C          -2.5388   -0.3188   -0.2785 C.2     1  UNL1       -0.0796
      9 C          -3.0708    0.7767   -1.1224 C.3     1  UNL1       -0.0440
     10 C          -3.3295   -1.5941   -0.2516 C.3     1  UNL1       -0.0440
     11 H           4.2510   -1.0958   -0.3662 H       1  UNL1        0.0388
     12 H           3.7552   -0.4457    1.2736 H       1  UNL1        0.0388
     13 H           4.8924    0.4778    0.2163 H       1  UNL1        0.0388
     14 H           3.0569    1.4662   -0.6505 H       1  UNL1        0.1219
     15 H           1.9158    0.7155    1.4111 H       1  UNL1        0.0458
     16 H           2.4247   -1.6678    0.3322 H       1  UNL1        0.0245
     17 H           1.1038   -1.4586    1.5156 H       1  UNL1        0.0245
     18 H           0.7808   -1.5600   -0.2816 H       1  UNL1        0.0245
     19 H           0.6024    0.8140   -1.3649 H       1  UNL1        0.0283
     20 H           1.0450    2.1862   -0.3383 H       1  UNL1        0.0283
     21 H          -1.3743    1.9063   -0.2928 H       1  UNL1        0.0308
     22 H          -0.7272    1.6507    1.3184 H       1  UNL1        0.0308
     23 H          -1.1304   -0.9785    0.9809 H       1  UNL1        0.0571
     24 H          -2.3324    1.1321   -1.8994 H       1  UNL1        0.0274
     25 H          -3.3725    1.6759   -0.5522 H       1  UNL1        0.0274
     26 H          -3.9339    0.4255   -1.7524 H       1  UNL1        0.0274
     27 H          -3.7246   -1.8552   -1.2374 H       1  UNL1        0.0274
     28 H          -4.1466   -1.4755    0.4811 H       1  UNL1        0.0274
     29 H          -2.6671   -2.4626    0.0333 H       1  UNL1        0.0274
@<TRIPOS>BOND
     1     1     2    1
     2     2     3    1
     3     3     4    1
     4     3     5    1
     5     5     6    1
     6     6     7    1
     7     7     8    2
     8     8     9    1
     9     8    10    1
    10     1    11    1
    11     1    12    1
    12     1    13    1
    13     2    14    1
    14     3    15    1
    15     4    16    1
    16     4    17    1
    17     4    18    1
    18     5    19    1
    19     5    20    1
    20     6    21    1
    21     6    22    1
    22     7    23    1
    23     9    24    1
    24     9    25    1
    25     9    26    1
    26    10    27    1
    27    10    28    1
    28    10    29    1
