
     RDKit          3D

 44 47  0  0  0  0  0  0  0  0999 V2000
    5.6904   -0.9868    0.7922 C   0  0  0  0  0  0  0  0  0  0  0  0
    4.5271   -1.0705   -0.0731 N   0  0  0  0  0  0  0  0  0  0  0  0
    3.4097   -0.4162    0.5570 C   0  0  0  0  0  0  0  0  0  0  0  0
    2.1420   -0.4710   -0.3136 C   0  0  0  0  0  0  0  0  0  0  0  0
    1.0734    0.2282    0.4349 C   0  0  0  0  0  0  0  0  0  0  0  0
   -0.2139    0.2519   -0.2705 C   0  0  0  0  0  0  0  0  0  0  0  0
   -0.0921    0.9276   -1.6448 C   0  0  0  0  0  0  0  0  0  0  0  0
   -1.3876    1.0731   -2.3483 C   0  0  0  0  0  0  0  0  0  0  0  0
   -2.5438    0.6188   -1.4929 C   0  0  0  0  0  0  0  0  0  0  0  0
   -2.2013   -0.7851   -1.0574 C   0  0  0  0  0  0  0  0  0  0  0  0
   -3.1049   -1.7769   -1.3070 C   0  0  0  0  0  0  0  0  0  0  0  0
   -2.8454   -3.0665   -0.8990 C   0  0  0  0  0  0  0  0  0  0  0  0
   -1.6618   -3.3166   -0.2405 C   0  0  0  0  0  0  0  0  0  0  0  0
   -0.7797   -2.2895   -0.0097 C   0  0  0  0  0  0  0  0  0  0  0  0
   -0.9804   -0.9837   -0.3927 C   0  0  0  0  0  0  0  0  0  0  0  0
   -2.4237    1.4156   -0.2236 C   0  0  0  0  0  0  0  0  0  0  0  0
   -3.3973    2.2344    0.2502 C   0  0  0  0  0  0  0  0  0  0  0  0
   -3.1425    2.8961    1.4405 C   0  0  0  0  0  0  0  0  0  0  0  0
   -1.9353    2.6998    2.0817 C   0  0  0  0  0  0  0  0  0  0  0  0
   -0.9458    1.8647    1.5955 C   0  0  0  0  0  0  0  0  0  0  0  0
   -1.1920    1.2073    0.4179 C   0  0  0  0  0  0  0  0  0  0  0  0
    6.0239   -1.9836    1.1494 H   0  0  0  0  0  0  0  0  0  0  0  0
    6.5587   -0.4931    0.3149 H   0  0  0  0  0  0  0  0  0  0  0  0
    5.4790   -0.3926    1.7258 H   0  0  0  0  0  0  0  0  0  0  0  0
    4.7467   -0.5914   -0.9867 H   0  0  0  0  0  0  0  0  0  0  0  0
    3.6199    0.6254    0.8638 H   0  0  0  0  0  0  0  0  0  0  0  0
    3.1595   -1.0052    1.4682 H   0  0  0  0  0  0  0  0  0  0  0  0
    2.3520   -0.0342   -1.3133 H   0  0  0  0  0  0  0  0  0  0  0  0
    1.9763   -1.5373   -0.4890 H   0  0  0  0  0  0  0  0  0  0  0  0
    0.8974   -0.1960    1.4520 H   0  0  0  0  0  0  0  0  0  0  0  0
    1.3476    1.2989    0.6391 H   0  0  0  0  0  0  0  0  0  0  0  0
    0.3044    1.9518   -1.4462 H   0  0  0  0  0  0  0  0  0  0  0  0
    0.6506    0.4252   -2.2952 H   0  0  0  0  0  0  0  0  0  0  0  0
   -1.4003    0.3736   -3.2351 H   0  0  0  0  0  0  0  0  0  0  0  0
   -1.5607    2.1276   -2.7106 H   0  0  0  0  0  0  0  0  0  0  0  0
   -3.5125    0.6751   -1.9650 H   0  0  0  0  0  0  0  0  0  0  0  0
   -4.0422   -1.6166   -1.8200 H   0  0  0  0  0  0  0  0  0  0  0  0
   -3.4657   -3.9402   -1.0294 H   0  0  0  0  0  0  0  0  0  0  0  0
   -1.3633   -4.2882    0.1200 H   0  0  0  0  0  0  0  0  0  0  0  0
    0.1310   -2.4523    0.5088 H   0  0  0  0  0  0  0  0  0  0  0  0
   -4.3106    2.3369   -0.3038 H   0  0  0  0  0  0  0  0  0  0  0  0
   -3.8886    3.5584    1.8558 H   0  0  0  0  0  0  0  0  0  0  0  0
   -1.6914    3.1998    3.0211 H   0  0  0  0  0  0  0  0  0  0  0  0
   -0.0071    1.7036    2.0844 H   0  0  0  0  0  0  0  0  0  0  0  0
  1  2  1  0
  2  3  1  0
  3  4  1  0
  4  5  1  0
  5  6  1  0
  6  7  1  0
  7  8  1  0
  8  9  1  0
  9 10  1  0
 10 11  2  0
 11 12  1  0
 12 13  2  0
 13 14  1  0
 14 15  2  0
  9 16  1  0
 16 17  2  0
 17 18  1  0
 18 19  2  0
 19 20  1  0
 20 21  2  0
 15  6  1  0
 21 16  1  0
 21  6  1  0
 15 10  1  0
  1 22  1  0
  1 23  1  0
  1 24  1  0
  2 25  1  0
  3 26  1  0
  3 27  1  0
  4 28  1  0
  4 29  1  0
  5 30  1  0
  5 31  1  0
  7 32  1  0
  7 33  1  0
  8 34  1  0
  8 35  1  0
  9 36  1  0
 11 37  1  0
 12 38  1  0
 13 39  1  0
 14 40  1  0
 17 41  1  0
 18 42  1  0
 19 43  1  0
 20 44  1  0
M  END
$$$$
