@<TRIPOS>MOLECULE
*****
 44 47 0 0 0
SMALL
GASTEIGER

@<TRIPOS>ATOM
      1 C           5.6904   -0.9868    0.7922 C.3     1  UNL1       -0.0158
      2 N           4.5271   -1.0705   -0.0731 N.3     1  UNL1       -0.3190
      3 C           3.4097   -0.4162    0.5570 C.3     1  UNL1       -0.0044
      4 C           2.1420   -0.4710   -0.3136 C.3     1  UNL1       -0.0393
      5 C           1.0734    0.2282    0.4349 C.3     1  UNL1       -0.0382
      6 C          -0.2139    0.2519   -0.2705 C.3     1  UNL1        0.0213
      7 C          -0.0921    0.9276   -1.6448 C.3     1  UNL1       -0.0385
      8 C          -1.3876    1.0731   -2.3483 C.3     1  UNL1       -0.0411
      9 C          -2.5438    0.6188   -1.4929 C.3     1  UNL1        0.0098
     10 C          -2.2013   -0.7851   -1.0574 C.ar    1  UNL1       -0.0359
     11 C          -3.1049   -1.7769   -1.3070 C.ar    1  UNL1       -0.0577
     12 C          -2.8454   -3.0665   -0.8990 C.ar    1  UNL1       -0.0615
     13 C          -1.6618   -3.3166   -0.2405 C.ar    1  UNL1       -0.0615
     14 C          -0.7797   -2.2895   -0.0097 C.ar    1  UNL1       -0.0574
     15 C          -0.9804   -0.9837   -0.3927 C.ar    1  UNL1       -0.0331
     16 C          -2.4237    1.4156   -0.2236 C.ar    1  UNL1       -0.0359
     17 C          -3.3973    2.2344    0.2502 C.ar    1  UNL1       -0.0577
     18 C          -3.1425    2.8961    1.4405 C.ar    1  UNL1       -0.0615
     19 C          -1.9353    2.6998    2.0817 C.ar    1  UNL1       -0.0615
     20 C          -0.9458    1.8647    1.5955 C.ar    1  UNL1       -0.0574
     21 C          -1.1920    1.2073    0.4179 C.ar    1  UNL1       -0.0331
     22 H           6.0239   -1.9836    1.1494 H       1  UNL1        0.0388
     23 H           6.5587   -0.4931    0.3149 H       1  UNL1        0.0388
     24 H           5.4790   -0.3926    1.7258 H       1  UNL1        0.0388
     25 H           4.7467   -0.5914   -0.9867 H       1  UNL1        0.1216
     26 H           3.6199    0.6254    0.8638 H       1  UNL1        0.0424
     27 H           3.1595   -1.0052    1.4682 H       1  UNL1        0.0424
     28 H           2.3520   -0.0342   -1.3133 H       1  UNL1        0.0278
     29 H           1.9763   -1.5373   -0.4890 H       1  UNL1        0.0278
     30 H           0.8974   -0.1960    1.4520 H       1  UNL1        0.0277
     31 H           1.3476    1.2989    0.6391 H       1  UNL1        0.0277
     32 H           0.3044    1.9518   -1.4462 H       1  UNL1        0.0277
     33 H           0.6506    0.4252   -2.2952 H       1  UNL1        0.0277
     34 H          -1.4003    0.3736   -3.2351 H       1  UNL1        0.0275
     35 H          -1.5607    2.1276   -2.7106 H       1  UNL1        0.0275
     36 H          -3.5125    0.6751   -1.9650 H       1  UNL1        0.0397
     37 H          -4.0422   -1.6166   -1.8200 H       1  UNL1        0.0621
     38 H          -3.4657   -3.9402   -1.0294 H       1  UNL1        0.0618
     39 H          -1.3633   -4.2882    0.1200 H       1  UNL1        0.0618
     40 H           0.1310   -2.4523    0.5088 H       1  UNL1        0.0621
     41 H          -4.3106    2.3369   -0.3038 H       1  UNL1        0.0621
     42 H          -3.8886    3.5584    1.8558 H       1  UNL1        0.0618
     43 H          -1.6914    3.1998    3.0211 H       1  UNL1        0.0618
     44 H          -0.0071    1.7036    2.0844 H       1  UNL1        0.0621
@<TRIPOS>BOND
     1     1     2    1
     2     2     3    1
     3     3     4    1
     4     4     5    1
     5     5     6    1
     6     6     7    1
     7     7     8    1
     8     8     9    1
     9     9    10    1
    10    10    11   ar
    11    11    12   ar
    12    12    13   ar
    13    13    14   ar
    14    14    15   ar
    15     9    16    1
    16    16    17   ar
    17    17    18   ar
    18    18    19   ar
    19    19    20   ar
    20    20    21   ar
    21    15     6    1
    22    21    16   ar
    23    21     6    1
    24    15    10   ar
    25     1    22    1
    26     1    23    1
    27     1    24    1
    28     2    25    1
    29     3    26    1
    30     3    27    1
    31     4    28    1
    32     4    29    1
    33     5    30    1
    34     5    31    1
    35     7    32    1
    36     7    33    1
    37     8    34    1
    38     8    35    1
    39     9    36    1
    40    11    37    1
    41    12    38    1
    42    13    39    1
    43    14    40    1
    44    17    41    1
    45    18    42    1
    46    19    43    1
    47    20    44    1
