@<TRIPOS>MOLECULE
*****
 35 38 0 0 0
SMALL
GASTEIGER

@<TRIPOS>ATOM
      1 O           0.1056   -2.4021   -0.1534 O.3     1  UNL1       -0.3702
      2 C           0.8071   -1.3264   -0.7518 C.3     1  UNL1        0.2347
      3 C           0.4116   -1.2041   -2.1992 C.3     1  UNL1        0.0315
      4 C          -1.1114   -1.0362   -2.0091 C.3     1  UNL1        0.0893
      5 N          -1.1880   -0.2575   -0.7591 N.pl3   1  UNL1       -0.1875
      6 C           0.1292   -0.0791   -0.2395 C.2     1  UNL1        0.3340
      7 N           0.6819    0.8573    0.4396 N.2     1  UNL1       -0.0419
      8 C           2.0602    0.8418    0.8012 C.ar    1  UNL1        0.1867
      9 C           2.7813   -0.2619    0.3561 C.ar    1  UNL1        0.0716
     10 C           4.1397   -0.3552    0.6702 C.ar    1  UNL1       -0.0470
     11 C           4.7961    0.6061    1.4057 C.ar    1  UNL1       -0.0608
     12 C           4.0216    1.6730    1.8147 C.ar    1  UNL1       -0.0576
     13 C           2.6816    1.8094    1.5308 C.ar    1  UNL1       -0.0102
     14 C           2.2169   -1.3675   -0.4415 C.2     1  UNL1        0.2108
     15 O           2.9144   -2.3268   -0.8515 O.2     1  UNL1       -0.2882
     16 C          -2.4171    0.2402   -0.1875 C.ar    1  UNL1        0.1208
     17 C          -3.5820   -0.0489   -0.8684 C.ar    1  UNL1       -0.0169
     18 C          -4.7882    0.4163   -0.3459 C.ar    1  UNL1       -0.0579
     19 C          -4.7545    1.1522    0.8420 C.ar    1  UNL1       -0.0615
     20 C          -3.5797    1.4315    1.5090 C.ar    1  UNL1       -0.0579
     21 C          -2.3965    0.9627    0.9764 C.ar    1  UNL1       -0.0169
     22 H           0.6208   -3.2371   -0.2007 H       1  UNL1        0.2115
     23 H           0.6579   -2.0850   -2.8059 H       1  UNL1        0.0340
     24 H           0.8047   -0.2454   -2.5750 H       1  UNL1        0.0340
     25 H          -1.5588   -2.0259   -1.9242 H       1  UNL1        0.0731
     26 H          -1.5493   -0.4219   -2.8047 H       1  UNL1        0.0731
     27 H           4.7403   -1.2046    0.3402 H       1  UNL1        0.0626
     28 H           5.8457    0.5068    1.6326 H       1  UNL1        0.0618
     29 H           4.5137    2.4455    2.3962 H       1  UNL1        0.0619
     30 H           2.1127    2.6438    1.8607 H       1  UNL1        0.0661
     31 H          -3.6421   -0.6144   -1.7876 H       1  UNL1        0.0658
     32 H          -5.7151    0.2140   -0.8432 H       1  UNL1        0.0619
     33 H          -5.6832    1.5223    1.2633 H       1  UNL1        0.0618
     34 H          -3.6044    2.0047    2.4246 H       1  UNL1        0.0619
     35 H          -1.4729    1.1726    1.4851 H       1  UNL1        0.0658
@<TRIPOS>BOND
     1     2     1    1
     2     2     3    1
     3     3     4    1
     4     4     5    1
     5     5     6    1
     6     6     7    2
     7     7     8    1
     8     8     9   ar
     9     9    10   ar
    10    10    11   ar
    11    11    12   ar
    12    12    13   ar
    13     9    14    1
    14    14    15    2
    15     5    16    1
    16    16    17   ar
    17    17    18   ar
    18    18    19   ar
    19    19    20   ar
    20    20    21   ar
    21     6     2    1
    22    13     8   ar
    23    21    16   ar
    24    14     2    1
    25     1    22    1
    26     3    23    1
    27     3    24    1
    28     4    25    1
    29     4    26    1
    30    10    27    1
    31    11    28    1
    32    12    29    1
    33    13    30    1
    34    17    31    1
    35    18    32    1
    36    19    33    1
    37    20    34    1
    38    21    35    1
