
     RDKit          3D

 35 38  0  0  0  0  0  0  0  0999 V2000
    0.1056   -2.4021   -0.1534 O   0  0  0  0  0  0  0  0  0  0  0  0
    0.8071   -1.3264   -0.7518 C   0  0  1  0  0  0  0  0  0  0  0  0
    0.4116   -1.2041   -2.1992 C   0  0  0  0  0  0  0  0  0  0  0  0
   -1.1114   -1.0362   -2.0091 C   0  0  0  0  0  0  0  0  0  0  0  0
   -1.1880   -0.2575   -0.7591 N   0  0  0  0  0  0  0  0  0  0  0  0
    0.1292   -0.0791   -0.2395 C   0  0  0  0  0  0  0  0  0  0  0  0
    0.6819    0.8573    0.4396 N   0  0  0  0  0  0  0  0  0  0  0  0
    2.0602    0.8418    0.8012 C   0  0  0  0  0  0  0  0  0  0  0  0
    2.7813   -0.2619    0.3561 C   0  0  0  0  0  0  0  0  0  0  0  0
    4.1397   -0.3552    0.6702 C   0  0  0  0  0  0  0  0  0  0  0  0
    4.7961    0.6061    1.4057 C   0  0  0  0  0  0  0  0  0  0  0  0
    4.0216    1.6730    1.8147 C   0  0  0  0  0  0  0  0  0  0  0  0
    2.6816    1.8094    1.5308 C   0  0  0  0  0  0  0  0  0  0  0  0
    2.2169   -1.3675   -0.4415 C   0  0  0  0  0  0  0  0  0  0  0  0
    2.9144   -2.3268   -0.8515 O   0  0  0  0  0  0  0  0  0  0  0  0
   -2.4171    0.2402   -0.1875 C   0  0  0  0  0  0  0  0  0  0  0  0
   -3.5820   -0.0489   -0.8684 C   0  0  0  0  0  0  0  0  0  0  0  0
   -4.7882    0.4163   -0.3459 C   0  0  0  0  0  0  0  0  0  0  0  0
   -4.7545    1.1522    0.8420 C   0  0  0  0  0  0  0  0  0  0  0  0
   -3.5797    1.4315    1.5090 C   0  0  0  0  0  0  0  0  0  0  0  0
   -2.3965    0.9627    0.9764 C   0  0  0  0  0  0  0  0  0  0  0  0
    0.6208   -3.2371   -0.2007 H   0  0  0  0  0  0  0  0  0  0  0  0
    0.6579   -2.0850   -2.8059 H   0  0  0  0  0  0  0  0  0  0  0  0
    0.8047   -0.2454   -2.5750 H   0  0  0  0  0  0  0  0  0  0  0  0
   -1.5588   -2.0259   -1.9242 H   0  0  0  0  0  0  0  0  0  0  0  0
   -1.5493   -0.4219   -2.8047 H   0  0  0  0  0  0  0  0  0  0  0  0
    4.7403   -1.2046    0.3402 H   0  0  0  0  0  0  0  0  0  0  0  0
    5.8457    0.5068    1.6326 H   0  0  0  0  0  0  0  0  0  0  0  0
    4.5137    2.4455    2.3962 H   0  0  0  0  0  0  0  0  0  0  0  0
    2.1127    2.6438    1.8607 H   0  0  0  0  0  0  0  0  0  0  0  0
   -3.6421   -0.6144   -1.7876 H   0  0  0  0  0  0  0  0  0  0  0  0
   -5.7151    0.2140   -0.8432 H   0  0  0  0  0  0  0  0  0  0  0  0
   -5.6832    1.5223    1.2633 H   0  0  0  0  0  0  0  0  0  0  0  0
   -3.6044    2.0047    2.4246 H   0  0  0  0  0  0  0  0  0  0  0  0
   -1.4729    1.1726    1.4851 H   0  0  0  0  0  0  0  0  0  0  0  0
  2  1  1  1
  2  3  1  0
  3  4  1  0
  4  5  1  0
  5  6  1  0
  6  7  2  0
  7  8  1  0
  8  9  2  0
  9 10  1  0
 10 11  2  0
 11 12  1  0
 12 13  2  0
  9 14  1  0
 14 15  2  0
  5 16  1  0
 16 17  2  0
 17 18  1  0
 18 19  2  0
 19 20  1  0
 20 21  2  0
  6  2  1  0
 13  8  1  0
 21 16  1  0
 14  2  1  0
  1 22  1  0
  3 23  1  0
  3 24  1  0
  4 25  1  0
  4 26  1  0
 10 27  1  0
 11 28  1  0
 12 29  1  0
 13 30  1  0
 17 31  1  0
 18 32  1  0
 19 33  1  0
 20 34  1  0
 21 35  1  0
M  END
$$$$
