@<TRIPOS>MOLECULE
*****
 10 9 0 0 0
SMALL
GASTEIGER

@<TRIPOS>ATOM
      1 N           1.8077    0.0297    0.4116 N.2     1  UNL1       -0.3104
      2 C           0.7893    0.3197   -0.2869 C.2     1  UNL1        0.0098
      3 C          -0.3931   -0.5503   -0.0350 C.3     1  UNL1        0.0283
      4 N          -1.1054    0.1144    1.0690 N.3     1  UNL1       -0.3254
      5 H           2.6691    0.6079    0.2770 H       1  UNL1        0.1857
      6 H           0.7448    1.1163   -1.0080 H       1  UNL1        0.0788
      7 H          -1.0619   -0.5713   -0.9222 H       1  UNL1        0.0480
      8 H          -0.0970   -1.5804    0.2316 H       1  UNL1        0.0480
      9 H          -1.4714    1.0125    0.6376 H       1  UNL1        0.1185
     10 H          -1.8822   -0.4985    1.3978 H       1  UNL1        0.1185
@<TRIPOS>BOND
     1     1     2    2
     2     2     3    1
     3     3     4    1
     4     1     5    1
     5     2     6    1
     6     3     7    1
     7     3     8    1
     8     4     9    1
     9     4    10    1
