
     RDKit          3D

 10  9  0  0  0  0  0  0  0  0999 V2000
    1.8077    0.0297    0.4116 N   0  0  0  0  0  0  0  0  0  0  0  0
    0.7893    0.3197   -0.2869 C   0  0  0  0  0  0  0  0  0  0  0  0
   -0.3931   -0.5503   -0.0350 C   0  0  0  0  0  0  0  0  0  0  0  0
   -1.1054    0.1144    1.0690 N   0  0  0  0  0  0  0  0  0  0  0  0
    2.6691    0.6079    0.2770 H   0  0  0  0  0  0  0  0  0  0  0  0
    0.7448    1.1163   -1.0080 H   0  0  0  0  0  0  0  0  0  0  0  0
   -1.0619   -0.5713   -0.9222 H   0  0  0  0  0  0  0  0  0  0  0  0
   -0.0970   -1.5804    0.2316 H   0  0  0  0  0  0  0  0  0  0  0  0
   -1.4714    1.0125    0.6376 H   0  0  0  0  0  0  0  0  0  0  0  0
   -1.8822   -0.4985    1.3978 H   0  0  0  0  0  0  0  0  0  0  0  0
  1  2  2  3
  2  3  1  0
  3  4  1  0
  1  5  1  0
  2  6  1  0
  3  7  1  0
  3  8  1  0
  4  9  1  0
  4 10  1  0
M  END
$$$$
