
     RDKit          3D

 40 41  0  0  0  0  0  0  0  0999 V2000
   -6.1988    0.0734    0.4985 C   0  0  0  0  0  0  0  0  0  0  0  0
   -4.8099   -0.1939    0.2620 N   0  0  0  0  0  0  0  0  0  0  0  0
   -3.9083    0.2490    1.2481 C   0  0  0  0  0  0  0  0  0  0  0  0
   -2.5808    0.7644    0.8181 C   0  0  0  0  0  0  0  0  0  0  0  0
   -2.2348    0.5287   -0.5428 N   0  0  0  0  0  0  0  0  0  0  0  0
   -3.2932    0.6445   -1.4852 C   0  0  0  0  0  0  0  0  0  0  0  0
   -4.4230   -0.2637   -1.0836 C   0  0  0  0  0  0  0  0  0  0  0  0
   -1.3889   -0.5467   -0.7452 N   0  0  0  0  0  0  0  0  0  0  0  0
    0.0305   -0.5919   -0.6757 C   0  0  0  0  0  0  0  0  0  0  0  0
    0.7508   -2.0092   -0.9650 S   0  0  0  0  0  0  0  0  0  0  0  0
    0.7467    0.5945   -0.3588 N   0  0  0  0  0  0  0  0  0  0  0  0
    2.1835    0.4854   -0.3040 C   0  0  0  0  0  0  0  0  0  0  0  0
    3.0638    0.6873   -1.3336 C   0  0  0  0  0  0  0  0  0  0  0  0
    4.4057    0.5366   -1.0998 C   0  0  0  0  0  0  0  0  0  0  0  0
    4.8344    0.1862    0.1645 C   0  0  0  0  0  0  0  0  0  0  0  0
    3.9597   -0.0201    1.2103 C   0  0  0  0  0  0  0  0  0  0  0  0
    2.5942    0.1333    0.9719 C   0  0  0  0  0  0  0  0  0  0  0  0
    6.5714    0.0080    0.4028 S   0  0  0  0  0  0  0  0  0  0  0  0
    7.3018    1.4891    0.9028 N   0  0  0  0  0  0  0  0  0  0  0  0
    6.8171   -1.0366    1.4600 O   0  0  0  0  0  0  0  0  0  0  0  0
    7.2171   -0.4047   -0.8922 O   0  0  0  0  0  0  0  0  0  0  0  0
   -6.4425    1.1180    0.6849 H   0  0  0  0  0  0  0  0  0  0  0  0
   -6.7935   -0.4245   -0.2867 H   0  0  0  0  0  0  0  0  0  0  0  0
   -6.4594   -0.4943    1.4380 H   0  0  0  0  0  0  0  0  0  0  0  0
   -4.4304    1.0260    1.8482 H   0  0  0  0  0  0  0  0  0  0  0  0
   -3.7645   -0.5922    1.9806 H   0  0  0  0  0  0  0  0  0  0  0  0
   -1.7714    0.3063    1.4261 H   0  0  0  0  0  0  0  0  0  0  0  0
   -2.4958    1.8590    0.9924 H   0  0  0  0  0  0  0  0  0  0  0  0
   -2.9131    0.2729   -2.4651 H   0  0  0  0  0  0  0  0  0  0  0  0
   -3.6110    1.6898   -1.5701 H   0  0  0  0  0  0  0  0  0  0  0  0
   -5.2992    0.0090   -1.7317 H   0  0  0  0  0  0  0  0  0  0  0  0
   -4.1869   -1.3225   -1.3351 H   0  0  0  0  0  0  0  0  0  0  0  0
   -1.9815   -1.3637   -0.9688 H   0  0  0  0  0  0  0  0  0  0  0  0
    0.2491    1.4848   -0.1796 H   0  0  0  0  0  0  0  0  0  0  0  0
    2.6056    0.9624   -2.2922 H   0  0  0  0  0  0  0  0  0  0  0  0
    5.0889    0.7044   -1.9410 H   0  0  0  0  0  0  0  0  0  0  0  0
    4.3504   -0.2945    2.1858 H   0  0  0  0  0  0  0  0  0  0  0  0
    1.9777   -0.0415    1.8242 H   0  0  0  0  0  0  0  0  0  0  0  0
    6.9020    1.8482    1.7993 H   0  0  0  0  0  0  0  0  0  0  0  0
    7.3365    2.1896    0.1377 H   0  0  0  0  0  0  0  0  0  0  0  0
  1  2  1  0
  2  3  1  0
  3  4  1  0
  4  5  1  0
  5  6  1  0
  6  7  1  0
  5  8  1  0
  8  9  1  0
  9 10  2  0
  9 11  1  0
 11 12  1  0
 12 13  2  0
 13 14  1  0
 14 15  2  0
 15 16  1  0
 16 17  2  0
 15 18  1  0
 18 19  1  0
 18 20  2  0
 18 21  2  0
  7  2  1  0
 17 12  1  0
  1 22  1  0
  1 23  1  0
  1 24  1  0
  3 25  1  0
  3 26  1  0
  4 27  1  0
  4 28  1  0
  6 29  1  0
  6 30  1  0
  7 31  1  0
  7 32  1  0
  8 33  1  0
 11 34  1  0
 13 35  1  0
 14 36  1  0
 16 37  1  0
 17 38  1  0
 19 39  1  0
 19 40  1  0
M  END
$$$$
