@<TRIPOS>MOLECULE
*****
 40 41 0 0 0
SMALL
GASTEIGER

@<TRIPOS>ATOM
      1 C          -6.1988    0.0734    0.4985 C.3     1  UNL1       -0.0127
      2 N          -4.8099   -0.1939    0.2620 N.3     1  UNL1       -0.3028
      3 C          -3.9083    0.2490    1.2481 C.3     1  UNL1        0.0130
      4 C          -2.5808    0.7644    0.8181 C.3     1  UNL1        0.0295
      5 N          -2.2348    0.5287   -0.5428 N.3     1  UNL1       -0.2254
      6 C          -3.2932    0.6445   -1.4852 C.3     1  UNL1        0.0295
      7 C          -4.4230   -0.2637   -1.0836 C.3     1  UNL1        0.0130
      8 N          -1.3889   -0.5467   -0.7452 N.am    1  UNL1       -0.2594
      9 C           0.0305   -0.5919   -0.6757 C.2     1  UNL1        0.1486
     10 S           0.7508   -2.0092   -0.9650 S.2     1  UNL1       -0.0173
     11 N           0.7467    0.5945   -0.3588 N.am    1  UNL1       -0.2959
     12 C           2.1835    0.4854   -0.3040 C.ar    1  UNL1        0.0327
     13 C           3.0638    0.6873   -1.3336 C.ar    1  UNL1       -0.0387
     14 C           4.4057    0.5366   -1.0998 C.ar    1  UNL1       -0.0336
     15 C           4.8344    0.1862    0.1645 C.ar    1  UNL1        0.1051
     16 C           3.9597   -0.0201    1.2103 C.ar    1  UNL1       -0.0336
     17 C           2.5942    0.1333    0.9719 C.ar    1  UNL1       -0.0387
     18 S           6.5714    0.0080    0.4028 S.O2    1  UNL1        0.0559
     19 N           7.3018    1.4891    0.9028 N.3     1  UNL1       -0.2035
     20 O           6.8171   -1.0366    1.4600 O.2     1  UNL1       -0.1533
     21 O           7.2171   -0.4047   -0.8922 O.2     1  UNL1       -0.1533
     22 H          -6.4425    1.1180    0.6849 H       1  UNL1        0.0391
     23 H          -6.7935   -0.4245   -0.2867 H       1  UNL1        0.0391
     24 H          -6.4594   -0.4943    1.4380 H       1  UNL1        0.0391
     25 H          -4.4304    1.0260    1.8482 H       1  UNL1        0.0439
     26 H          -3.7645   -0.5922    1.9806 H       1  UNL1        0.0439
     27 H          -1.7714    0.3063    1.4261 H       1  UNL1        0.0456
     28 H          -2.4958    1.8590    0.9924 H       1  UNL1        0.0456
     29 H          -2.9131    0.2729   -2.4651 H       1  UNL1        0.0456
     30 H          -3.6110    1.6898   -1.5701 H       1  UNL1        0.0456
     31 H          -5.2992    0.0090   -1.7317 H       1  UNL1        0.0439
     32 H          -4.1869   -1.3225   -1.3351 H       1  UNL1        0.0439
     33 H          -1.9815   -1.3637   -0.9688 H       1  UNL1        0.1682
     34 H           0.2491    1.4848   -0.1796 H       1  UNL1        0.1539
     35 H           2.6056    0.9624   -2.2922 H       1  UNL1        0.0637
     36 H           5.0889    0.7044   -1.9410 H       1  UNL1        0.0638
     37 H           4.3504   -0.2945    2.1858 H       1  UNL1        0.0638
     38 H           1.9777   -0.0415    1.8242 H       1  UNL1        0.0637
     39 H           6.9020    1.8482    1.7993 H       1  UNL1        0.1442
     40 H           7.3365    2.1896    0.1377 H       1  UNL1        0.1442
@<TRIPOS>BOND
     1     1     2    1
     2     2     3    1
     3     3     4    1
     4     4     5    1
     5     5     6    1
     6     6     7    1
     7     5     8    1
     8     8     9    1
     9     9    10    2
    10     9    11    1
    11    11    12    1
    12    12    13   ar
    13    13    14   ar
    14    14    15   ar
    15    15    16   ar
    16    16    17   ar
    17    15    18    1
    18    18    19    1
    19    18    20    2
    20    18    21    2
    21     7     2    1
    22    17    12   ar
    23     1    22    1
    24     1    23    1
    25     1    24    1
    26     3    25    1
    27     3    26    1
    28     4    27    1
    29     4    28    1
    30     6    29    1
    31     6    30    1
    32     7    31    1
    33     7    32    1
    34     8    33    1
    35    11    34    1
    36    13    35    1
    37    14    36    1
    38    16    37    1
    39    17    38    1
    40    19    39    1
    41    19    40    1
