@<TRIPOS>MOLECULE
*****
 99 103 0 0 0
SMALL
GASTEIGER

@<TRIPOS>ATOM
      1 C          -3.5867    1.9336    2.3910 C.3     1  UNL1       -0.0352
      2 C          -2.7183    3.1424    2.6417 C.3     1  UNL1       -0.0499
      3 C          -2.5508    3.3793    4.1230 C.3     1  UNL1       -0.0528
      4 C          -1.9187    2.1818    4.7674 C.3     1  UNL1       -0.0527
      5 C          -1.6870    1.0477    3.7676 C.3     1  UNL1       -0.0488
      6 C          -3.0546    0.7647    3.1297 C.3     1  UNL1       -0.0253
      7 C          -3.1051   -0.5625    2.4966 C.3     1  UNL1        0.0028
      8 N          -3.1386   -0.5916    1.0362 N.3     1  UNL1       -0.2887
      9 C          -1.8362   -0.5209    0.5109 C.3     1  UNL1        0.0274
     10 C          -1.6506   -0.6197   -0.9730 C.3     1  UNL1        0.0865
     11 O          -2.2728    0.4003   -1.6774 O.3     1  UNL1       -0.3887
     12 C          -0.1936   -0.6176   -1.3559 C.3     1  UNL1        0.0542
     13 C           0.0140   -0.8518   -2.8464 C.3     1  UNL1       -0.0067
     14 C          -0.6135    0.1436   -3.7213 C.ar    1  UNL1       -0.0455
     15 C           0.1517    1.2896   -3.9855 C.ar    1  UNL1       -0.0585
     16 C          -0.2839    2.3076   -4.8000 C.ar    1  UNL1       -0.0615
     17 C          -1.5150    2.2111   -5.3840 C.ar    1  UNL1       -0.0617
     18 C          -2.3046    1.1136   -5.1615 C.ar    1  UNL1       -0.0615
     19 C          -1.8489    0.0884   -4.3323 C.ar    1  UNL1       -0.0585
     20 N           0.5785   -1.6194   -0.6128 N.am    1  UNL1       -0.3081
     21 C           1.8766   -1.2748   -0.1738 C.2     1  UNL1        0.2341
     22 O           2.5755   -0.2045   -0.2992 O.2     1  UNL1       -0.2738
     23 C           2.8752   -2.0617    0.5939 C.3     1  UNL1        0.1079
     24 C           2.2497   -2.2890    1.9791 C.3     1  UNL1        0.0506
     25 C           3.1794   -3.0945    2.8417 C.2     1  UNL1        0.2127
     26 N           4.3233   -3.8439    3.1858 N.am    1  UNL1       -0.3293
     27 O           2.5713   -3.1397    3.9668 O.2     1  UNL1       -0.2760
     28 N           4.1238   -1.3825    0.7128 N.am    1  UNL1       -0.2983
     29 C           5.4437   -1.8107    0.4924 C.2     1  UNL1        0.2630
     30 O           5.4086   -3.0469    0.1252 O.2     1  UNL1       -0.2685
     31 C           6.7420   -1.1878    0.5882 C.ar    1  UNL1        0.1260
     32 N           6.6915    0.1270    0.9780 N.ar    1  UNL1       -0.2421
     33 C           7.8610    0.8118    1.1072 C.ar    1  UNL1        0.0718
     34 C           9.0506    0.1757    0.8465 C.ar    1  UNL1        0.0004
     35 C          10.2441    0.8761    0.9824 C.ar    1  UNL1       -0.0526
     36 C          10.1998    2.2048    1.3799 C.ar    1  UNL1       -0.0611
     37 C           9.0276    2.8570    1.6445 C.ar    1  UNL1       -0.0597
     38 C           7.8471    2.1493    1.5053 C.ar    1  UNL1       -0.0357
     39 C           9.0512   -1.1328    0.4616 C.ar    1  UNL1       -0.0504
     40 C           7.8851   -1.8976    0.3089 C.ar    1  UNL1       -0.0306
     41 C          -4.1335    0.3236    0.6380 C.3     1  UNL1        0.0876
     42 C          -3.6717    1.7326    0.8937 C.3     1  UNL1       -0.0257
     43 C          -4.8528    0.1111   -0.6079 C.2     1  UNL1        0.2307
     44 O          -5.5030    1.1703   -0.9221 O.2     1  UNL1       -0.2741
     45 N          -4.9784   -0.9623   -1.4886 N.am    1  UNL1       -0.3093
     46 C          -5.7301   -1.0435   -2.6944 C.3     1  UNL1        0.0262
     47 C          -5.3668   -0.0815   -3.7667 C.3     1  UNL1       -0.0442
     48 C          -5.6553   -2.4467   -3.3043 C.3     1  UNL1       -0.0442
     49 C          -7.2087   -0.8549   -2.3501 C.3     1  UNL1       -0.0442
     50 H          -4.6251    2.2263    2.7221 H       1  UNL1        0.0304
     51 H          -3.2832    4.0227    2.2068 H       1  UNL1        0.0268
     52 H          -1.7628    3.1018    2.1039 H       1  UNL1        0.0268
     53 H          -1.9313    4.2769    4.2754 H       1  UNL1        0.0265
     54 H          -3.5665    3.5860    4.5240 H       1  UNL1        0.0265
     55 H          -2.6509    1.7759    5.5162 H       1  UNL1        0.0265
     56 H          -0.9874    2.4678    5.2719 H       1  UNL1        0.0265
     57 H          -0.9389    1.3975    3.0556 H       1  UNL1        0.0268
     58 H          -1.4386    0.1519    4.3456 H       1  UNL1        0.0268
     59 H          -3.7078    0.6708    4.0570 H       1  UNL1        0.0316
     60 H          -4.0065   -1.1722    2.7992 H       1  UNL1        0.0430
     61 H          -2.2434   -1.1780    2.8081 H       1  UNL1        0.0430
     62 H          -1.2370    0.3542    0.8437 H       1  UNL1        0.0453
     63 H          -1.2761   -1.4119    0.9335 H       1  UNL1        0.0453
     64 H          -2.0494   -1.6126   -1.3490 H       1  UNL1        0.0625
     65 H          -1.7287    1.2274   -1.6124 H       1  UNL1        0.2099
     66 H           0.2653    0.3566   -1.1513 H       1  UNL1        0.0527
     67 H           1.1003   -0.8917   -3.0883 H       1  UNL1        0.0332
     68 H          -0.3945   -1.8521   -3.1048 H       1  UNL1        0.0332
     69 H           1.1381    1.4126   -3.5432 H       1  UNL1        0.0620
     70 H           0.3290    3.1751   -4.9833 H       1  UNL1        0.0618
     71 H          -1.8697    3.0237   -6.0376 H       1  UNL1        0.0618
     72 H          -3.2809    0.9914   -5.5987 H       1  UNL1        0.0618
     73 H          -2.4292   -0.8083   -4.1208 H       1  UNL1        0.0620
     74 H           0.3136   -2.5906   -0.3422 H       1  UNL1        0.1491
     75 H           2.9707   -3.0591    0.1398 H       1  UNL1        0.0599
     76 H           2.1613   -1.2628    2.4025 H       1  UNL1        0.0381
     77 H           1.3039   -2.8170    1.8531 H       1  UNL1        0.0381
     78 H           5.1236   -3.3152    3.6028 H       1  UNL1        0.1449
     79 H           4.1760   -4.8720    2.9551 H       1  UNL1        0.1449
     80 H           4.1167   -0.3579    1.0208 H       1  UNL1        0.1498
     81 H          11.1453    0.3124    0.7595 H       1  UNL1        0.0624
     82 H          11.1446    2.7319    1.4797 H       1  UNL1        0.0618
     83 H           9.0864    3.8775    1.9445 H       1  UNL1        0.0618
     84 H           6.9300    2.6591    1.7125 H       1  UNL1        0.0639
     85 H           9.9735   -1.6842    0.2424 H       1  UNL1        0.0625
     86 H           7.8557   -2.9235    0.0105 H       1  UNL1        0.0641
     87 H          -4.9514    0.2020    1.4727 H       1  UNL1        0.0559
     88 H          -4.4668    2.3863    0.4814 H       1  UNL1        0.0288
     89 H          -2.7296    2.0208    0.4167 H       1  UNL1        0.0288
     90 H          -4.4155   -1.7998   -1.1566 H       1  UNL1        0.1492
     91 H          -4.9121    0.8591   -3.3978 H       1  UNL1        0.0250
     92 H          -4.7708   -0.5499   -4.5871 H       1  UNL1        0.0250
     93 H          -6.3149    0.2372   -4.2893 H       1  UNL1        0.0250
     94 H          -6.4779   -2.5470   -4.0379 H       1  UNL1        0.0250
     95 H          -4.6987   -2.5335   -3.8766 H       1  UNL1        0.0250
     96 H          -5.7653   -3.2403   -2.5478 H       1  UNL1        0.0250
     97 H          -7.5236   -1.5390   -1.5101 H       1  UNL1        0.0250
     98 H          -7.8470   -1.0576   -3.2502 H       1  UNL1        0.0250
     99 H          -7.4449    0.1676   -2.0107 H       1  UNL1        0.0250
@<TRIPOS>BOND
     1     1     2    1
     2     2     3    1
     3     3     4    1
     4     4     5    1
     5     5     6    1
     6     6     7    1
     7     7     8    1
     8     8     9    1
     9     9    10    1
    10    10    11    1
    11    10    12    1
    12    12    13    1
    13    13    14    1
    14    14    15   ar
    15    15    16   ar
    16    16    17   ar
    17    17    18   ar
    18    18    19   ar
    19    12    20    1
    20    20    21   am
    21    21    22    2
    22    21    23    1
    23    23    24    1
    24    24    25    1
    25    25    26   am
    26    25    27    2
    27    23    28    1
    28    28    29   am
    29    29    30    2
    30    29    31    1
    31    31    32   ar
    32    32    33   ar
    33    33    34   ar
    34    34    35   ar
    35    35    36   ar
    36    36    37   ar
    37    37    38   ar
    38    34    39   ar
    39    39    40   ar
    40     8    41    1
    41    41    42    1
    42    41    43    1
    43    43    44    2
    44    43    45   am
    45    45    46    1
    46    46    47    1
    47    46    48    1
    48    46    49    1
    49     6     1    1
    50    19    14   ar
    51    40    31   ar
    52    42     1    1
    53    38    33   ar
    54     1    50    1
    55     2    51    1
    56     2    52    1
    57     3    53    1
    58     3    54    1
    59     4    55    1
    60     4    56    1
    61     5    57    1
    62     5    58    1
    63     6    59    1
    64     7    60    1
    65     7    61    1
    66     9    62    1
    67     9    63    1
    68    10    64    1
    69    11    65    1
    70    12    66    1
    71    13    67    1
    72    13    68    1
    73    15    69    1
    74    16    70    1
    75    17    71    1
    76    18    72    1
    77    19    73    1
    78    20    74    1
    79    23    75    1
    80    24    76    1
    81    24    77    1
    82    26    78    1
    83    26    79    1
    84    28    80    1
    85    35    81    1
    86    36    82    1
    87    37    83    1
    88    38    84    1
    89    39    85    1
    90    40    86    1
    91    41    87    1
    92    42    88    1
    93    42    89    1
    94    45    90    1
    95    47    91    1
    96    47    92    1
    97    47    93    1
    98    48    94    1
    99    48    95    1
   100    48    96    1
   101    49    97    1
   102    49    98    1
   103    49    99    1
