@<TRIPOS>MOLECULE
*****
 65 68 0 0 0
SMALL
GASTEIGER

@<TRIPOS>ATOM
      1 C           0.1271    0.6627   -2.3759 C.3     1  UNL1       -0.0421
      2 C           0.5586   -0.4430   -1.4039 C.3     1  UNL1        0.0515
      3 C           1.9137   -0.1316   -0.9004 C.ar    1  UNL1       -0.0271
      4 C           2.9894   -0.9573   -1.2589 C.ar    1  UNL1       -0.0562
      5 C           4.2797   -0.7445   -0.8660 C.ar    1  UNL1       -0.0522
      6 C           4.5895    0.3370   -0.0670 C.ar    1  UNL1        0.0021
      7 C           5.9807    0.5423    0.3405 C.ar    1  UNL1        0.0916
      8 C           6.3802    1.5864    1.1312 C.ar    1  UNL1       -0.0289
      9 C           7.7302    1.7188    1.4809 C.ar    1  UNL1        0.0064
     10 C           8.6321    0.8027    1.0277 C.ar    1  UNL1        0.2670
     11 O           9.8471    0.9487    1.3609 O.2     1  UNL1       -0.2662
     12 N           8.2126   -0.2045    0.2585 N.ar    1  UNL1       -0.2321
     13 C           9.1664   -1.1797   -0.2251 C.3     1  UNL1        0.0340
     14 N           6.9388   -0.3281   -0.0706 N.ar    1  UNL1       -0.1685
     15 C           3.5743    1.1602    0.3009 C.ar    1  UNL1       -0.0522
     16 C           2.2471    0.9358   -0.1074 C.ar    1  UNL1       -0.0562
     17 N          -0.4453   -0.6661   -0.3969 N.am    1  UNL1       -0.2605
     18 C          -0.8212    0.3264    0.5677 C.3     1  UNL1        0.0224
     19 C          -2.1283    0.0260    1.2616 C.3     1  UNL1        0.0076
     20 C          -3.0892   -0.7562    0.4372 C.3     1  UNL1        0.1440
     21 C          -3.4723   -0.1620   -0.8550 C.3     1  UNL1        0.0199
     22 C          -4.1323    1.1411   -0.9078 C.3     1  UNL1        0.0645
     23 C          -5.4453    1.2646   -0.2023 C.3     1  UNL1       -0.0362
     24 C          -4.4225    1.4390   -2.3904 C.3     1  UNL1       -0.0362
     25 O          -3.3397    2.2031   -0.4804 O.3     1  UNL1       -0.3890
     26 C          -4.2628   -1.1466    1.2729 C.ar    1  UNL1       -0.0040
     27 C          -4.3926   -0.7801    2.5848 C.ar    1  UNL1       -0.0548
     28 C          -5.4906   -1.1734    3.3027 C.ar    1  UNL1       -0.0614
     29 C          -6.4837   -1.9392    2.7329 C.ar    1  UNL1       -0.0617
     30 C          -6.3422   -2.3082    1.3935 C.ar    1  UNL1       -0.0614
     31 C          -5.2354   -1.9060    0.6873 C.ar    1  UNL1       -0.0548
     32 O          -2.4466   -2.0005    0.1552 O.3     1  UNL1       -0.4387
     33 C          -1.1506   -1.9204   -0.3246 C.2     1  UNL1        0.4042
     34 O          -0.5176   -2.9405   -0.7244 O.2     1  UNL1       -0.2262
     35 H          -0.2661    1.5361   -1.8337 H       1  UNL1        0.0251
     36 H          -0.5975    0.2263   -3.0845 H       1  UNL1        0.0251
     37 H           1.0392    0.8979   -2.9689 H       1  UNL1        0.0251
     38 H           0.6469   -1.3598   -2.0748 H       1  UNL1        0.0549
     39 H           2.7747   -1.7998   -1.8760 H       1  UNL1        0.0621
     40 H           5.0940   -1.4012   -1.1591 H       1  UNL1        0.0624
     41 H           5.6614    2.3034    1.4834 H       1  UNL1        0.0641
     42 H           7.9850    2.5623    2.1066 H       1  UNL1        0.0673
     43 H           9.5900   -0.7705   -1.1822 H       1  UNL1        0.0474
     44 H          10.0047   -1.2993    0.4649 H       1  UNL1        0.0474
     45 H           8.7157   -2.1726   -0.4046 H       1  UNL1        0.0474
     46 H           3.7606    2.0262    0.9288 H       1  UNL1        0.0624
     47 H           1.4858    1.6187    0.1945 H       1  UNL1        0.0621
     48 H          -0.8252    1.3563    0.1421 H       1  UNL1        0.0467
     49 H          -0.0501    0.3276    1.3730 H       1  UNL1        0.0467
     50 H          -2.5300    0.9736    1.6594 H       1  UNL1        0.0322
     51 H          -1.8885   -0.6087    2.1489 H       1  UNL1        0.0322
     52 H          -2.5223   -0.0802   -1.4675 H       1  UNL1        0.0335
     53 H          -4.0687   -0.9134   -1.4347 H       1  UNL1        0.0335
     54 H          -5.8770    2.2608   -0.5282 H       1  UNL1        0.0257
     55 H          -6.2092    0.5286   -0.5357 H       1  UNL1        0.0257
     56 H          -5.3686    1.3559    0.8976 H       1  UNL1        0.0257
     57 H          -3.4698    1.6962   -2.8979 H       1  UNL1        0.0257
     58 H          -4.8060    0.5103   -2.8659 H       1  UNL1        0.0257
     59 H          -5.1844    2.2376   -2.4830 H       1  UNL1        0.0257
     60 H          -3.7010    3.0737   -0.7085 H       1  UNL1        0.2101
     61 H          -3.6547   -0.1902    3.0687 H       1  UNL1        0.0622
     62 H          -5.6365   -0.9057    4.3488 H       1  UNL1        0.0618
     63 H          -7.3651   -2.2658    3.2766 H       1  UNL1        0.0618
     64 H          -7.1214   -2.9167    0.9239 H       1  UNL1        0.0618
     65 H          -5.1655   -2.2144   -0.3436 H       1  UNL1        0.0622
@<TRIPOS>BOND
     1     1     2    1
     2     2     3    1
     3     3     4   ar
     4     4     5   ar
     5     5     6   ar
     6     6     7    1
     7     7     8   ar
     8     8     9   ar
     9     9    10   ar
    10    10    11    2
    11    10    12   ar
    12    12    13    1
    13    12    14   ar
    14     6    15   ar
    15    15    16   ar
    16     2    17    1
    17    17    18    1
    18    18    19    1
    19    19    20    1
    20    20    21    1
    21    21    22    1
    22    22    23    1
    23    22    24    1
    24    22    25    1
    25    20    26    1
    26    26    27   ar
    27    27    28   ar
    28    28    29   ar
    29    29    30   ar
    30    30    31   ar
    31    20    32    1
    32    32    33    1
    33    33    34    2
    34    16     3   ar
    35    33    17   am
    36    14     7   ar
    37    31    26   ar
    38     1    35    1
    39     1    36    1
    40     1    37    1
    41     2    38    1
    42     4    39    1
    43     5    40    1
    44     8    41    1
    45     9    42    1
    46    13    43    1
    47    13    44    1
    48    13    45    1
    49    15    46    1
    50    16    47    1
    51    18    48    1
    52    18    49    1
    53    19    50    1
    54    19    51    1
    55    21    52    1
    56    21    53    1
    57    23    54    1
    58    23    55    1
    59    23    56    1
    60    24    57    1
    61    24    58    1
    62    24    59    1
    63    25    60    1
    64    27    61    1
    65    28    62    1
    66    29    63    1
    67    30    64    1
    68    31    65    1
