
     RDKit          3D

 65 68  0  0  0  0  0  0  0  0999 V2000
    0.1271    0.6627   -2.3759 C   0  0  0  0  0  0  0  0  0  0  0  0
    0.5586   -0.4430   -1.4039 C   0  0  1  0  0  0  0  0  0  0  0  0
    1.9137   -0.1316   -0.9004 C   0  0  0  0  0  0  0  0  0  0  0  0
    2.9894   -0.9573   -1.2589 C   0  0  0  0  0  0  0  0  0  0  0  0
    4.2797   -0.7445   -0.8660 C   0  0  0  0  0  0  0  0  0  0  0  0
    4.5895    0.3370   -0.0670 C   0  0  0  0  0  0  0  0  0  0  0  0
    5.9807    0.5423    0.3405 C   0  0  0  0  0  0  0  0  0  0  0  0
    6.3802    1.5864    1.1312 C   0  0  0  0  0  0  0  0  0  0  0  0
    7.7302    1.7188    1.4809 C   0  0  0  0  0  0  0  0  0  0  0  0
    8.6321    0.8027    1.0277 C   0  0  0  0  0  0  0  0  0  0  0  0
    9.8471    0.9487    1.3609 O   0  0  0  0  0  0  0  0  0  0  0  0
    8.2126   -0.2045    0.2585 N   0  0  0  0  0  0  0  0  0  0  0  0
    9.1664   -1.1797   -0.2251 C   0  0  0  0  0  0  0  0  0  0  0  0
    6.9388   -0.3281   -0.0706 N   0  0  0  0  0  0  0  0  0  0  0  0
    3.5743    1.1602    0.3009 C   0  0  0  0  0  0  0  0  0  0  0  0
    2.2471    0.9358   -0.1074 C   0  0  0  0  0  0  0  0  0  0  0  0
   -0.4453   -0.6661   -0.3969 N   0  0  0  0  0  0  0  0  0  0  0  0
   -0.8212    0.3264    0.5677 C   0  0  0  0  0  0  0  0  0  0  0  0
   -2.1283    0.0260    1.2616 C   0  0  0  0  0  0  0  0  0  0  0  0
   -3.0892   -0.7562    0.4372 C   0  0  2  0  0  0  0  0  0  0  0  0
   -3.4723   -0.1620   -0.8550 C   0  0  0  0  0  0  0  0  0  0  0  0
   -4.1323    1.1411   -0.9078 C   0  0  0  0  0  0  0  0  0  0  0  0
   -5.4453    1.2646   -0.2023 C   0  0  0  0  0  0  0  0  0  0  0  0
   -4.4225    1.4390   -2.3904 C   0  0  0  0  0  0  0  0  0  0  0  0
   -3.3397    2.2031   -0.4804 O   0  0  0  0  0  0  0  0  0  0  0  0
   -4.2628   -1.1466    1.2729 C   0  0  0  0  0  0  0  0  0  0  0  0
   -4.3926   -0.7801    2.5848 C   0  0  0  0  0  0  0  0  0  0  0  0
   -5.4906   -1.1734    3.3027 C   0  0  0  0  0  0  0  0  0  0  0  0
   -6.4837   -1.9392    2.7329 C   0  0  0  0  0  0  0  0  0  0  0  0
   -6.3422   -2.3082    1.3935 C   0  0  0  0  0  0  0  0  0  0  0  0
   -5.2354   -1.9060    0.6873 C   0  0  0  0  0  0  0  0  0  0  0  0
   -2.4466   -2.0005    0.1552 O   0  0  0  0  0  0  0  0  0  0  0  0
   -1.1506   -1.9204   -0.3246 C   0  0  0  0  0  0  0  0  0  0  0  0
   -0.5176   -2.9405   -0.7244 O   0  0  0  0  0  0  0  0  0  0  0  0
   -0.2661    1.5361   -1.8337 H   0  0  0  0  0  0  0  0  0  0  0  0
   -0.5975    0.2263   -3.0845 H   0  0  0  0  0  0  0  0  0  0  0  0
    1.0392    0.8979   -2.9689 H   0  0  0  0  0  0  0  0  0  0  0  0
    0.6469   -1.3598   -2.0748 H   0  0  0  0  0  0  0  0  0  0  0  0
    2.7747   -1.7998   -1.8760 H   0  0  0  0  0  0  0  0  0  0  0  0
    5.0940   -1.4012   -1.1591 H   0  0  0  0  0  0  0  0  0  0  0  0
    5.6614    2.3034    1.4834 H   0  0  0  0  0  0  0  0  0  0  0  0
    7.9850    2.5623    2.1066 H   0  0  0  0  0  0  0  0  0  0  0  0
    9.5900   -0.7705   -1.1822 H   0  0  0  0  0  0  0  0  0  0  0  0
   10.0047   -1.2993    0.4649 H   0  0  0  0  0  0  0  0  0  0  0  0
    8.7157   -2.1726   -0.4046 H   0  0  0  0  0  0  0  0  0  0  0  0
    3.7606    2.0262    0.9288 H   0  0  0  0  0  0  0  0  0  0  0  0
    1.4858    1.6187    0.1945 H   0  0  0  0  0  0  0  0  0  0  0  0
   -0.8252    1.3563    0.1421 H   0  0  0  0  0  0  0  0  0  0  0  0
   -0.0501    0.3276    1.3730 H   0  0  0  0  0  0  0  0  0  0  0  0
   -2.5300    0.9736    1.6594 H   0  0  0  0  0  0  0  0  0  0  0  0
   -1.8885   -0.6087    2.1489 H   0  0  0  0  0  0  0  0  0  0  0  0
   -2.5223   -0.0802   -1.4675 H   0  0  0  0  0  0  0  0  0  0  0  0
   -4.0687   -0.9134   -1.4347 H   0  0  0  0  0  0  0  0  0  0  0  0
   -5.8770    2.2608   -0.5282 H   0  0  0  0  0  0  0  0  0  0  0  0
   -6.2092    0.5286   -0.5357 H   0  0  0  0  0  0  0  0  0  0  0  0
   -5.3686    1.3559    0.8976 H   0  0  0  0  0  0  0  0  0  0  0  0
   -3.4698    1.6962   -2.8979 H   0  0  0  0  0  0  0  0  0  0  0  0
   -4.8060    0.5103   -2.8659 H   0  0  0  0  0  0  0  0  0  0  0  0
   -5.1844    2.2376   -2.4830 H   0  0  0  0  0  0  0  0  0  0  0  0
   -3.7010    3.0737   -0.7085 H   0  0  0  0  0  0  0  0  0  0  0  0
   -3.6547   -0.1902    3.0687 H   0  0  0  0  0  0  0  0  0  0  0  0
   -5.6365   -0.9057    4.3488 H   0  0  0  0  0  0  0  0  0  0  0  0
   -7.3651   -2.2658    3.2766 H   0  0  0  0  0  0  0  0  0  0  0  0
   -7.1214   -2.9167    0.9239 H   0  0  0  0  0  0  0  0  0  0  0  0
   -5.1655   -2.2144   -0.3436 H   0  0  0  0  0  0  0  0  0  0  0  0
  1  2  1  0
  2  3  1  0
  3  4  2  0
  4  5  1  0
  5  6  2  0
  6  7  1  0
  7  8  1  0
  8  9  2  0
  9 10  1  0
 10 11  2  0
 10 12  1  0
 12 13  1  0
 12 14  1  0
  6 15  1  0
 15 16  2  0
  2 17  1  0
 17 18  1  0
 18 19  1  0
 19 20  1  0
 20 21  1  6
 21 22  1  0
 22 23  1  0
 22 24  1  0
 22 25  1  0
 20 26  1  0
 26 27  2  0
 27 28  1  0
 28 29  2  0
 29 30  1  0
 30 31  2  0
 20 32  1  0
 32 33  1  0
 33 34  2  0
 16  3  1  0
 33 17  1  0
 14  7  2  0
 31 26  1  0
  1 35  1  0
  1 36  1  0
  1 37  1  0
  2 38  1  6
  4 39  1  0
  5 40  1  0
  8 41  1  0
  9 42  1  0
 13 43  1  0
 13 44  1  0
 13 45  1  0
 15 46  1  0
 16 47  1  0
 18 48  1  0
 18 49  1  0
 19 50  1  0
 19 51  1  0
 21 52  1  0
 21 53  1  0
 23 54  1  0
 23 55  1  0
 23 56  1  0
 24 57  1  0
 24 58  1  0
 24 59  1  0
 25 60  1  0
 27 61  1  0
 28 62  1  0
 29 63  1  0
 30 64  1  0
 31 65  1  0
M  END
$$$$
