@<TRIPOS>MOLECULE
*****
 81 82 0 0 0
SMALL
GASTEIGER

@<TRIPOS>ATOM
      1 C           7.3975   -0.0587    0.8931 C.3     1  UNL1        0.1141
      2 O           7.8457   -0.3821   -0.3998 O.3     1  UNL1       -0.3864
      3 C           7.2461    1.4313    0.9813 C.3     1  UNL1        0.1119
      4 O           8.4969    1.9520    1.3565 O.3     1  UNL1       -0.3865
      5 C           6.3091    1.7134    2.1220 C.3     1  UNL1        0.1130
      6 C           6.1942    3.2169    2.2722 C.3     1  UNL1        0.0730
      7 O           5.4414    3.4892    3.3924 O.3     1  UNL1       -0.3924
      8 O           5.0540    1.1722    1.9871 O.3     1  UNL1       -0.3405
      9 C           4.9615    0.1119    1.1048 C.3     1  UNL1        0.1884
     10 O           3.7600   -0.5359    1.3864 O.3     1  UNL1       -0.3401
     11 C           2.9239   -0.5788    0.3038 C.3     1  UNL1        0.1184
     12 C           2.5994   -1.9822   -0.1807 C.3     1  UNL1        0.1144
     13 O           3.7027   -2.6757   -0.6371 O.3     1  UNL1       -0.3864
     14 C           1.7086   -1.7486   -1.4034 C.3     1  UNL1        0.1341
     15 O           1.5941   -2.9739   -2.0489 O.3     1  UNL1       -0.3841
     16 C           0.3832   -1.2532   -0.8769 C.3     1  UNL1        0.1879
     17 O          -0.5700   -2.2525   -0.8522 O.3     1  UNL1       -0.3487
     18 C          -1.6414   -1.9401   -1.7443 C.3     1  UNL1        0.0508
     19 C          -2.5866   -3.0662   -1.6337 C.3     1  UNL1       -0.0294
     20 C          -3.7780   -3.2085   -2.4532 C.3     1  UNL1       -0.0510
     21 C          -4.8075   -2.1193   -2.4321 C.3     1  UNL1       -0.0530
     22 C          -4.3734   -0.8342   -3.0480 C.3     1  UNL1       -0.0531
     23 C          -5.4341    0.2098   -3.0057 C.3     1  UNL1       -0.0531
     24 C          -5.8027    0.7783   -1.7132 C.3     1  UNL1       -0.0531
     25 C          -6.3001   -0.0329   -0.5832 C.3     1  UNL1       -0.0531
     26 C          -6.7718    0.9239    0.5379 C.3     1  UNL1       -0.0531
     27 C          -5.6180    1.7577    0.9800 C.3     1  UNL1       -0.0533
     28 C          -6.0500    2.6843    2.1374 C.3     1  UNL1       -0.0559
     29 C          -6.5139    1.7861    3.2458 C.3     1  UNL1       -0.0653
     30 O           0.5017   -0.7179    0.3798 O.3     1  UNL1       -0.3405
     31 C           1.6023    0.1202    0.5274 C.3     1  UNL1        0.1134
     32 C           1.4796    1.3924   -0.2892 C.3     1  UNL1        0.0730
     33 O           0.3152    2.0412    0.1820 O.3     1  UNL1       -0.3924
     34 C           6.1504   -0.7903    1.2706 C.3     1  UNL1        0.1341
     35 O           6.2326   -1.2092    2.6020 O.3     1  UNL1       -0.3841
     36 H           8.2259   -0.3901    1.5679 H       1  UNL1        0.0648
     37 H           8.4323    0.3225   -0.7540 H       1  UNL1        0.2100
     38 H           6.9275    1.8920    0.0323 H       1  UNL1        0.0647
     39 H           9.2378    1.4130    0.9726 H       1  UNL1        0.2100
     40 H           6.7967    1.3192    3.0392 H       1  UNL1        0.0647
     41 H           7.2387    3.5810    2.4697 H       1  UNL1        0.0584
     42 H           5.7506    3.7049    1.4043 H       1  UNL1        0.0584
     43 H           5.9289    4.0042    4.0827 H       1  UNL1        0.2095
     44 H           4.9214    0.4305    0.0473 H       1  UNL1        0.0938
     45 H           3.4200   -0.0718   -0.5626 H       1  UNL1        0.0651
     46 H           2.1079   -2.5839    0.5914 H       1  UNL1        0.0648
     47 H           3.7258   -3.5974   -0.2773 H       1  UNL1        0.2100
     48 H           2.2365   -1.0317   -2.0433 H       1  UNL1        0.0671
     49 H           1.5995   -3.6716   -1.3552 H       1  UNL1        0.2101
     50 H           0.0719   -0.4416   -1.5978 H       1  UNL1        0.0937
     51 H          -1.3195   -1.6104   -2.7137 H       1  UNL1        0.0561
     52 H          -2.0566   -1.0238   -1.1936 H       1  UNL1        0.0561
     53 H          -1.9866   -4.0604   -1.6521 H       1  UNL1        0.0287
     54 H          -2.8928   -3.0898   -0.5150 H       1  UNL1        0.0287
     55 H          -4.3556   -4.1302   -2.0750 H       1  UNL1        0.0266
     56 H          -3.5515   -3.4922   -3.5283 H       1  UNL1        0.0266
     57 H          -5.1413   -2.0628   -1.3811 H       1  UNL1        0.0265
     58 H          -5.7415   -2.5045   -2.9850 H       1  UNL1        0.0265
     59 H          -4.2137   -1.1273   -4.1708 H       1  UNL1        0.0265
     60 H          -3.4055   -0.4516   -2.6923 H       1  UNL1        0.0265
     61 H          -6.3690   -0.2789   -3.4436 H       1  UNL1        0.0265
     62 H          -5.2109    1.0234   -3.7744 H       1  UNL1        0.0265
     63 H          -6.5285    1.6438   -1.9215 H       1  UNL1        0.0265
     64 H          -4.8693    1.3275   -1.2873 H       1  UNL1        0.0265
     65 H          -5.4249   -0.5315   -0.0329 H       1  UNL1        0.0265
     66 H          -7.0557   -0.7832   -0.7832 H       1  UNL1        0.0265
     67 H          -7.2404    0.3518    1.3462 H       1  UNL1        0.0265
     68 H          -7.5036    1.6008    0.0246 H       1  UNL1        0.0265
     69 H          -5.3465    2.4592    0.1479 H       1  UNL1        0.0265
     70 H          -4.7651    1.1375    1.2363 H       1  UNL1        0.0265
     71 H          -6.8460    3.3377    1.7723 H       1  UNL1        0.0263
     72 H          -5.1771    3.2896    2.4416 H       1  UNL1        0.0263
     73 H          -6.2892    2.2756    4.2373 H       1  UNL1        0.0230
     74 H          -7.5722    1.5030    3.1498 H       1  UNL1        0.0230
     75 H          -5.9067    0.8517    3.2155 H       1  UNL1        0.0230
     76 H           1.5949    0.4579    1.5914 H       1  UNL1        0.0647
     77 H           2.3324    2.0348    0.0298 H       1  UNL1        0.0584
     78 H           1.4378    1.2166   -1.3637 H       1  UNL1        0.0584
     79 H           0.4850    2.3930    1.0907 H       1  UNL1        0.2095
     80 H           6.0901   -1.6850    0.6249 H       1  UNL1        0.0671
     81 H           6.5553   -2.1246    2.6267 H       1  UNL1        0.2101
@<TRIPOS>BOND
     1     1     2    1
     2     1     3    1
     3     3     4    1
     4     3     5    1
     5     5     6    1
     6     6     7    1
     7     5     8    1
     8     8     9    1
     9     9    10    1
    10    10    11    1
    11    11    12    1
    12    12    13    1
    13    12    14    1
    14    14    15    1
    15    14    16    1
    16    16    17    1
    17    17    18    1
    18    18    19    1
    19    19    20    1
    20    20    21    1
    21    21    22    1
    22    22    23    1
    23    23    24    1
    24    24    25    1
    25    25    26    1
    26    26    27    1
    27    27    28    1
    28    28    29    1
    29    16    30    1
    30    30    31    1
    31    31    32    1
    32    32    33    1
    33     9    34    1
    34    34    35    1
    35    34     1    1
    36    31    11    1
    37     1    36    1
    38     2    37    1
    39     3    38    1
    40     4    39    1
    41     5    40    1
    42     6    41    1
    43     6    42    1
    44     7    43    1
    45     9    44    1
    46    11    45    1
    47    12    46    1
    48    13    47    1
    49    14    48    1
    50    15    49    1
    51    16    50    1
    52    18    51    1
    53    18    52    1
    54    19    53    1
    55    19    54    1
    56    20    55    1
    57    20    56    1
    58    21    57    1
    59    21    58    1
    60    22    59    1
    61    22    60    1
    62    23    61    1
    63    23    62    1
    64    24    63    1
    65    24    64    1
    66    25    65    1
    67    25    66    1
    68    26    67    1
    69    26    68    1
    70    27    69    1
    71    27    70    1
    72    28    71    1
    73    28    72    1
    74    29    73    1
    75    29    74    1
    76    29    75    1
    77    31    76    1
    78    32    77    1
    79    32    78    1
    80    33    79    1
    81    34    80    1
    82    35    81    1
