
     RDKit          3D

 55 59  0  0  0  0  0  0  0  0999 V2000
   -5.0160   -0.0584   -2.4574 C   0  0  0  0  0  0  0  0  0  0  0  0
   -4.4248   -0.9038   -1.5024 O   0  0  0  0  0  0  0  0  0  0  0  0
   -3.4516   -0.3936   -0.6251 C   0  0  0  0  0  0  0  0  0  0  0  0
   -3.0694    0.9265   -0.6895 C   0  0  0  0  0  0  0  0  0  0  0  0
   -2.0988    1.4077    0.1955 C   0  0  0  0  0  0  0  0  0  0  0  0
   -1.5166    0.5865    1.1317 C   0  0  0  0  0  0  0  0  0  0  0  0
   -0.5053    1.0894    2.0512 C   0  0  0  0  0  0  0  0  0  0  0  0
    0.9182    0.9687    1.5621 C   0  0  2  0  0  0  0  0  0  0  0  0
    1.7935    1.5471    2.6791 C   0  0  0  0  0  0  0  0  0  0  0  0
    1.2616    2.8270    2.9305 O   0  0  0  0  0  0  0  0  0  0  0  0
    1.5806    3.7054    1.9003 C   0  0  0  0  0  0  0  0  0  0  0  0
    1.2097    3.2113    0.5505 C   0  0  0  0  0  0  0  0  0  0  0  0
    1.1960    1.7770    0.3953 N   0  0  0  0  0  0  0  0  0  0  0  0
    1.4494    1.1889   -0.8704 C   0  0  0  0  0  0  0  0  0  0  0  0
    1.6860    1.9321   -1.8556 O   0  0  0  0  0  0  0  0  0  0  0  0
    1.4502   -0.2494   -1.0922 C   0  0  0  0  0  0  0  0  0  0  0  0
    0.2941   -0.9126   -1.4498 C   0  0  0  0  0  0  0  0  0  0  0  0
    0.2580   -2.2855   -1.6697 C   0  0  0  0  0  0  0  0  0  0  0  0
    1.3956   -3.0340   -1.5340 C   0  0  0  0  0  0  0  0  0  0  0  0
    1.4353   -4.3743   -1.7320 F   0  0  0  0  0  0  0  0  0  0  0  0
    2.5549   -2.3774   -1.1766 C   0  0  0  0  0  0  0  0  0  0  0  0
    2.5917   -1.0156   -0.9583 C   0  0  0  0  0  0  0  0  0  0  0  0
    3.8122   -0.4122   -0.5957 N   0  0  0  0  0  0  0  0  0  0  0  0
    4.4631   -0.5769    0.5262 N   0  0  0  0  0  0  0  0  0  0  0  0
    5.5848    0.1551    0.5210 C   0  0  0  0  0  0  0  0  0  0  0  0
    5.6193    0.8115   -0.6889 C   0  0  0  0  0  0  0  0  0  0  0  0
    4.5012    0.4236   -1.3358 N   0  0  0  0  0  0  0  0  0  0  0  0
   -1.9044   -0.7325    1.1897 C   0  0  0  0  0  0  0  0  0  0  0  0
   -2.8741   -1.2269    0.3104 C   0  0  0  0  0  0  0  0  0  0  0  0
   -3.2912   -2.6138    0.3612 C   0  0  0  0  0  0  0  0  0  0  0  0
   -4.2031   -3.2287   -0.4109 N   0  0  0  0  0  0  0  0  0  0  0  0
   -4.3025   -4.5323   -0.0433 C   0  0  0  0  0  0  0  0  0  0  0  0
   -3.4475   -4.6811    0.9455 O   0  0  0  0  0  0  0  0  0  0  0  0
   -2.8410   -3.5753    1.2045 N   0  0  0  0  0  0  0  0  0  0  0  0
   -5.6060    0.7253   -1.9674 H   0  0  0  0  0  0  0  0  0  0  0  0
   -4.2494    0.4716   -3.0786 H   0  0  0  0  0  0  0  0  0  0  0  0
   -5.6521   -0.6439   -3.1340 H   0  0  0  0  0  0  0  0  0  0  0  0
   -3.5428    1.5491   -1.4344 H   0  0  0  0  0  0  0  0  0  0  0  0
   -1.8588    2.4527    0.0781 H   0  0  0  0  0  0  0  0  0  0  0  0
   -0.6546    2.1874    2.2705 H   0  0  0  0  0  0  0  0  0  0  0  0
   -0.5344    0.6051    3.0513 H   0  0  0  0  0  0  0  0  0  0  0  0
    1.2007   -0.0923    1.3850 H   0  0  0  0  0  0  0  0  0  0  0  0
    2.8507    1.5936    2.3879 H   0  0  0  0  0  0  0  0  0  0  0  0
    1.6739    0.9466    3.5877 H   0  0  0  0  0  0  0  0  0  0  0  0
    1.0349    4.6478    2.1067 H   0  0  0  0  0  0  0  0  0  0  0  0
    2.6601    3.9704    1.9297 H   0  0  0  0  0  0  0  0  0  0  0  0
    0.2112    3.6214    0.2843 H   0  0  0  0  0  0  0  0  0  0  0  0
    1.9199    3.6939   -0.1780 H   0  0  0  0  0  0  0  0  0  0  0  0
   -0.6482   -0.3979   -1.5785 H   0  0  0  0  0  0  0  0  0  0  0  0
   -0.6540   -2.8010   -1.9506 H   0  0  0  0  0  0  0  0  0  0  0  0
    3.4538   -2.9689   -1.0694 H   0  0  0  0  0  0  0  0  0  0  0  0
    6.3037    0.1953    1.3361 H   0  0  0  0  0  0  0  0  0  0  0  0
    6.4054    1.4818   -0.9927 H   0  0  0  0  0  0  0  0  0  0  0  0
   -1.4596   -1.3871    1.9149 H   0  0  0  0  0  0  0  0  0  0  0  0
   -4.9632   -5.2247   -0.5125 H   0  0  0  0  0  0  0  0  0  0  0  0
  1  2  1  0
  2  3  1  0
  3  4  2  0
  4  5  1  0
  5  6  2  0
  6  7  1  0
  7  8  1  0
  8  9  1  0
  9 10  1  0
 10 11  1  0
 11 12  1  0
 12 13  1  0
 13 14  1  0
 14 15  2  0
 14 16  1  0
 16 17  2  0
 17 18  1  0
 18 19  2  0
 19 20  1  0
 19 21  1  0
 21 22  2  0
 22 23  1  0
 23 24  1  0
 24 25  2  0
 25 26  1  0
 26 27  2  0
  6 28  1  0
 28 29  2  0
 29 30  1  0
 30 31  1  0
 31 32  2  0
 32 33  1  0
 33 34  1  0
 29  3  1  0
 34 30  2  0
 13  8  1  0
 22 16  1  0
 27 23  1  0
  1 35  1  0
  1 36  1  0
  1 37  1  0
  4 38  1  0
  5 39  1  0
  7 40  1  0
  7 41  1  0
  8 42  1  6
  9 43  1  0
  9 44  1  0
 11 45  1  0
 11 46  1  0
 12 47  1  0
 12 48  1  0
 17 49  1  0
 18 50  1  0
 21 51  1  0
 25 52  1  0
 26 53  1  0
 28 54  1  0
 32 55  1  0
M  END
$$$$
