@<TRIPOS>MOLECULE
*****
 55 59 0 0 0
SMALL
GASTEIGER

@<TRIPOS>ATOM
      1 C          -5.0160   -0.0584   -2.4574 C.3     1  UNL1        0.0788
      2 O          -4.4248   -0.9038   -1.5024 O.3     1  UNL1       -0.4944
      3 C          -3.4516   -0.3936   -0.6251 C.ar    1  UNL1        0.1309
      4 C          -3.0694    0.9265   -0.6895 C.ar    1  UNL1       -0.0190
      5 C          -2.0988    1.4077    0.1955 C.ar    1  UNL1       -0.0550
      6 C          -1.5166    0.5865    1.1317 C.ar    1  UNL1       -0.0446
      7 C          -0.5053    1.0894    2.0512 C.3     1  UNL1       -0.0068
      8 C           0.9182    0.9687    1.5621 C.3     1  UNL1        0.0537
      9 C           1.7935    1.5471    2.6791 C.3     1  UNL1        0.0666
     10 O           1.2616    2.8270    2.9305 O.3     1  UNL1       -0.3764
     11 C           1.5806    3.7054    1.9003 C.3     1  UNL1        0.0635
     12 C           1.2097    3.2113    0.5505 C.3     1  UNL1        0.0388
     13 N           1.1960    1.7770    0.3953 N.am    1  UNL1       -0.2897
     14 C           1.4494    1.1889   -0.8704 C.2     1  UNL1        0.2491
     15 O           1.6860    1.9321   -1.8556 O.2     1  UNL1       -0.2699
     16 C           1.4502   -0.2494   -1.0922 C.ar    1  UNL1        0.0641
     17 C           0.2941   -0.9126   -1.4498 C.ar    1  UNL1       -0.0448
     18 C           0.2580   -2.2855   -1.6697 C.ar    1  UNL1       -0.0256
     19 C           1.3956   -3.0340   -1.5340 C.ar    1  UNL1        0.1255
     20 F           1.4353   -4.3743   -1.7320 F       1  UNL1       -0.2054
     21 C           2.5549   -2.3774   -1.1766 C.ar    1  UNL1        0.0015
     22 C           2.5917   -1.0156   -0.9583 C.ar    1  UNL1        0.1009
     23 N           3.8122   -0.4122   -0.5957 N.ar    1  UNL1       -0.1495
     24 N           4.4631   -0.5769    0.5262 N.ar    1  UNL1       -0.1556
     25 C           5.5848    0.1551    0.5210 C.ar    1  UNL1        0.0697
     26 C           5.6193    0.8115   -0.6889 C.ar    1  UNL1        0.0697
     27 N           4.5012    0.4236   -1.3358 N.ar    1  UNL1       -0.1556
     28 C          -1.9044   -0.7325    1.1897 C.ar    1  UNL1       -0.0442
     29 C          -2.8741   -1.2269    0.3104 C.ar    1  UNL1        0.0643
     30 C          -3.2912   -2.6138    0.3612 C.ar    1  UNL1        0.2053
     31 N          -4.2031   -3.2287   -0.4109 N.ar    1  UNL1       -0.1941
     32 C          -4.3025   -4.5323   -0.0433 C.ar    1  UNL1        0.2147
     33 O          -3.4475   -4.6811    0.9455 O.2     1  UNL1       -0.3411
     34 N          -2.8410   -3.5753    1.2045 N.ar    1  UNL1       -0.0563
     35 H          -5.6060    0.7253   -1.9674 H       1  UNL1        0.0660
     36 H          -4.2494    0.4716   -3.0786 H       1  UNL1        0.0660
     37 H          -5.6521   -0.6439   -3.1340 H       1  UNL1        0.0660
     38 H          -3.5428    1.5491   -1.4344 H       1  UNL1        0.0654
     39 H          -1.8588    2.4527    0.0781 H       1  UNL1        0.0621
     40 H          -0.6546    2.1874    2.2705 H       1  UNL1        0.0332
     41 H          -0.5344    0.6051    3.0513 H       1  UNL1        0.0332
     42 H           1.2007   -0.0923    1.3850 H       1  UNL1        0.0526
     43 H           2.8507    1.5936    2.3879 H       1  UNL1        0.0578
     44 H           1.6739    0.9466    3.5877 H       1  UNL1        0.0578
     45 H           1.0349    4.6478    2.1067 H       1  UNL1        0.0575
     46 H           2.6601    3.9704    1.9297 H       1  UNL1        0.0575
     47 H           0.2112    3.6214    0.2843 H       1  UNL1        0.0487
     48 H           1.9199    3.6939   -0.1780 H       1  UNL1        0.0487
     49 H          -0.6482   -0.3979   -1.5785 H       1  UNL1        0.0627
     50 H          -0.6540   -2.8010   -1.9506 H       1  UNL1        0.0646
     51 H           3.4538   -2.9689   -1.0694 H       1  UNL1        0.0668
     52 H           6.3037    0.1953    1.3361 H       1  UNL1        0.0864
     53 H           6.4054    1.4818   -0.9927 H       1  UNL1        0.0864
     54 H          -1.4596   -1.3871    1.9149 H       1  UNL1        0.0628
     55 H          -4.9632   -5.2247   -0.5125 H       1  UNL1        0.1283
@<TRIPOS>BOND
     1     1     2    1
     2     2     3    1
     3     3     4   ar
     4     4     5   ar
     5     5     6   ar
     6     6     7    1
     7     7     8    1
     8     8     9    1
     9     9    10    1
    10    10    11    1
    11    11    12    1
    12    12    13    1
    13    13    14   am
    14    14    15    2
    15    14    16    1
    16    16    17   ar
    17    17    18   ar
    18    18    19   ar
    19    19    20    1
    20    19    21   ar
    21    21    22   ar
    22    22    23    1
    23    23    24   ar
    24    24    25   ar
    25    25    26   ar
    26    26    27   ar
    27     6    28   ar
    28    28    29   ar
    29    29    30    1
    30    30    31   ar
    31    31    32   ar
    32    32    33   ar
    33    33    34   ar
    34    29     3   ar
    35    34    30   ar
    36    13     8    1
    37    22    16   ar
    38    27    23   ar
    39     1    35    1
    40     1    36    1
    41     1    37    1
    42     4    38    1
    43     5    39    1
    44     7    40    1
    45     7    41    1
    46     8    42    1
    47     9    43    1
    48     9    44    1
    49    11    45    1
    50    11    46    1
    51    12    47    1
    52    12    48    1
    53    17    49    1
    54    18    50    1
    55    21    51    1
    56    25    52    1
    57    26    53    1
    58    28    54    1
    59    32    55    1
