
     RDKit          3D

 38 41  0  0  0  0  0  0  0  0999 V2000
    3.7894    2.2091   -4.5989 N   0  0  0  0  0  0  0  0  0  0  0  0
    2.6914    1.6281   -4.4153 C   0  0  0  0  0  0  0  0  0  0  0  0
    1.4502    0.9828   -4.1855 C   0  0  0  0  0  0  0  0  0  0  0  0
    0.9802    0.1349   -5.2220 C   0  0  0  0  0  0  0  0  0  0  0  0
   -0.5316   -0.5256   -4.5946 S   0  0  0  0  0  0  0  0  0  0  0  0
   -0.4867    0.3151   -3.0372 C   0  0  0  0  0  0  0  0  0  0  0  0
   -1.4664    0.1348   -1.9957 N   0  0  0  0  0  0  0  0  0  0  0  0
   -1.1570   -0.6918   -0.8737 C   0  0  0  0  0  0  0  0  0  0  0  0
    0.0122   -1.1950   -0.8906 O   0  0  0  0  0  0  0  0  0  0  0  0
   -2.0292   -0.9780    0.2359 C   0  0  0  0  0  0  0  0  0  0  0  0
   -1.4995   -1.6682    1.4008 C   0  0  0  0  0  0  0  0  0  0  0  0
   -1.6729   -3.0092    1.6020 C   0  0  0  0  0  0  0  0  0  0  0  0
   -1.2314   -3.6929    2.7096 C   0  0  0  0  0  0  0  0  0  0  0  0
   -0.5590   -3.0003    3.7108 C   0  0  0  0  0  0  0  0  0  0  0  0
   -0.3529   -1.6190    3.5458 C   0  0  0  0  0  0  0  0  0  0  0  0
    0.2917   -0.9746    4.5124 N   0  0  0  0  0  0  0  0  0  0  0  0
    0.5390    0.3419    4.4576 C   0  0  0  0  0  0  0  0  0  0  0  0
    0.0863    1.0095    3.3324 C   0  0  0  0  0  0  0  0  0  0  0  0
   -0.5715    0.3918    2.3287 C   0  0  0  0  0  0  0  0  0  0  0  0
   -0.8331   -0.9911    2.3867 C   0  0  0  0  0  0  0  0  0  0  0  0
    0.6778    1.0487   -3.0888 C   0  0  0  0  0  0  0  0  0  0  0  0
    1.0024    1.8743   -1.8570 C   0  0  0  0  0  0  0  0  0  0  0  0
    0.2541    1.9520   -0.7454 N   0  0  0  0  0  0  0  0  0  0  0  0
    0.8346    2.7741    0.1459 N   0  0  0  0  0  0  0  0  0  0  0  0
    1.9667    3.2288   -0.3959 C   0  0  0  0  0  0  0  0  0  0  0  0
    2.0489    2.6626   -1.6266 N   0  0  0  0  0  0  0  0  0  0  0  0
    1.4356   -0.0676   -6.1686 H   0  0  0  0  0  0  0  0  0  0  0  0
   -2.4007    0.5851   -2.0058 H   0  0  0  0  0  0  0  0  0  0  0  0
   -2.5287   -0.0384    0.6440 H   0  0  0  0  0  0  0  0  0  0  0  0
   -2.9110   -1.5732   -0.1875 H   0  0  0  0  0  0  0  0  0  0  0  0
   -2.1916   -3.5846    0.8402 H   0  0  0  0  0  0  0  0  0  0  0  0
   -1.3636   -4.7699    2.8633 H   0  0  0  0  0  0  0  0  0  0  0  0
   -0.2151   -3.5143    4.5996 H   0  0  0  0  0  0  0  0  0  0  0  0
    1.0659    0.8353    5.2546 H   0  0  0  0  0  0  0  0  0  0  0  0
    0.3094    2.0962    3.3075 H   0  0  0  0  0  0  0  0  0  0  0  0
   -0.9255    0.9184    1.4596 H   0  0  0  0  0  0  0  0  0  0  0  0
    2.6514    3.9027    0.0597 H   0  0  0  0  0  0  0  0  0  0  0  0
    2.8400    2.8671   -2.2409 H   0  0  0  0  0  0  0  0  0  0  0  0
  1  2  3  0
  2  3  1  0
  3  4  2  0
  4  5  1  0
  5  6  1  0
  6  7  1  0
  7  8  1  0
  8  9  2  0
  8 10  1  0
 10 11  1  0
 11 12  2  0
 12 13  1  0
 13 14  2  0
 14 15  1  0
 15 16  2  0
 16 17  1  0
 17 18  2  0
 18 19  1  0
 19 20  2  0
  6 21  2  0
 21 22  1  0
 22 23  2  0
 23 24  1  0
 24 25  2  0
 25 26  1  0
 21  3  1  0
 26 22  1  0
 20 11  1  0
 20 15  1  0
  4 27  1  0
  7 28  1  0
 10 29  1  0
 10 30  1  0
 12 31  1  0
 13 32  1  0
 14 33  1  0
 17 34  1  0
 18 35  1  0
 19 36  1  0
 25 37  1  0
 26 38  1  0
M  END
$$$$
