@<TRIPOS>MOLECULE
*****
 38 41 0 0 0
SMALL
GASTEIGER

@<TRIPOS>ATOM
      1 N           3.7894    2.2091   -4.5989 N.1     1  UNL1       -0.1908
      2 C           2.6914    1.6281   -4.4153 C.1     1  UNL1        0.1005
      3 C           1.4502    0.9828   -4.1855 C.ar    1  UNL1        0.0713
      4 C           0.9802    0.1349   -5.2220 C.ar    1  UNL1       -0.0044
      5 S          -0.5316   -0.5256   -4.5946 S.2     1  UNL1       -0.0799
      6 C          -0.4867    0.3151   -3.0372 C.ar    1  UNL1        0.0837
      7 N          -1.4664    0.1348   -1.9957 N.am    1  UNL1       -0.2791
      8 C          -1.1570   -0.6918   -0.8737 C.2     1  UNL1        0.2219
      9 O           0.0122   -1.1950   -0.8906 O.2     1  UNL1       -0.2751
     10 C          -2.0292   -0.9780    0.2359 C.3     1  UNL1        0.0500
     11 C          -1.4995   -1.6682    1.4008 C.ar    1  UNL1       -0.0295
     12 C          -1.6729   -3.0092    1.6020 C.ar    1  UNL1       -0.0574
     13 C          -1.2314   -3.6929    2.7096 C.ar    1  UNL1       -0.0594
     14 C          -0.5590   -3.0003    3.7108 C.ar    1  UNL1       -0.0357
     15 C          -0.3529   -1.6190    3.5458 C.ar    1  UNL1        0.0712
     16 N           0.2917   -0.9746    4.5124 N.ar    1  UNL1       -0.2550
     17 C           0.5390    0.3419    4.4576 C.ar    1  UNL1        0.0283
     18 C           0.0863    1.0095    3.3324 C.ar    1  UNL1       -0.0430
     19 C          -0.5715    0.3918    2.3287 C.ar    1  UNL1       -0.0509
     20 C          -0.8331   -0.9911    2.3867 C.ar    1  UNL1        0.0040
     21 C           0.6778    1.0487   -3.0888 C.ar    1  UNL1        0.0648
     22 C           1.0024    1.8743   -1.8570 C.ar    1  UNL1        0.1650
     23 N           0.2541    1.9520   -0.7454 N.ar    1  UNL1       -0.1295
     24 N           0.8346    2.7741    0.1459 N.ar    1  UNL1       -0.1377
     25 C           1.9667    3.2288   -0.3959 C.ar    1  UNL1        0.1175
     26 N           2.0489    2.6626   -1.6266 N.ar    1  UNL1       -0.3276
     27 H           1.4356   -0.0676   -6.1686 H       1  UNL1        0.0707
     28 H          -2.4007    0.5851   -2.0058 H       1  UNL1        0.1553
     29 H          -2.5287   -0.0384    0.6440 H       1  UNL1        0.0407
     30 H          -2.9110   -1.5732   -0.1875 H       1  UNL1        0.0407
     31 H          -2.1916   -3.5846    0.8402 H       1  UNL1        0.0621
     32 H          -1.3636   -4.7699    2.8633 H       1  UNL1        0.0618
     33 H          -0.2151   -3.5143    4.5996 H       1  UNL1        0.0639
     34 H           1.0659    0.8353    5.2546 H       1  UNL1        0.0830
     35 H           0.3094    2.0962    3.3075 H       1  UNL1        0.0633
     36 H          -0.9255    0.9184    1.4596 H       1  UNL1        0.0625
     37 H           2.6514    3.9027    0.0597 H       1  UNL1        0.1046
     38 H           2.8400    2.8671   -2.2409 H       1  UNL1        0.1683
@<TRIPOS>BOND
     1     1     2    3
     2     2     3    1
     3     3     4   ar
     4     4     5   ar
     5     5     6   ar
     6     6     7    1
     7     7     8   am
     8     8     9    2
     9     8    10    1
    10    10    11    1
    11    11    12   ar
    12    12    13   ar
    13    13    14   ar
    14    14    15   ar
    15    15    16   ar
    16    16    17   ar
    17    17    18   ar
    18    18    19   ar
    19    19    20   ar
    20     6    21   ar
    21    21    22    1
    22    22    23   ar
    23    23    24   ar
    24    24    25   ar
    25    25    26   ar
    26    21     3   ar
    27    26    22   ar
    28    20    11   ar
    29    20    15   ar
    30     4    27    1
    31     7    28    1
    32    10    29    1
    33    10    30    1
    34    12    31    1
    35    13    32    1
    36    14    33    1
    37    17    34    1
    38    18    35    1
    39    19    36    1
    40    25    37    1
    41    26    38    1
