@<TRIPOS>MOLECULE
*****
 59 63 0 0 0
SMALL
GASTEIGER

@<TRIPOS>ATOM
      1 C           8.4540   -1.2856   -0.2032 C.3     1  UNL1        0.0788
      2 O           7.8688   -0.5067    0.8233 O.3     1  UNL1       -0.4951
      3 C           6.5002   -0.2678    0.8027 C.ar    1  UNL1        0.1207
      4 C           5.9255    0.4943    1.8064 C.ar    1  UNL1       -0.0194
      5 C           4.5647    0.7437    1.8025 C.ar    1  UNL1       -0.0506
      6 C           3.7573    0.2395    0.8024 C.ar    1  UNL1       -0.0170
      7 C           2.3975    0.4567    0.7532 C.ar    1  UNL1       -0.0448
      8 C           1.6149   -0.0633   -0.2600 C.ar    1  UNL1        0.0012
      9 C           0.1997    0.1927   -0.2788 C.ar    1  UNL1        0.0767
     10 C          -0.4250    1.3832   -0.5294 C.ar    1  UNL1        0.0974
     11 C           0.1667    2.6788   -0.8449 C.ar    1  UNL1        0.0053
     12 C           0.8979    2.9147   -1.9812 C.ar    1  UNL1       -0.0343
     13 C           1.4447    4.1778   -2.2299 C.ar    1  UNL1        0.0282
     14 N           1.2549    5.1718   -1.3513 N.ar    1  UNL1       -0.2632
     15 C           0.5448    4.9457   -0.2465 C.ar    1  UNL1        0.0282
     16 C          -0.0078    3.7158    0.0307 C.ar    1  UNL1       -0.0343
     17 N          -1.7311    1.1327   -0.4288 N.ar    1  UNL1       -0.2269
     18 C          -1.9851   -0.1812   -0.1194 C.ar    1  UNL1        0.1419
     19 C          -3.3477   -0.6817   -0.0328 C.ar    1  UNL1        0.0204
     20 C          -4.2576   -0.1568   -0.9727 C.ar    1  UNL1       -0.0497
     21 C          -5.5748   -0.4546   -1.0295 C.ar    1  UNL1       -0.0453
     22 C          -6.0650   -1.3491   -0.0852 C.ar    1  UNL1        0.0388
     23 S          -7.7820   -1.7730   -0.1192 S.O     1  UNL1        0.0507
     24 C          -8.7656   -0.6705    0.8963 C.3     1  UNL1        0.0163
     25 O          -8.3520   -1.7618   -1.5262 O.2     1  UNL1       -0.2524
     26 C          -5.2140   -1.8865    0.8538 C.ar    1  UNL1       -0.0424
     27 C          -3.8525   -1.5415    0.8691 C.ar    1  UNL1       -0.0387
     28 C          -3.0668   -2.1088    1.9710 C.3     1  UNL1       -0.0390
     29 N          -0.7870   -0.7348   -0.0353 N.ar    1  UNL1       -0.3262
     30 C          -0.5124   -2.1512    0.2113 C.3     1  UNL1        0.0138
     31 C           2.1656   -0.8252   -1.2701 C.ar    1  UNL1       -0.0520
     32 C           3.5247   -1.0470   -1.2286 C.ar    1  UNL1       -0.0533
     33 C           4.2992   -0.5262   -0.2154 C.ar    1  UNL1       -0.0144
     34 C           5.6725   -0.7538   -0.1748 C.ar    1  UNL1       -0.0122
     35 H           8.0418   -0.8770   -1.1629 H       1  UNL1        0.0660
     36 H           8.1431   -2.3393   -0.0952 H       1  UNL1        0.0660
     37 H           9.5503   -1.2408   -0.1874 H       1  UNL1        0.0660
     38 H           6.5737    0.8813    2.5848 H       1  UNL1        0.0654
     39 H           4.1216    1.3437    2.5938 H       1  UNL1        0.0625
     40 H           1.9853    1.0593    1.5587 H       1  UNL1        0.0630
     41 H           1.0785    2.1495   -2.7171 H       1  UNL1        0.0639
     42 H           2.0204    4.3585   -3.1275 H       1  UNL1        0.0830
     43 H           0.3910    5.7481    0.4648 H       1  UNL1        0.0830
     44 H          -0.5730    3.5916    0.9419 H       1  UNL1        0.0639
     45 H          -3.8574    0.5386   -1.7006 H       1  UNL1        0.0625
     46 H          -6.2176   -0.0171   -1.7768 H       1  UNL1        0.0629
     47 H          -9.8306   -0.7653    0.5960 H       1  UNL1        0.0368
     48 H          -8.3837    0.3527    0.7487 H       1  UNL1        0.0368
     49 H          -8.6233   -0.9863    1.9631 H       1  UNL1        0.0368
     50 H          -5.6157   -2.5767    1.5762 H       1  UNL1        0.0632
     51 H          -3.7612   -2.2731    2.8658 H       1  UNL1        0.0278
     52 H          -2.6802   -3.1217    1.7735 H       1  UNL1        0.0278
     53 H          -2.2389   -1.4601    2.3307 H       1  UNL1        0.0278
     54 H           0.3785   -2.4694   -0.4120 H       1  UNL1        0.0456
     55 H          -1.3200   -2.8128   -0.1502 H       1  UNL1        0.0456
     56 H          -0.3314   -2.3768    1.2753 H       1  UNL1        0.0456
     57 H           1.5578   -1.2389   -2.0798 H       1  UNL1        0.0624
     58 H           3.9960   -1.6367   -1.9962 H       1  UNL1        0.0624
     59 H           6.0679   -1.3515   -0.9773 H       1  UNL1        0.0660
@<TRIPOS>BOND
     1     1     2    1
     2     2     3    1
     3     3     4   ar
     4     4     5   ar
     5     5     6   ar
     6     6     7   ar
     7     7     8   ar
     8     8     9    1
     9     9    10   ar
    10    10    11    1
    11    11    12   ar
    12    12    13   ar
    13    13    14   ar
    14    14    15   ar
    15    15    16   ar
    16    10    17   ar
    17    17    18   ar
    18    18    19    1
    19    19    20   ar
    20    20    21   ar
    21    21    22   ar
    22    22    23    1
    23    23    24    1
    24    23    25    2
    25    22    26   ar
    26    26    27   ar
    27    27    28    1
    28    18    29   ar
    29    29    30    1
    30     8    31   ar
    31    31    32   ar
    32    32    33   ar
    33    33    34   ar
    34    34     3   ar
    35    33     6   ar
    36    29     9   ar
    37    16    11   ar
    38    27    19   ar
    39     1    35    1
    40     1    36    1
    41     1    37    1
    42     4    38    1
    43     5    39    1
    44     7    40    1
    45    12    41    1
    46    13    42    1
    47    15    43    1
    48    16    44    1
    49    20    45    1
    50    21    46    1
    51    24    47    1
    52    24    48    1
    53    24    49    1
    54    26    50    1
    55    28    51    1
    56    28    52    1
    57    28    53    1
    58    30    54    1
    59    30    55    1
    60    30    56    1
    61    31    57    1
    62    32    58    1
    63    34    59    1
