
     RDKit          3D

 59 63  0  0  0  0  0  0  0  0999 V2000
    8.4540   -1.2856   -0.2032 C   0  0  0  0  0  0  0  0  0  0  0  0
    7.8688   -0.5067    0.8233 O   0  0  0  0  0  0  0  0  0  0  0  0
    6.5002   -0.2678    0.8027 C   0  0  0  0  0  0  0  0  0  0  0  0
    5.9255    0.4943    1.8064 C   0  0  0  0  0  0  0  0  0  0  0  0
    4.5647    0.7437    1.8025 C   0  0  0  0  0  0  0  0  0  0  0  0
    3.7573    0.2395    0.8024 C   0  0  0  0  0  0  0  0  0  0  0  0
    2.3975    0.4567    0.7532 C   0  0  0  0  0  0  0  0  0  0  0  0
    1.6149   -0.0633   -0.2600 C   0  0  0  0  0  0  0  0  0  0  0  0
    0.1997    0.1927   -0.2788 C   0  0  0  0  0  0  0  0  0  0  0  0
   -0.4250    1.3832   -0.5294 C   0  0  0  0  0  0  0  0  0  0  0  0
    0.1667    2.6788   -0.8449 C   0  0  0  0  0  0  0  0  0  0  0  0
    0.8979    2.9147   -1.9812 C   0  0  0  0  0  0  0  0  0  0  0  0
    1.4447    4.1778   -2.2299 C   0  0  0  0  0  0  0  0  0  0  0  0
    1.2549    5.1718   -1.3513 N   0  0  0  0  0  0  0  0  0  0  0  0
    0.5448    4.9457   -0.2465 C   0  0  0  0  0  0  0  0  0  0  0  0
   -0.0078    3.7158    0.0307 C   0  0  0  0  0  0  0  0  0  0  0  0
   -1.7311    1.1327   -0.4288 N   0  0  0  0  0  0  0  0  0  0  0  0
   -1.9851   -0.1812   -0.1194 C   0  0  0  0  0  0  0  0  0  0  0  0
   -3.3477   -0.6817   -0.0328 C   0  0  0  0  0  0  0  0  0  0  0  0
   -4.2576   -0.1568   -0.9727 C   0  0  0  0  0  0  0  0  0  0  0  0
   -5.5748   -0.4546   -1.0295 C   0  0  0  0  0  0  0  0  0  0  0  0
   -6.0650   -1.3491   -0.0852 C   0  0  0  0  0  0  0  0  0  0  0  0
   -7.7820   -1.7730   -0.1192 S   0  0  0  0  0  4  0  0  0  0  0  0
   -8.7656   -0.6705    0.8963 C   0  0  0  0  0  0  0  0  0  0  0  0
   -8.3520   -1.7618   -1.5262 O   0  0  0  0  0  0  0  0  0  0  0  0
   -5.2140   -1.8865    0.8538 C   0  0  0  0  0  0  0  0  0  0  0  0
   -3.8525   -1.5415    0.8691 C   0  0  0  0  0  0  0  0  0  0  0  0
   -3.0668   -2.1088    1.9710 C   0  0  0  0  0  0  0  0  0  0  0  0
   -0.7870   -0.7348   -0.0353 N   0  0  0  0  0  0  0  0  0  0  0  0
   -0.5124   -2.1512    0.2113 C   0  0  0  0  0  0  0  0  0  0  0  0
    2.1656   -0.8252   -1.2701 C   0  0  0  0  0  0  0  0  0  0  0  0
    3.5247   -1.0470   -1.2286 C   0  0  0  0  0  0  0  0  0  0  0  0
    4.2992   -0.5262   -0.2154 C   0  0  0  0  0  0  0  0  0  0  0  0
    5.6725   -0.7538   -0.1748 C   0  0  0  0  0  0  0  0  0  0  0  0
    8.0418   -0.8770   -1.1629 H   0  0  0  0  0  0  0  0  0  0  0  0
    8.1431   -2.3393   -0.0952 H   0  0  0  0  0  0  0  0  0  0  0  0
    9.5503   -1.2408   -0.1874 H   0  0  0  0  0  0  0  0  0  0  0  0
    6.5737    0.8813    2.5848 H   0  0  0  0  0  0  0  0  0  0  0  0
    4.1216    1.3437    2.5938 H   0  0  0  0  0  0  0  0  0  0  0  0
    1.9853    1.0593    1.5587 H   0  0  0  0  0  0  0  0  0  0  0  0
    1.0785    2.1495   -2.7171 H   0  0  0  0  0  0  0  0  0  0  0  0
    2.0204    4.3585   -3.1275 H   0  0  0  0  0  0  0  0  0  0  0  0
    0.3910    5.7481    0.4648 H   0  0  0  0  0  0  0  0  0  0  0  0
   -0.5730    3.5916    0.9419 H   0  0  0  0  0  0  0  0  0  0  0  0
   -3.8574    0.5386   -1.7006 H   0  0  0  0  0  0  0  0  0  0  0  0
   -6.2176   -0.0171   -1.7768 H   0  0  0  0  0  0  0  0  0  0  0  0
   -9.8306   -0.7653    0.5960 H   0  0  0  0  0  0  0  0  0  0  0  0
   -8.3837    0.3527    0.7487 H   0  0  0  0  0  0  0  0  0  0  0  0
   -8.6233   -0.9863    1.9631 H   0  0  0  0  0  0  0  0  0  0  0  0
   -5.6157   -2.5767    1.5762 H   0  0  0  0  0  0  0  0  0  0  0  0
   -3.7612   -2.2731    2.8658 H   0  0  0  0  0  0  0  0  0  0  0  0
   -2.6802   -3.1217    1.7735 H   0  0  0  0  0  0  0  0  0  0  0  0
   -2.2389   -1.4601    2.3307 H   0  0  0  0  0  0  0  0  0  0  0  0
    0.3785   -2.4694   -0.4120 H   0  0  0  0  0  0  0  0  0  0  0  0
   -1.3200   -2.8128   -0.1502 H   0  0  0  0  0  0  0  0  0  0  0  0
   -0.3314   -2.3768    1.2753 H   0  0  0  0  0  0  0  0  0  0  0  0
    1.5578   -1.2389   -2.0798 H   0  0  0  0  0  0  0  0  0  0  0  0
    3.9960   -1.6367   -1.9962 H   0  0  0  0  0  0  0  0  0  0  0  0
    6.0679   -1.3515   -0.9773 H   0  0  0  0  0  0  0  0  0  0  0  0
  1  2  1  0
  2  3  1  0
  3  4  2  0
  4  5  1  0
  5  6  2  0
  6  7  1  0
  7  8  2  0
  8  9  1  0
  9 10  2  0
 10 11  1  0
 11 12  2  0
 12 13  1  0
 13 14  2  0
 14 15  1  0
 15 16  2  0
 10 17  1  0
 17 18  2  0
 18 19  1  0
 19 20  2  0
 20 21  1  0
 21 22  2  0
 22 23  1  0
 23 24  1  0
 23 25  2  0
 22 26  1  0
 26 27  2  0
 27 28  1  0
 18 29  1  0
 29 30  1  0
  8 31  1  0
 31 32  2  0
 32 33  1  0
 33 34  2  0
 34  3  1  0
 33  6  1  0
 29  9  1  0
 16 11  1  0
 27 19  1  0
  1 35  1  0
  1 36  1  0
  1 37  1  0
  4 38  1  0
  5 39  1  0
  7 40  1  0
 12 41  1  0
 13 42  1  0
 15 43  1  0
 16 44  1  0
 20 45  1  0
 21 46  1  0
 24 47  1  0
 24 48  1  0
 24 49  1  0
 26 50  1  0
 28 51  1  0
 28 52  1  0
 28 53  1  0
 30 54  1  0
 30 55  1  0
 30 56  1  0
 31 57  1  0
 32 58  1  0
 34 59  1  0
M  END
$$$$
