@<TRIPOS>MOLECULE
*****
 44 46 0 0 0
SMALL
GASTEIGER

@<TRIPOS>ATOM
      1 C           5.8113    0.1298    2.1990 C.3     1  UNL1       -0.0638
      2 C           4.5769   -0.0297    1.3429 C.3     1  UNL1       -0.0364
      3 C           4.7973    0.6110   -0.0219 C.3     1  UNL1        0.0655
      4 S           3.3146    0.3835   -0.9614 S.O2    1  UNL1       -0.0308
      5 O           3.4191    0.8775   -2.3543 O.2     1  UNL1       -0.1743
      6 O           3.0058   -1.0897   -1.0018 O.2     1  UNL1       -0.1743
      7 C           1.9151    1.1603   -0.1401 C.3     1  UNL1        0.0687
      8 C           0.7332    0.8984   -1.0278 C.3     1  UNL1       -0.0183
      9 C           0.4182   -0.5661   -1.2562 C.3     1  UNL1       -0.0300
     10 C          -1.0415   -0.0903   -1.3296 C.3     1  UNL1        0.0251
     11 N          -1.9602   -1.0854   -0.8673 N.pl3   1  UNL1       -0.3146
     12 C          -1.9368   -2.3507   -1.6121 C.3     1  UNL1        0.0023
     13 C          -2.8551   -0.9805    0.1930 C.ar    1  UNL1        0.1337
     14 N          -2.8415   -1.7835    1.2666 N.ar    1  UNL1       -0.2200
     15 C          -3.7088   -1.6787    2.2900 C.ar    1  UNL1        0.1204
     16 N          -4.6520   -0.7273    2.2641 N.ar    1  UNL1       -0.2178
     17 C          -4.7384    0.1190    1.2293 C.ar    1  UNL1        0.1432
     18 N          -5.5671    1.1498    0.9415 N.ar    1  UNL1       -0.3457
     19 C          -5.2262    1.6850   -0.2446 C.ar    1  UNL1        0.0042
     20 C          -4.1396    0.9683   -0.7305 C.ar    1  UNL1       -0.0318
     21 C          -3.8310   -0.0072    0.1812 C.ar    1  UNL1        0.0585
     22 C          -0.6227    0.9541   -0.3197 C.3     1  UNL1       -0.0300
     23 H           6.6551    0.3822    1.5151 H       1  UNL1        0.0230
     24 H           5.6128    0.9073    2.9529 H       1  UNL1        0.0230
     25 H           5.9975   -0.8706    2.6779 H       1  UNL1        0.0230
     26 H           4.2913   -1.0875    1.1900 H       1  UNL1        0.0278
     27 H           3.7130    0.4832    1.8145 H       1  UNL1        0.0278
     28 H           5.6166    0.1412   -0.5726 H       1  UNL1        0.0500
     29 H           4.9710    1.6971    0.0998 H       1  UNL1        0.0500
     30 H           1.8298    0.7303    0.8572 H       1  UNL1        0.0502
     31 H           2.1467    2.2425   -0.1314 H       1  UNL1        0.0502
     32 H           0.7618    1.4974   -1.9385 H       1  UNL1        0.0318
     33 H           0.6239   -1.1266   -0.3057 H       1  UNL1        0.0286
     34 H           0.8019   -1.0090   -2.1722 H       1  UNL1        0.0286
     35 H          -1.1974    0.2884   -2.3610 H       1  UNL1        0.0500
     36 H          -0.8816   -2.6773   -1.7237 H       1  UNL1        0.0428
     37 H          -2.3502   -2.2309   -2.6208 H       1  UNL1        0.0428
     38 H          -2.4939   -3.1382   -1.0989 H       1  UNL1        0.0428
     39 H          -3.6436   -2.3676    3.1392 H       1  UNL1        0.1048
     40 H          -6.3591    1.5088    1.5180 H       1  UNL1        0.1668
     41 H          -5.6714    2.5153   -0.7752 H       1  UNL1        0.0807
     42 H          -3.5941    1.1086   -1.6546 H       1  UNL1        0.0640
     43 H          -1.1177    1.9356   -0.4220 H       1  UNL1        0.0286
     44 H          -0.5832    0.5223    0.6881 H       1  UNL1        0.0286
@<TRIPOS>BOND
     1     1     2    1
     2     2     3    1
     3     3     4    1
     4     4     5    2
     5     4     6    2
     6     4     7    1
     7     7     8    1
     8     8     9    1
     9     9    10    1
    10    10    11    1
    11    11    12    1
    12    11    13    1
    13    13    14   ar
    14    14    15   ar
    15    15    16   ar
    16    16    17   ar
    17    17    18   ar
    18    18    19   ar
    19    19    20   ar
    20    20    21   ar
    21    10    22    1
    22    22     8    1
    23    21    13   ar
    24    21    17   ar
    25     1    23    1
    26     1    24    1
    27     1    25    1
    28     2    26    1
    29     2    27    1
    30     3    28    1
    31     3    29    1
    32     7    30    1
    33     7    31    1
    34     8    32    1
    35     9    33    1
    36     9    34    1
    37    10    35    1
    38    12    36    1
    39    12    37    1
    40    12    38    1
    41    15    39    1
    42    18    40    1
    43    19    41    1
    44    20    42    1
    45    22    43    1
    46    22    44    1
