
     RDKit          3D

 59 62  0  0  0  0  0  0  0  0999 V2000
   -3.5662   -3.2425    1.2524 C   0  0  0  0  0  0  0  0  0  0  0  0
   -4.2447   -3.5243    0.0310 N   0  0  0  0  0  0  0  0  0  0  0  0
   -4.6509   -4.9119   -0.1062 C   0  0  0  0  0  0  0  0  0  0  0  0
   -3.3567   -2.9994   -1.3198 S   0  0  0  0  0  0  0  0  0  0  0  0
   -4.0055   -3.3950   -2.6139 O   0  0  0  0  0  0  0  0  0  0  0  0
   -1.9758   -3.6324   -1.3351 O   0  0  0  0  0  0  0  0  0  0  0  0
   -3.1316   -1.2691   -1.2634 C   0  0  0  0  0  0  0  0  0  0  0  0
   -2.0793   -0.4744   -0.7891 C   0  0  0  0  0  0  0  0  0  0  0  0
   -2.0910    0.9014   -0.8289 C   0  0  0  0  0  0  0  0  0  0  0  0
   -3.2075    1.4630   -1.3585 C   0  0  0  0  0  0  0  0  0  0  0  0
   -3.2811    3.2390   -1.3600 S   0  0  0  0  0  0  0  0  0  0  0  0
   -1.8811    3.7996   -0.3989 C   0  0  0  0  0  0  0  0  0  0  0  0
   -1.9032    5.1436   -0.1947 C   0  0  0  0  0  0  0  0  0  0  0  0
   -0.8518    5.7340    0.4925 C   0  0  0  0  0  0  0  0  0  0  0  0
    0.1713    4.9376    0.9400 C   0  0  0  0  0  0  0  0  0  0  0  0
    0.1032    3.5851    0.6848 C   0  0  0  0  0  0  0  0  0  0  0  0
   -0.9020    2.9294    0.0140 C   0  0  0  0  0  0  0  0  0  0  0  0
   -0.9616    1.5074   -0.1808 C   0  0  0  0  0  0  0  0  0  0  0  0
    0.1634    0.8326   -0.0017 C   0  0  0  0  0  0  0  0  0  0  0  0
    0.5852   -0.5318   -0.3664 C   0  0  0  0  0  0  0  0  0  0  0  0
    2.0425   -0.2546   -0.9356 C   0  0  0  0  0  0  0  0  0  0  0  0
    2.7303    0.3258    0.1728 N   0  0  0  0  0  0  0  0  0  0  0  0
    2.9582   -0.5824    1.2480 C   0  0  0  0  0  0  0  0  0  0  0  0
    4.1947   -0.1669    2.0000 C   0  0  0  0  0  0  0  0  0  0  0  0
    5.3452   -0.2159    1.1234 N   0  0  0  0  0  0  0  0  0  0  0  0
    5.5941   -1.5862    0.7151 C   0  0  0  0  0  0  0  0  0  0  0  0
    5.1740    0.5716   -0.0620 C   0  0  0  0  0  0  0  0  0  0  0  0
    3.8030    1.2089   -0.1443 C   0  0  0  0  0  0  0  0  0  0  0  0
   -4.2733    0.8113   -1.8411 C   0  0  0  0  0  0  0  0  0  0  0  0
   -4.2373   -0.5869   -1.7952 C   0  0  0  0  0  0  0  0  0  0  0  0
   -2.7549   -2.5084    1.1418 H   0  0  0  0  0  0  0  0  0  0  0  0
   -4.3234   -2.8283    1.9673 H   0  0  0  0  0  0  0  0  0  0  0  0
   -3.1537   -4.1923    1.6879 H   0  0  0  0  0  0  0  0  0  0  0  0
   -3.9854   -5.4020   -0.8414 H   0  0  0  0  0  0  0  0  0  0  0  0
   -4.6567   -5.4218    0.8811 H   0  0  0  0  0  0  0  0  0  0  0  0
   -5.6997   -4.8704   -0.5021 H   0  0  0  0  0  0  0  0  0  0  0  0
   -1.4605   -1.2428   -0.3852 H   0  0  0  0  0  0  0  0  0  0  0  0
   -2.6671    5.8380   -0.5131 H   0  0  0  0  0  0  0  0  0  0  0  0
   -0.8213    6.7966    0.6814 H   0  0  0  0  0  0  0  0  0  0  0  0
    0.9783    5.4186    1.4713 H   0  0  0  0  0  0  0  0  0  0  0  0
    0.9578    3.0618    1.0879 H   0  0  0  0  0  0  0  0  0  0  0  0
    0.9815    1.2983    0.5295 H   0  0  0  0  0  0  0  0  0  0  0  0
    0.1989   -0.9112   -1.3516 H   0  0  0  0  0  0  0  0  0  0  0  0
    0.7790   -1.2414    0.4036 H   0  0  0  0  0  0  0  0  0  0  0  0
    1.9463    0.3872   -1.8056 H   0  0  0  0  0  0  0  0  0  0  0  0
    2.4229   -1.2668   -1.1702 H   0  0  0  0  0  0  0  0  0  0  0  0
    2.9670   -1.6483    0.9381 H   0  0  0  0  0  0  0  0  0  0  0  0
    2.1021   -0.4787    1.9474 H   0  0  0  0  0  0  0  0  0  0  0  0
    4.3686   -0.7980    2.8953 H   0  0  0  0  0  0  0  0  0  0  0  0
    4.0446    0.8897    2.3034 H   0  0  0  0  0  0  0  0  0  0  0  0
    6.5226   -1.5796    0.0750 H   0  0  0  0  0  0  0  0  0  0  0  0
    4.7879   -1.9340    0.0644 H   0  0  0  0  0  0  0  0  0  0  0  0
    5.7066   -2.2632    1.5824 H   0  0  0  0  0  0  0  0  0  0  0  0
    5.3599    0.0045   -0.9754 H   0  0  0  0  0  0  0  0  0  0  0  0
    5.9074    1.4020   -0.0180 H   0  0  0  0  0  0  0  0  0  0  0  0
    3.6810    1.6088   -1.1570 H   0  0  0  0  0  0  0  0  0  0  0  0
    3.8044    2.0171    0.6275 H   0  0  0  0  0  0  0  0  0  0  0  0
   -5.1300    1.3228   -2.2510 H   0  0  0  0  0  0  0  0  0  0  0  0
   -5.1287   -1.0748   -2.2061 H   0  0  0  0  0  0  0  0  0  0  0  0
  1  2  1  0
  2  3  1  0
  2  4  1  0
  4  5  2  0
  4  6  2  0
  4  7  1  0
  7  8  2  0
  8  9  1  0
  9 10  2  0
 10 11  1  0
 11 12  1  0
 12 13  2  0
 13 14  1  0
 14 15  2  0
 15 16  1  0
 16 17  2  0
 17 18  1  0
 18 19  2  0
 19 20  1  0
 20 21  1  0
 21 22  1  0
 22 23  1  0
 23 24  1  0
 24 25  1  0
 25 26  1  0
 25 27  1  0
 27 28  1  0
 10 29  1  0
 29 30  2  0
 30  7  1  0
 18  9  1  0
 28 22  1  0
 17 12  1  0
  1 31  1  0
  1 32  1  0
  1 33  1  0
  3 34  1  0
  3 35  1  0
  3 36  1  0
  8 37  1  0
 13 38  1  0
 14 39  1  0
 15 40  1  0
 16 41  1  0
 19 42  1  0
 20 43  1  0
 20 44  1  0
 21 45  1  0
 21 46  1  0
 23 47  1  0
 23 48  1  0
 24 49  1  0
 24 50  1  0
 26 51  1  0
 26 52  1  0
 26 53  1  0
 27 54  1  0
 27 55  1  0
 28 56  1  0
 28 57  1  0
 29 58  1  0
 30 59  1  0
M  END
$$$$
