@<TRIPOS>MOLECULE
*****
 59 62 0 0 0
SMALL
GASTEIGER

@<TRIPOS>ATOM
      1 C          -3.5662   -3.2425    1.2524 C.3     1  UNL1        0.0086
      2 N          -4.2447   -3.5243    0.0310 N.3     1  UNL1       -0.1827
      3 C          -4.6509   -4.9119   -0.1062 C.3     1  UNL1        0.0086
      4 S          -3.3567   -2.9994   -1.3198 S.O2    1  UNL1        0.0604
      5 O          -4.0055   -3.3950   -2.6139 O.2     1  UNL1       -0.1529
      6 O          -1.9758   -3.6324   -1.3351 O.2     1  UNL1       -0.1529
      7 C          -3.1316   -1.2691   -1.2634 C.ar    1  UNL1        0.1061
      8 C          -2.0793   -0.4744   -0.7891 C.ar    1  UNL1       -0.0266
      9 C          -2.0910    0.9014   -0.8289 C.ar    1  UNL1       -0.0020
     10 C          -3.2075    1.4630   -1.3585 C.ar    1  UNL1        0.0206
     11 S          -3.2811    3.2390   -1.3600 S.3     1  UNL1       -0.0882
     12 C          -1.8811    3.7996   -0.3989 C.ar    1  UNL1        0.0205
     13 C          -1.9032    5.1436   -0.1947 C.ar    1  UNL1       -0.0474
     14 C          -0.8518    5.7340    0.4925 C.ar    1  UNL1       -0.0607
     15 C           0.1713    4.9376    0.9400 C.ar    1  UNL1       -0.0611
     16 C           0.1032    3.5851    0.6848 C.ar    1  UNL1       -0.0530
     17 C          -0.9020    2.9294    0.0140 C.ar    1  UNL1       -0.0038
     18 C          -0.9616    1.5074   -0.1808 C.2     1  UNL1       -0.0124
     19 C           0.1634    0.8326   -0.0017 C.2     1  UNL1       -0.0745
     20 C           0.5852   -0.5318   -0.3664 C.3     1  UNL1       -0.0211
     21 C           2.0425   -0.2546   -0.9356 C.3     1  UNL1        0.0024
     22 N           2.7303    0.3258    0.1728 N.3     1  UNL1       -0.2996
     23 C           2.9582   -0.5824    1.2480 C.3     1  UNL1        0.0117
     24 C           4.1947   -0.1669    2.0000 C.3     1  UNL1        0.0114
     25 N           5.3452   -0.2159    1.1234 N.3     1  UNL1       -0.3029
     26 C           5.5941   -1.5862    0.7151 C.3     1  UNL1       -0.0127
     27 C           5.1740    0.5716   -0.0620 C.3     1  UNL1        0.0114
     28 C           3.8030    1.2089   -0.1443 C.3     1  UNL1        0.0117
     29 C          -4.2733    0.8113   -1.8411 C.ar    1  UNL1       -0.0455
     30 C          -4.2373   -0.5869   -1.7952 C.ar    1  UNL1       -0.0343
     31 H          -2.7549   -2.5084    1.1418 H       1  UNL1        0.0408
     32 H          -4.3234   -2.8283    1.9673 H       1  UNL1        0.0408
     33 H          -3.1537   -4.1923    1.6879 H       1  UNL1        0.0408
     34 H          -3.9854   -5.4020   -0.8414 H       1  UNL1        0.0408
     35 H          -4.6567   -5.4218    0.8811 H       1  UNL1        0.0408
     36 H          -5.6997   -4.8704   -0.5021 H       1  UNL1        0.0408
     37 H          -1.4605   -1.2428   -0.3852 H       1  UNL1        0.0643
     38 H          -2.6671    5.8380   -0.5131 H       1  UNL1        0.0629
     39 H          -0.8213    6.7966    0.6814 H       1  UNL1        0.0618
     40 H           0.9783    5.4186    1.4713 H       1  UNL1        0.0618
     41 H           0.9578    3.0618    1.0879 H       1  UNL1        0.0624
     42 H           0.9815    1.2983    0.5295 H       1  UNL1        0.0579
     43 H           0.1989   -0.9112   -1.3516 H       1  UNL1        0.0320
     44 H           0.7790   -1.2414    0.4036 H       1  UNL1        0.0320
     45 H           1.9463    0.3872   -1.8056 H       1  UNL1        0.0429
     46 H           2.4229   -1.2668   -1.1702 H       1  UNL1        0.0429
     47 H           2.9670   -1.6483    0.9381 H       1  UNL1        0.0439
     48 H           2.1021   -0.4787    1.9474 H       1  UNL1        0.0439
     49 H           4.3686   -0.7980    2.8953 H       1  UNL1        0.0439
     50 H           4.0446    0.8897    2.3034 H       1  UNL1        0.0439
     51 H           6.5226   -1.5796    0.0750 H       1  UNL1        0.0391
     52 H           4.7879   -1.9340    0.0644 H       1  UNL1        0.0391
     53 H           5.7066   -2.2632    1.5824 H       1  UNL1        0.0391
     54 H           5.3599    0.0045   -0.9754 H       1  UNL1        0.0439
     55 H           5.9074    1.4020   -0.0180 H       1  UNL1        0.0439
     56 H           3.6810    1.6088   -1.1570 H       1  UNL1        0.0439
     57 H           3.8044    2.0171    0.6275 H       1  UNL1        0.0439
     58 H          -5.1300    1.3228   -2.2510 H       1  UNL1        0.0629
     59 H          -5.1287   -1.0748   -2.2061 H       1  UNL1        0.0637
@<TRIPOS>BOND
     1     1     2    1
     2     2     3    1
     3     2     4    1
     4     4     5    2
     5     4     6    2
     6     4     7    1
     7     7     8   ar
     8     8     9   ar
     9     9    10   ar
    10    10    11    1
    11    11    12    1
    12    12    13   ar
    13    13    14   ar
    14    14    15   ar
    15    15    16   ar
    16    16    17   ar
    17    17    18    1
    18    18    19    2
    19    19    20    1
    20    20    21    1
    21    21    22    1
    22    22    23    1
    23    23    24    1
    24    24    25    1
    25    25    26    1
    26    25    27    1
    27    27    28    1
    28    10    29   ar
    29    29    30   ar
    30    30     7   ar
    31    18     9    1
    32    28    22    1
    33    17    12   ar
    34     1    31    1
    35     1    32    1
    36     1    33    1
    37     3    34    1
    38     3    35    1
    39     3    36    1
    40     8    37    1
    41    13    38    1
    42    14    39    1
    43    15    40    1
    44    16    41    1
    45    19    42    1
    46    20    43    1
    47    20    44    1
    48    21    45    1
    49    21    46    1
    50    23    47    1
    51    23    48    1
    52    24    49    1
    53    24    50    1
    54    26    51    1
    55    26    52    1
    56    26    53    1
    57    27    54    1
    58    27    55    1
    59    28    56    1
    60    28    57    1
    61    29    58    1
    62    30    59    1
