@<TRIPOS>MOLECULE
*****
 29 30 0 0 0
SMALL
GASTEIGER

@<TRIPOS>ATOM
      1 N4         -4.9129   -1.4311    0.5097 N.pl3   1    C1       -0.3430
      2 C4         -3.5647   -1.1221    0.2126 C.ar    1    C1        0.1230
      3 N3         -3.2388   -0.9455   -1.0778 N.ar    1    C1       -0.1783
      4 C2         -1.9421   -0.6469   -1.3799 C.ar    1    C1        0.3521
      5 O2         -1.5884   -0.4722   -2.5765 O.2     1    C1       -0.2444
      6 N1         -1.0672   -0.5493   -0.3419 N.ar    1    C1       -0.2725
      7 C6         -1.3748   -0.7208    0.9335 C.ar    1    C1        0.0151
      8 C5         -2.6827   -1.0243    1.2668 C.ar    1    C1       -0.0056
      9 C1*         0.2896   -0.2330   -0.7034 C.3     1    C1        0.1423
     10 C2*         0.5406    1.2786   -0.6326 C.3     1    C1        0.0214
     11 C3*         2.0624    1.2526   -0.7921 C.3     1    C1        0.0876
     12 O3*         2.2836    1.1367   -2.1703 O.3     1    C1       -0.3890
     13 C4*         2.3891   -0.0283   -0.0513 C.3     1    C1        0.1100
     14 C5*         3.0252    0.3576    1.2758 C.3     1    C1        0.0729
     15 O5*         4.2226    1.0429    1.0975 O.3     1    C1       -0.3924
     16 O4*         1.2170   -0.6980    0.1976 O.3     1    C1       -0.3483
     17 H41        -5.7548   -2.0447    0.4548 H       1    C1        0.1437
     18 H42        -5.3752   -0.7003    1.0899 H       1    C1        0.1437
     19 H6         -0.6321   -0.6305    1.7257 H       1    C1        0.0812
     20 H5         -3.0272   -1.1815    2.2775 H       1    C1        0.0666
     21 H1*         0.5383   -0.6066   -1.6978 H       1    C1        0.0840
     22 H2*1        0.3215    1.6461    0.3830 H       1    C1        0.0335
     23 H2*2        0.0309    1.8306   -1.4313 H       1    C1        0.0335
     24 H3*         2.5401    2.1408   -0.3553 H       1    C1        0.0621
     25 H3*         2.9336    0.4284   -2.4043 H       1    C1        0.2099
     26 H4*         3.0967   -0.6361   -0.6712 H       1    C1        0.0646
     27 H5*1        2.3236    1.0697    1.7680 H       1    C1        0.0584
     28 H5*2        3.2186   -0.5425    1.9027 H       1    C1        0.0584
     29 H5*         4.1277    2.0296    1.1905 H       1    C1        0.2095
@<TRIPOS>BOND
     1     1     2    1
     2     2     3   ar
     3     3     4   ar
     4     4     5    2
     5     4     6   ar
     6     6     7   ar
     7     7     8   ar
     8     6     9    1
     9     9    10    1
    10    10    11    1
    11    11    12    1
    12    11    13    1
    13    13    14    1
    14    14    15    1
    15    13    16    1
    16     8     2   ar
    17    16     9    1
    18     1    17    1
    19     1    18    1
    20     7    19    1
    21     8    20    1
    22     9    21    1
    23    10    22    1
    24    10    23    1
    25    11    24    1
    26    12    25    1
    27    13    26    1
    28    14    27    1
    29    14    28    1
    30    15    29    1
