@<TRIPOS>MOLECULE
*****
 43 46 0 0 0
SMALL
GASTEIGER

@<TRIPOS>ATOM
      1 C          -2.5194   -2.1588   -1.1614 C.3     1  UNL1       -0.0443
      2 C          -2.9055   -1.4017    0.1061 C.3     1  UNL1        0.0454
      3 C          -4.3016   -1.8830    0.4712 C.3     1  UNL1        0.0660
      4 O          -5.0052   -0.9749    1.2089 O.3     1  UNL1       -0.3764
      5 C          -5.1444    0.2694    0.6694 C.3     1  UNL1        0.0634
      6 C          -4.2449    0.5898   -0.4744 C.3     1  UNL1        0.0373
      7 N          -2.9554   -0.0040   -0.2291 N.pl3   1  UNL1       -0.3079
      8 C          -1.8004    0.8109   -0.3284 C.ar    1  UNL1        0.1273
      9 C          -0.5301    0.2718   -0.0969 C.ar    1  UNL1        0.0045
     10 C           0.5912    1.0295   -0.1854 C.ar    1  UNL1        0.0779
     11 C           1.9391    0.5266    0.0438 C.ar    1  UNL1        0.0027
     12 C           3.0224    1.3869   -0.0721 C.ar    1  UNL1       -0.0518
     13 C           4.3235    0.9774    0.1311 C.ar    1  UNL1       -0.0486
     14 C           4.5731   -0.3351    0.4629 C.ar    1  UNL1        0.0410
     15 C           5.7427   -0.9915    0.7140 C.ar    1  UNL1        0.1193
     16 N           7.0674   -0.4757    0.6995 N.pl3   1  UNL1       -0.3430
     17 N           5.3871   -2.2695    0.9883 N.ar    1  UNL1       -0.2634
     18 N           4.0550   -2.3872    0.9077 N.ar    1  UNL1       -0.1722
     19 C           3.5121   -1.2178    0.5859 C.ar    1  UNL1        0.0950
     20 C           2.2032   -0.7779    0.3749 C.ar    1  UNL1       -0.0247
     21 N           0.4297    2.3434   -0.5104 N.ar    1  UNL1       -0.2146
     22 C          -0.7710    2.8943   -0.7390 C.ar    1  UNL1        0.2148
     23 N          -0.8146    4.2752   -1.0702 N.pl3   1  UNL1       -0.3274
     24 N          -1.8503    2.1102   -0.6408 N.ar    1  UNL1       -0.1997
     25 H          -1.4838   -2.5617   -1.0937 H       1  UNL1        0.0248
     26 H          -2.5856   -1.5273   -2.0613 H       1  UNL1        0.0248
     27 H          -3.1742   -3.0431   -1.3279 H       1  UNL1        0.0248
     28 H          -2.1782   -1.6127    0.9111 H       1  UNL1        0.0520
     29 H          -4.8475   -2.2440   -0.4433 H       1  UNL1        0.0578
     30 H          -4.1576   -2.7939    1.1004 H       1  UNL1        0.0578
     31 H          -6.1938    0.5126    0.3695 H       1  UNL1        0.0575
     32 H          -4.9129    1.0142    1.4867 H       1  UNL1        0.0575
     33 H          -4.1693    1.7153   -0.5340 H       1  UNL1        0.0487
     34 H          -4.7080    0.2182   -1.4179 H       1  UNL1        0.0487
     35 H          -0.4677   -0.7844    0.1588 H       1  UNL1        0.0673
     36 H           2.8658    2.4205   -0.3302 H       1  UNL1        0.0624
     37 H           5.1691    1.6425    0.0421 H       1  UNL1        0.0625
     38 H           7.2874    0.4349    0.2530 H       1  UNL1        0.1437
     39 H           7.8467   -1.0091    1.1415 H       1  UNL1        0.1437
     40 H           6.0276   -3.0526    1.2264 H       1  UNL1        0.1903
     41 H           1.3927   -1.4697    0.4730 H       1  UNL1        0.0646
     42 H          -1.3770    4.5183   -1.9342 H       1  UNL1        0.1452
     43 H          -0.3376    5.0137   -0.5207 H       1  UNL1        0.1452
@<TRIPOS>BOND
     1     1     2    1
     2     2     3    1
     3     3     4    1
     4     4     5    1
     5     5     6    1
     6     6     7    1
     7     7     8    1
     8     8     9   ar
     9     9    10   ar
    10    10    11    1
    11    11    12   ar
    12    12    13   ar
    13    13    14   ar
    14    14    15   ar
    15    15    16    1
    16    15    17   ar
    17    17    18   ar
    18    18    19   ar
    19    19    20   ar
    20    10    21   ar
    21    21    22   ar
    22    22    23    1
    23    22    24   ar
    24     7     2    1
    25    24     8   ar
    26    20    11   ar
    27    19    14   ar
    28     1    25    1
    29     1    26    1
    30     1    27    1
    31     2    28    1
    32     3    29    1
    33     3    30    1
    34     5    31    1
    35     5    32    1
    36     6    33    1
    37     6    34    1
    38     9    35    1
    39    12    36    1
    40    13    37    1
    41    16    38    1
    42    16    39    1
    43    17    40    1
    44    20    41    1
    45    23    42    1
    46    23    43    1
