
     RDKit          3D

 43 46  0  0  0  0  0  0  0  0999 V2000
   -2.5194   -2.1588   -1.1614 C   0  0  0  0  0  0  0  0  0  0  0  0
   -2.9055   -1.4017    0.1061 C   0  0  2  0  0  0  0  0  0  0  0  0
   -4.3016   -1.8830    0.4712 C   0  0  0  0  0  0  0  0  0  0  0  0
   -5.0052   -0.9749    1.2089 O   0  0  0  0  0  0  0  0  0  0  0  0
   -5.1444    0.2694    0.6694 C   0  0  0  0  0  0  0  0  0  0  0  0
   -4.2449    0.5898   -0.4744 C   0  0  0  0  0  0  0  0  0  0  0  0
   -2.9554   -0.0040   -0.2291 N   0  0  0  0  0  0  0  0  0  0  0  0
   -1.8004    0.8109   -0.3284 C   0  0  0  0  0  0  0  0  0  0  0  0
   -0.5301    0.2718   -0.0969 C   0  0  0  0  0  0  0  0  0  0  0  0
    0.5912    1.0295   -0.1854 C   0  0  0  0  0  0  0  0  0  0  0  0
    1.9391    0.5266    0.0438 C   0  0  0  0  0  0  0  0  0  0  0  0
    3.0224    1.3869   -0.0721 C   0  0  0  0  0  0  0  0  0  0  0  0
    4.3235    0.9774    0.1311 C   0  0  0  0  0  0  0  0  0  0  0  0
    4.5731   -0.3351    0.4629 C   0  0  0  0  0  0  0  0  0  0  0  0
    5.7427   -0.9915    0.7140 C   0  0  0  0  0  0  0  0  0  0  0  0
    7.0674   -0.4757    0.6995 N   0  0  0  0  0  0  0  0  0  0  0  0
    5.3871   -2.2695    0.9883 N   0  0  0  0  0  0  0  0  0  0  0  0
    4.0550   -2.3872    0.9077 N   0  0  0  0  0  0  0  0  0  0  0  0
    3.5121   -1.2178    0.5859 C   0  0  0  0  0  0  0  0  0  0  0  0
    2.2032   -0.7779    0.3749 C   0  0  0  0  0  0  0  0  0  0  0  0
    0.4297    2.3434   -0.5104 N   0  0  0  0  0  0  0  0  0  0  0  0
   -0.7710    2.8943   -0.7390 C   0  0  0  0  0  0  0  0  0  0  0  0
   -0.8146    4.2752   -1.0702 N   0  0  0  0  0  0  0  0  0  0  0  0
   -1.8503    2.1102   -0.6408 N   0  0  0  0  0  0  0  0  0  0  0  0
   -1.4838   -2.5617   -1.0937 H   0  0  0  0  0  0  0  0  0  0  0  0
   -2.5856   -1.5273   -2.0613 H   0  0  0  0  0  0  0  0  0  0  0  0
   -3.1742   -3.0431   -1.3279 H   0  0  0  0  0  0  0  0  0  0  0  0
   -2.1782   -1.6127    0.9111 H   0  0  0  0  0  0  0  0  0  0  0  0
   -4.8475   -2.2440   -0.4433 H   0  0  0  0  0  0  0  0  0  0  0  0
   -4.1576   -2.7939    1.1004 H   0  0  0  0  0  0  0  0  0  0  0  0
   -6.1938    0.5126    0.3695 H   0  0  0  0  0  0  0  0  0  0  0  0
   -4.9129    1.0142    1.4867 H   0  0  0  0  0  0  0  0  0  0  0  0
   -4.1693    1.7153   -0.5340 H   0  0  0  0  0  0  0  0  0  0  0  0
   -4.7080    0.2182   -1.4179 H   0  0  0  0  0  0  0  0  0  0  0  0
   -0.4677   -0.7844    0.1588 H   0  0  0  0  0  0  0  0  0  0  0  0
    2.8658    2.4205   -0.3302 H   0  0  0  0  0  0  0  0  0  0  0  0
    5.1691    1.6425    0.0421 H   0  0  0  0  0  0  0  0  0  0  0  0
    7.2874    0.4349    0.2530 H   0  0  0  0  0  0  0  0  0  0  0  0
    7.8467   -1.0091    1.1415 H   0  0  0  0  0  0  0  0  0  0  0  0
    6.0276   -3.0526    1.2264 H   0  0  0  0  0  0  0  0  0  0  0  0
    1.3927   -1.4697    0.4730 H   0  0  0  0  0  0  0  0  0  0  0  0
   -1.3770    4.5183   -1.9342 H   0  0  0  0  0  0  0  0  0  0  0  0
   -0.3376    5.0137   -0.5207 H   0  0  0  0  0  0  0  0  0  0  0  0
  1  2  1  0
  2  3  1  0
  3  4  1  0
  4  5  1  0
  5  6  1  0
  6  7  1  0
  7  8  1  0
  8  9  2  0
  9 10  1  0
 10 11  1  0
 11 12  1  0
 12 13  2  0
 13 14  1  0
 14 15  2  0
 15 16  1  0
 15 17  1  0
 17 18  1  0
 18 19  2  0
 19 20  1  0
 10 21  2  0
 21 22  1  0
 22 23  1  0
 22 24  2  0
  7  2  1  0
 24  8  1  0
 20 11  2  0
 19 14  1  0
  1 25  1  0
  1 26  1  0
  1 27  1  0
  2 28  1  1
  3 29  1  0
  3 30  1  0
  5 31  1  0
  5 32  1  0
  6 33  1  0
  6 34  1  0
  9 35  1  0
 12 36  1  0
 13 37  1  0
 16 38  1  0
 16 39  1  0
 17 40  1  0
 20 41  1  0
 23 42  1  0
 23 43  1  0
M  END
$$$$
