@<TRIPOS>MOLECULE
*****
 45 46 0 0 0
SMALL
GASTEIGER

@<TRIPOS>ATOM
      1 C           7.6767   -0.5173   -0.5682 C.3     1  UNL1       -0.0653
      2 C           6.4839    0.4267   -0.4318 C.3     1  UNL1       -0.0558
      3 C           5.2163   -0.2802   -0.7703 C.3     1  UNL1       -0.0505
      4 C           4.0431    0.6386   -0.6510 C.3     1  UNL1       -0.0222
      5 C           3.9433    1.1527    0.7632 C.3     1  UNL1        0.0647
      6 N           2.7916    2.0300    0.8790 N.pl3   1  UNL1       -0.2743
      7 C           1.4379    1.5415    0.7841 C.cat   1  UNL1        0.4020
      8 N           1.2161    0.2791    0.9170 N.pl3   1  UNL1       -0.1279
      9 N           0.3055    2.3986    0.5486 N.pl3   1  UNL1       -0.1548
     10 N          -0.9181    1.9183    1.0236 N.2     1  UNL1       -0.1192
     11 C          -1.7267    1.1725    0.3923 C.2     1  UNL1        0.0717
     12 C          -2.9791    0.7348    1.0001 C.ar    1  UNL1        0.0211
     13 C          -3.3844    1.0887    2.2885 C.ar    1  UNL1        0.0114
     14 N          -4.5870    0.4870    2.4791 N.ar    1  UNL1       -0.3600
     15 C          -4.9035   -0.1998    1.3667 C.ar    1  UNL1        0.0473
     16 C          -3.9297   -0.0854    0.3925 C.ar    1  UNL1        0.0118
     17 C          -4.0405   -0.7014   -0.8221 C.ar    1  UNL1       -0.0102
     18 C          -5.1466   -1.4813   -1.1442 C.ar    1  UNL1        0.1208
     19 O          -5.2131   -2.0809   -2.3787 O.3     1  UNL1       -0.4951
     20 C          -6.3706   -2.8714   -2.6603 C.3     1  UNL1        0.0788
     21 C          -6.0869   -1.5684   -0.1526 C.ar    1  UNL1       -0.0180
     22 C          -6.0316   -0.9720    1.0889 C.ar    1  UNL1       -0.0343
     23 H           7.5575   -1.0181   -1.5375 H       1  UNL1        0.0230
     24 H           7.6903   -1.1859    0.3136 H       1  UNL1        0.0230
     25 H           8.5927    0.0956   -0.5137 H       1  UNL1        0.0230
     26 H           6.5145    0.7749    0.6065 H       1  UNL1        0.0263
     27 H           6.6572    1.2516   -1.1323 H       1  UNL1        0.0263
     28 H           5.0772   -1.1720   -0.0992 H       1  UNL1        0.0266
     29 H           5.2134   -0.6711   -1.8157 H       1  UNL1        0.0266
     30 H           3.0963    0.1205   -0.9519 H       1  UNL1        0.0296
     31 H           4.1596    1.5327   -1.3022 H       1  UNL1        0.0296
     32 H           4.8326    1.7874    0.9909 H       1  UNL1        0.0655
     33 H           3.8225    0.3413    1.4883 H       1  UNL1        0.0655
     34 H           2.8824    3.0731    1.0377 H       1  UNL1        0.2579
     35 H           1.9772   -0.4069    1.0912 H       1  UNL1        0.3063
     36 H           0.5491    3.2995    0.0368 H       1  UNL1        0.2922
     37 H          -1.4597    0.8735   -0.6068 H       1  UNL1        0.0867
     38 H          -2.8055    1.7192    2.9473 H       1  UNL1        0.0813
     39 H          -5.1135    0.5915    3.3706 H       1  UNL1        0.1654
     40 H          -3.2331   -0.5735   -1.5571 H       1  UNL1        0.0661
     41 H          -6.3537   -3.8137   -2.0446 H       1  UNL1        0.0660
     42 H          -7.2945   -2.3358   -2.3971 H       1  UNL1        0.0660
     43 H          -6.3612   -3.1870   -3.7246 H       1  UNL1        0.0660
     44 H          -6.9714   -2.1681   -0.3573 H       1  UNL1        0.0655
     45 H          -6.8266   -1.0984    1.8128 H       1  UNL1        0.0639
@<TRIPOS>BOND
     1     1     2    1
     2     2     3    1
     3     3     4    1
     4     4     5    1
     5     5     6    1
     6     6     7    1
     7     7     8    2
     8     7     9    1
     9     9    10    1
    10    10    11    2
    11    11    12    1
    12    12    13   ar
    13    13    14   ar
    14    14    15   ar
    15    15    16   ar
    16    16    17   ar
    17    17    18   ar
    18    18    19    1
    19    19    20    1
    20    18    21   ar
    21    21    22   ar
    22    16    12   ar
    23    22    15   ar
    24     1    23    1
    25     1    24    1
    26     1    25    1
    27     2    26    1
    28     2    27    1
    29     3    28    1
    30     3    29    1
    31     4    30    1
    32     4    31    1
    33     5    32    1
    34     5    33    1
    35     6    34    1
    36     8    35    1
    37     9    36    1
    38    11    37    1
    39    13    38    1
    40    14    39    1
    41    17    40    1
    42    20    41    1
    43    20    42    1
    44    20    43    1
    45    21    44    1
    46    22    45    1
