
     RDKit          3D

 73 77  0  0  0  0  0  0  0  0999 V2000
   -6.5682    3.3072   -0.3496 C   0  0  0  0  0  0  0  0  0  0  0  0
   -5.1646    2.8933   -0.0211 C   0  0  0  0  0  0  0  0  0  0  0  0
   -5.1799    1.5955    0.7797 C   0  0  2  0  0  0  0  0  0  0  0  0
   -3.7585    1.2182    1.1086 C   0  0  0  0  0  0  0  0  0  0  0  0
   -3.0711    1.9946    1.8637 O   0  0  0  0  0  0  0  0  0  0  0  0
   -3.1046    0.0627    0.6458 N   0  0  0  0  0  0  0  0  0  0  0  0
   -1.7349   -0.1620    1.0517 C   0  0  0  0  0  0  0  0  0  0  0  0
   -1.4284   -0.9054    2.1676 C   0  0  0  0  0  0  0  0  0  0  0  0
   -0.0970   -1.0754    2.5230 C   0  0  0  0  0  0  0  0  0  0  0  0
    0.9231   -0.5154    1.7821 C   0  0  0  0  0  0  0  0  0  0  0  0
    0.6302    0.2241    0.6728 C   0  0  0  0  0  0  0  0  0  0  0  0
    1.4132    0.9098   -0.2600 C   0  0  0  0  0  0  0  0  0  0  0  0
    2.8775    0.9822   -0.2529 C   0  0  0  0  0  0  0  0  0  0  0  0
    3.6395   -0.1252   -0.2575 N   0  0  0  0  0  0  0  0  0  0  0  0
    4.9899   -0.0448   -0.2411 C   0  0  0  0  0  0  0  0  0  0  0  0
    5.7652   -1.2378   -0.2499 N   0  0  0  0  0  0  0  0  0  0  0  0
    7.1801   -1.2735   -0.2254 C   0  0  0  0  0  0  0  0  0  0  0  0
    8.0765   -0.2312   -0.1792 C   0  0  0  0  0  0  0  0  0  0  0  0
    9.3466   -0.7200   -0.1695 N   0  0  0  0  0  0  0  0  0  0  0  0
   10.5569    0.0577   -0.1232 C   0  0  0  0  0  0  0  0  0  0  0  0
    9.2607   -2.0428   -0.2083 N   0  0  0  0  0  0  0  0  0  0  0  0
    7.9714   -2.4087   -0.2429 C   0  0  0  0  0  0  0  0  0  0  0  0
    7.4988   -3.7122   -0.2878 O   0  0  0  0  0  0  0  0  0  0  0  0
    8.3710   -4.8184   -0.3023 C   0  0  0  0  0  0  0  0  0  0  0  0
    5.5228    1.1860   -0.2202 N   0  0  0  0  0  0  0  0  0  0  0  0
    4.8087    2.3259   -0.2148 C   0  0  0  0  0  0  0  0  0  0  0  0
    3.4307    2.2475   -0.2316 C   0  0  0  0  0  0  0  0  0  0  0  0
    2.5587    3.4634   -0.2219 C   0  0  0  0  0  0  0  0  0  0  0  0
    0.5027    1.4575   -1.1307 C   0  0  0  0  0  0  0  0  0  0  0  0
   -0.7423    1.1488   -0.7839 N   0  0  0  0  0  0  0  0  0  0  0  0
   -0.7068    0.3914    0.3209 C   0  0  0  0  0  0  0  0  0  0  0  0
   -5.9309    0.5764    0.1614 N   0  0  0  0  0  0  0  0  0  0  0  0
   -6.1566   -0.5535    0.9840 C   0  0  0  0  0  0  0  0  0  0  0  0
   -6.5891   -1.8104    0.3360 C   0  0  0  0  0  0  0  0  0  0  0  0
   -6.2621   -1.9503   -1.0512 N   0  0  0  0  0  0  0  0  0  0  0  0
   -6.8993   -3.1482   -1.5651 C   0  0  0  0  0  0  0  0  0  0  0  0
   -6.7421   -0.7590   -1.7270 C   0  0  0  0  0  0  0  0  0  0  0  0
   -5.8824    0.3966   -1.2204 C   0  0  0  0  0  0  0  0  0  0  0  0
   -7.3408    2.5719   -0.0249 H   0  0  0  0  0  0  0  0  0  0  0  0
   -6.6588    3.6196   -1.4051 H   0  0  0  0  0  0  0  0  0  0  0  0
   -6.8503    4.2409    0.2307 H   0  0  0  0  0  0  0  0  0  0  0  0
   -4.4969    2.8326   -0.9025 H   0  0  0  0  0  0  0  0  0  0  0  0
   -4.7307    3.6552    0.6575 H   0  0  0  0  0  0  0  0  0  0  0  0
   -5.6534    1.8520    1.7458 H   0  0  0  0  0  0  0  0  0  0  0  0
   -3.5559   -0.6158    0.0361 H   0  0  0  0  0  0  0  0  0  0  0  0
   -2.2476   -1.3358    2.7338 H   0  0  0  0  0  0  0  0  0  0  0  0
    0.1309   -1.6595    3.3995 H   0  0  0  0  0  0  0  0  0  0  0  0
    1.9733   -0.6578    2.0770 H   0  0  0  0  0  0  0  0  0  0  0  0
    5.2540   -2.1697   -0.2767 H   0  0  0  0  0  0  0  0  0  0  0  0
    7.8536    0.8305   -0.1533 H   0  0  0  0  0  0  0  0  0  0  0  0
   10.4813    0.9072   -0.8299 H   0  0  0  0  0  0  0  0  0  0  0  0
   10.7478    0.4952    0.8790 H   0  0  0  0  0  0  0  0  0  0  0  0
   11.4320   -0.5538   -0.3706 H   0  0  0  0  0  0  0  0  0  0  0  0
    8.0984   -5.4045   -1.2221 H   0  0  0  0  0  0  0  0  0  0  0  0
    9.4344   -4.5326   -0.4409 H   0  0  0  0  0  0  0  0  0  0  0  0
    8.2038   -5.4333    0.5993 H   0  0  0  0  0  0  0  0  0  0  0  0
    5.2589    3.3168   -0.1972 H   0  0  0  0  0  0  0  0  0  0  0  0
    1.6140    3.2722    0.3255 H   0  0  0  0  0  0  0  0  0  0  0  0
    2.4208    3.9159   -1.2053 H   0  0  0  0  0  0  0  0  0  0  0  0
    3.0986    4.2209    0.4233 H   0  0  0  0  0  0  0  0  0  0  0  0
    0.7824    2.0586   -1.9815 H   0  0  0  0  0  0  0  0  0  0  0  0
   -1.5993    1.4410   -1.2805 H   0  0  0  0  0  0  0  0  0  0  0  0
   -6.9525   -0.2370    1.7362 H   0  0  0  0  0  0  0  0  0  0  0  0
   -5.2734   -0.7439    1.6196 H   0  0  0  0  0  0  0  0  0  0  0  0
   -6.2129   -2.7139    0.8846 H   0  0  0  0  0  0  0  0  0  0  0  0
   -7.7160   -1.8816    0.3986 H   0  0  0  0  0  0  0  0  0  0  0  0
   -7.3394   -2.8954   -2.5577 H   0  0  0  0  0  0  0  0  0  0  0  0
   -6.1232   -3.9035   -1.7239 H   0  0  0  0  0  0  0  0  0  0  0  0
   -7.7469   -3.5001   -0.9397 H   0  0  0  0  0  0  0  0  0  0  0  0
   -7.8123   -0.5696   -1.5418 H   0  0  0  0  0  0  0  0  0  0  0  0
   -6.5709   -0.9212   -2.8053 H   0  0  0  0  0  0  0  0  0  0  0  0
   -4.8946    0.2606   -1.7006 H   0  0  0  0  0  0  0  0  0  0  0  0
   -6.3135    1.2935   -1.7423 H   0  0  0  0  0  0  0  0  0  0  0  0
  1  2  1  0
  2  3  1  0
  3  4  1  0
  4  5  2  0
  4  6  1  0
  6  7  1  0
  7  8  2  0
  8  9  1  0
  9 10  2  0
 10 11  1  0
 11 12  1  0
 12 13  1  0
 13 14  2  0
 14 15  1  0
 15 16  1  0
 16 17  1  0
 17 18  2  0
 18 19  1  0
 19 20  1  0
 19 21  1  0
 21 22  2  0
 22 23  1  0
 23 24  1  0
 15 25  2  0
 25 26  1  0
 26 27  2  0
 27 28  1  0
 12 29  2  0
 29 30  1  0
 30 31  1  0
  3 32  1  0
 32 33  1  0
 33 34  1  0
 34 35  1  0
 35 36  1  0
 35 37  1  0
 37 38  1  0
 31  7  1  0
 38 32  1  0
 31 11  2  0
 27 13  1  0
 22 17  1  0
  1 39  1  0
  1 40  1  0
  1 41  1  0
  2 42  1  0
  2 43  1  0
  3 44  1  1
  6 45  1  0
  8 46  1  0
  9 47  1  0
 10 48  1  0
 16 49  1  0
 18 50  1  0
 20 51  1  0
 20 52  1  0
 20 53  1  0
 24 54  1  0
 24 55  1  0
 24 56  1  0
 26 57  1  0
 28 58  1  0
 28 59  1  0
 28 60  1  0
 29 61  1  0
 30 62  1  0
 33 63  1  0
 33 64  1  0
 34 65  1  0
 34 66  1  0
 36 67  1  0
 36 68  1  0
 36 69  1  0
 37 70  1  0
 37 71  1  0
 38 72  1  0
 38 73  1  0
M  END
$$$$
