@<TRIPOS>MOLECULE
*****
 73 77 0 0 0
SMALL
GASTEIGER

@<TRIPOS>ATOM
      1 C          -6.5682    3.3072   -0.3496 C.3     1  UNL1       -0.0634
      2 C          -5.1646    2.8933   -0.0211 C.3     1  UNL1       -0.0317
      3 C          -5.1799    1.5955    0.7797 C.3     1  UNL1        0.0874
      4 C          -3.7585    1.2182    1.1086 C.2     1  UNL1        0.2345
      5 O          -3.0711    1.9946    1.8637 O.2     1  UNL1       -0.2737
      6 N          -3.1046    0.0627    0.6458 N.am    1  UNL1       -0.2825
      7 C          -1.7349   -0.1620    1.0517 C.ar    1  UNL1        0.0576
      8 C          -1.4284   -0.9054    2.1676 C.ar    1  UNL1       -0.0384
      9 C          -0.0970   -1.0754    2.5230 C.ar    1  UNL1       -0.0593
     10 C           0.9231   -0.5154    1.7821 C.ar    1  UNL1       -0.0518
     11 C           0.6302    0.2241    0.6728 C.ar    1  UNL1        0.0107
     12 C           1.4132    0.9098   -0.2600 C.ar    1  UNL1        0.0258
     13 C           2.8775    0.9822   -0.2529 C.ar    1  UNL1        0.0809
     14 N           3.6395   -0.1252   -0.2575 N.ar    1  UNL1       -0.2139
     15 C           4.9899   -0.0448   -0.2411 C.ar    1  UNL1        0.2202
     16 N           5.7652   -1.2378   -0.2499 N.pl3   1  UNL1       -0.2782
     17 C           7.1801   -1.2735   -0.2254 C.ar    1  UNL1        0.1152
     18 C           8.0765   -0.2312   -0.1792 C.ar    1  UNL1        0.0503
     19 N           9.3466   -0.7200   -0.1695 N.ar    1  UNL1       -0.2692
     20 C          10.5569    0.0577   -0.1232 C.3     1  UNL1        0.0304
     21 N           9.2607   -2.0428   -0.2083 N.ar    1  UNL1       -0.1317
     22 C           7.9714   -2.4087   -0.2429 C.ar    1  UNL1        0.2552
     23 O           7.4988   -3.7122   -0.2878 O.3     1  UNL1       -0.4774
     24 C           8.3710   -4.8184   -0.3023 C.3     1  UNL1        0.0805
     25 N           5.5228    1.1860   -0.2202 N.ar    1  UNL1       -0.2224
     26 C           4.8087    2.3259   -0.2148 C.ar    1  UNL1        0.0361
     27 C           3.4307    2.2475   -0.2316 C.ar    1  UNL1       -0.0062
     28 C           2.5587    3.4634   -0.2219 C.3     1  UNL1       -0.0362
     29 C           0.5027    1.4575   -1.1307 C.ar    1  UNL1        0.0120
     30 N          -0.7423    1.1488   -0.7839 N.ar    1  UNL1       -0.3586
     31 C          -0.7068    0.3914    0.3209 C.ar    1  UNL1        0.0686
     32 N          -5.9309    0.5764    0.1614 N.3     1  UNL1       -0.2891
     33 C          -6.1566   -0.5535    0.9840 C.3     1  UNL1        0.0124
     34 C          -6.5891   -1.8104    0.3360 C.3     1  UNL1        0.0114
     35 N          -6.2621   -1.9503   -1.0512 N.3     1  UNL1       -0.3029
     36 C          -6.8993   -3.1482   -1.5651 C.3     1  UNL1       -0.0127
     37 C          -6.7421   -0.7590   -1.7270 C.3     1  UNL1        0.0114
     38 C          -5.8824    0.3966   -1.2204 C.3     1  UNL1        0.0124
     39 H          -7.3408    2.5719   -0.0249 H       1  UNL1        0.0230
     40 H          -6.6588    3.6196   -1.4051 H       1  UNL1        0.0230
     41 H          -6.8503    4.2409    0.2307 H       1  UNL1        0.0230
     42 H          -4.4969    2.8326   -0.9025 H       1  UNL1        0.0282
     43 H          -4.7307    3.6552    0.6575 H       1  UNL1        0.0282
     44 H          -5.6534    1.8520    1.7458 H       1  UNL1        0.0558
     45 H          -3.5559   -0.6158    0.0361 H       1  UNL1        0.1549
     46 H          -2.2476   -1.3358    2.7338 H       1  UNL1        0.0637
     47 H           0.1309   -1.6595    3.3995 H       1  UNL1        0.0618
     48 H           1.9733   -0.6578    2.0770 H       1  UNL1        0.0624
     49 H           5.2540   -2.1697   -0.2767 H       1  UNL1        0.1552
     50 H           7.8536    0.8305   -0.1533 H       1  UNL1        0.0846
     51 H          10.4813    0.9072   -0.8299 H       1  UNL1        0.0473
     52 H          10.7478    0.4952    0.8790 H       1  UNL1        0.0473
     53 H          11.4320   -0.5538   -0.3706 H       1  UNL1        0.0473
     54 H           8.0984   -5.4045   -1.2221 H       1  UNL1        0.0660
     55 H           9.4344   -4.5326   -0.4409 H       1  UNL1        0.0660
     56 H           8.2038   -5.4333    0.5993 H       1  UNL1        0.0660
     57 H           5.2589    3.3168   -0.1972 H       1  UNL1        0.0834
     58 H           1.6140    3.2722    0.3255 H       1  UNL1        0.0279
     59 H           2.4208    3.9159   -1.2053 H       1  UNL1        0.0279
     60 H           3.0986    4.2209    0.4233 H       1  UNL1        0.0279
     61 H           0.7824    2.0586   -1.9815 H       1  UNL1        0.0814
     62 H          -1.5993    1.4410   -1.2805 H       1  UNL1        0.1654
     63 H          -6.9525   -0.2370    1.7362 H       1  UNL1        0.0439
     64 H          -5.2734   -0.7439    1.6196 H       1  UNL1        0.0439
     65 H          -6.2129   -2.7139    0.8846 H       1  UNL1        0.0439
     66 H          -7.7160   -1.8816    0.3986 H       1  UNL1        0.0439
     67 H          -7.3394   -2.8954   -2.5577 H       1  UNL1        0.0391
     68 H          -6.1232   -3.9035   -1.7239 H       1  UNL1        0.0391
     69 H          -7.7469   -3.5001   -0.9397 H       1  UNL1        0.0391
     70 H          -7.8123   -0.5696   -1.5418 H       1  UNL1        0.0439
     71 H          -6.5709   -0.9212   -2.8053 H       1  UNL1        0.0439
     72 H          -4.8946    0.2606   -1.7006 H       1  UNL1        0.0439
     73 H          -6.3135    1.2935   -1.7423 H       1  UNL1        0.0439
@<TRIPOS>BOND
     1     1     2    1
     2     2     3    1
     3     3     4    1
     4     4     5    2
     5     4     6   am
     6     6     7    1
     7     7     8   ar
     8     8     9   ar
     9     9    10   ar
    10    10    11   ar
    11    11    12   ar
    12    12    13    1
    13    13    14   ar
    14    14    15   ar
    15    15    16    1
    16    16    17    1
    17    17    18   ar
    18    18    19   ar
    19    19    20    1
    20    19    21   ar
    21    21    22   ar
    22    22    23    1
    23    23    24    1
    24    15    25   ar
    25    25    26   ar
    26    26    27   ar
    27    27    28    1
    28    12    29   ar
    29    29    30   ar
    30    30    31   ar
    31     3    32    1
    32    32    33    1
    33    33    34    1
    34    34    35    1
    35    35    36    1
    36    35    37    1
    37    37    38    1
    38    31     7   ar
    39    38    32    1
    40    31    11   ar
    41    27    13   ar
    42    22    17   ar
    43     1    39    1
    44     1    40    1
    45     1    41    1
    46     2    42    1
    47     2    43    1
    48     3    44    1
    49     6    45    1
    50     8    46    1
    51     9    47    1
    52    10    48    1
    53    16    49    1
    54    18    50    1
    55    20    51    1
    56    20    52    1
    57    20    53    1
    58    24    54    1
    59    24    55    1
    60    24    56    1
    61    26    57    1
    62    28    58    1
    63    28    59    1
    64    28    60    1
    65    29    61    1
    66    30    62    1
    67    33    63    1
    68    33    64    1
    69    34    65    1
    70    34    66    1
    71    36    67    1
    72    36    68    1
    73    36    69    1
    74    37    70    1
    75    37    71    1
    76    38    72    1
    77    38    73    1
