@<TRIPOS>MOLECULE
*****
 55 58 0 0 0
SMALL
GASTEIGER

@<TRIPOS>ATOM
      1 C          -2.2821    5.2848    2.0611 C.3     1  UNL1       -0.0206
      2 C          -1.7085    4.0627    1.4265 C.ar    1  UNL1        0.0610
      3 C          -2.3751    3.0348    0.7947 C.ar    1  UNL1       -0.0100
      4 C          -1.4458    2.1126    0.3591 C.ar    1  UNL1        0.1086
      5 C          -1.5656    0.8967   -0.3308 C.ar    1  UNL1        0.1468
      6 O          -2.8103    0.4782   -0.6717 O.3     1  UNL1       -0.4866
      7 C          -3.1637   -0.6794   -1.3536 C.3     1  UNL1        0.1022
      8 C          -3.8495   -0.3200   -2.6616 C.3     1  UNL1       -0.0275
      9 C          -4.0568   -1.5864   -0.5193 C.3     1  UNL1        0.0195
     10 C          -3.3234   -1.9878    0.7415 C.3     1  UNL1        0.0182
     11 N          -4.4283   -2.2990    1.6361 N.am    1  UNL1       -0.3149
     12 C          -5.5531   -1.5200    1.2494 C.2     1  UNL1        0.2135
     13 O          -6.6839   -1.4659    1.7804 O.2     1  UNL1       -0.2758
     14 C          -5.1654   -0.7235    0.0398 C.3     1  UNL1        0.0315
     15 C          -0.4467    0.1701   -0.6410 C.ar    1  UNL1       -0.0086
     16 C           0.7955    0.6680   -0.2558 C.ar    1  UNL1        0.0067
     17 C           2.0048   -0.0895   -0.5746 C.ar    1  UNL1        0.0211
     18 C           2.1510   -0.8787   -1.6954 C.ar    1  UNL1        0.0571
     19 N           3.3974   -1.4222   -1.6550 N.ar    1  UNL1       -0.1785
     20 N           4.0372   -1.0170   -0.5723 N.ar    1  UNL1       -0.2656
     21 C           5.3961   -1.3740   -0.1616 C.3     1  UNL1        0.0553
     22 C           5.8877   -0.4192    0.9169 C.3     1  UNL1       -0.0403
     23 C           6.3637   -1.3123   -1.3030 C.3     1  UNL1       -0.0403
     24 C           5.3386   -2.7550    0.4699 C.3     1  UNL1       -0.0403
     25 C           3.1971   -0.1970    0.1041 C.ar    1  UNL1        0.0338
     26 C           0.8274    1.8642    0.4154 C.ar    1  UNL1        0.0378
     27 N          -0.2544    2.5975    0.7325 N.ar    1  UNL1       -0.2355
     28 N          -0.4091    3.7668    1.3728 N.ar    1  UNL1       -0.1715
     29 H          -1.8117    5.4333    3.0669 H       1  UNL1        0.0293
     30 H          -2.0670    6.2008    1.4715 H       1  UNL1        0.0293
     31 H          -3.3729    5.1051    2.1575 H       1  UNL1        0.0293
     32 H          -3.4349    2.9600    0.6621 H       1  UNL1        0.0658
     33 H          -2.2743   -1.2544   -1.6267 H       1  UNL1        0.0733
     34 H          -4.1949   -1.2717   -3.1369 H       1  UNL1        0.0265
     35 H          -3.0662    0.0899   -3.3298 H       1  UNL1        0.0265
     36 H          -4.6548    0.4050   -2.5322 H       1  UNL1        0.0265
     37 H          -4.4135   -2.4467   -1.0872 H       1  UNL1        0.0356
     38 H          -2.6763   -2.8631    0.5533 H       1  UNL1        0.0466
     39 H          -2.7847   -1.1221    1.1633 H       1  UNL1        0.0466
     40 H          -4.4398   -2.9695    2.4349 H       1  UNL1        0.1487
     41 H          -5.9941   -0.5579   -0.6488 H       1  UNL1        0.0363
     42 H          -4.7027    0.2058    0.4347 H       1  UNL1        0.0363
     43 H          -0.4354   -0.7699   -1.1654 H       1  UNL1        0.0661
     44 H           1.4243   -1.0614   -2.4941 H       1  UNL1        0.0854
     45 H           5.5955    0.6204    0.6367 H       1  UNL1        0.0253
     46 H           5.4031   -0.6295    1.8923 H       1  UNL1        0.0253
     47 H           6.9879   -0.5387    1.0084 H       1  UNL1        0.0253
     48 H           7.2457   -0.6488   -1.0739 H       1  UNL1        0.0253
     49 H           5.9078   -0.8740   -2.2150 H       1  UNL1        0.0253
     50 H           6.7650   -2.3298   -1.4736 H       1  UNL1        0.0253
     51 H           6.3657   -3.0160    0.7530 H       1  UNL1        0.0253
     52 H           4.8766   -3.4420   -0.2627 H       1  UNL1        0.0253
     53 H           4.6806   -2.6711    1.3561 H       1  UNL1        0.0253
     54 H           3.4026    0.3107    1.0383 H       1  UNL1        0.0833
     55 H           1.7939    2.2460    0.7128 H       1  UNL1        0.0836
@<TRIPOS>BOND
     1     1     2    1
     2     2     3   ar
     3     3     4   ar
     4     4     5   ar
     5     5     6    1
     6     6     7    1
     7     7     8    1
     8     7     9    1
     9     9    10    1
    10    10    11    1
    11    11    12   am
    12    12    13    2
    13    12    14    1
    14     5    15   ar
    15    15    16   ar
    16    16    17    1
    17    17    18   ar
    18    18    19   ar
    19    19    20   ar
    20    20    21    1
    21    21    22    1
    22    21    23    1
    23    21    24    1
    24    20    25   ar
    25    16    26   ar
    26    26    27   ar
    27    27    28   ar
    28    28     2   ar
    29    27     4   ar
    30    14     9    1
    31    25    17   ar
    32     1    29    1
    33     1    30    1
    34     1    31    1
    35     3    32    1
    36     7    33    1
    37     8    34    1
    38     8    35    1
    39     8    36    1
    40     9    37    1
    41    10    38    1
    42    10    39    1
    43    11    40    1
    44    14    41    1
    45    14    42    1
    46    15    43    1
    47    18    44    1
    48    22    45    1
    49    22    46    1
    50    22    47    1
    51    23    48    1
    52    23    49    1
    53    23    50    1
    54    24    51    1
    55    24    52    1
    56    24    53    1
    57    25    54    1
    58    26    55    1
