@<TRIPOS>MOLECULE
*****
 50 54 0 0 0
SMALL
GASTEIGER

@<TRIPOS>ATOM
      1 O           6.0765   -1.8905    0.9692 O.2     1  UNL1       -0.2698
      2 C           5.0090   -1.2919    0.7282 C.2     1  UNL1        0.2490
      3 N           3.7076   -1.8613    0.8992 N.am    1  UNL1       -0.2809
      4 C           2.7282   -0.8897    0.5313 C.ar    1  UNL1        0.0433
      5 C           1.3317   -0.9536    0.5131 C.ar    1  UNL1       -0.0186
      6 C           0.5821    0.1281    0.1036 C.ar    1  UNL1        0.0355
      7 N          -0.8426    0.0893    0.0578 N.am    1  UNL1       -0.2813
      8 C          -1.4251   -0.3694   -1.1417 C.2     1  UNL1        0.2534
      9 O          -0.6236   -0.7100   -2.0929 O.2     1  UNL1       -0.2697
     10 C          -2.8294   -0.4897   -1.3935 C.ar    1  UNL1        0.1000
     11 C          -3.2747   -0.9675   -2.6214 C.ar    1  UNL1        0.0176
     12 N          -4.5542   -1.1152   -2.9287 N.ar    1  UNL1       -0.3656
     13 C          -5.5116   -0.7989   -2.0360 C.ar    1  UNL1        0.0132
     14 C          -5.1768   -0.3180   -0.7940 C.ar    1  UNL1        0.0482
     15 C          -6.2187    0.0202    0.1759 C.ar    1  UNL1        0.0224
     16 C          -6.6591    1.3422    0.1297 C.ar    1  UNL1       -0.0511
     17 C          -7.6395    1.7219    1.0232 C.ar    1  UNL1       -0.0610
     18 C          -8.1976    0.8621    1.9497 C.ar    1  UNL1       -0.0590
     19 C          -7.7289   -0.4413    1.9586 C.ar    1  UNL1       -0.0258
     20 C          -6.7404   -0.8733    1.0770 C.ar    1  UNL1        0.1312
     21 F          -6.2797   -2.1416    1.0807 F       1  UNL1       -0.2048
     22 C          -3.8241   -0.1729   -0.4985 C.ar    1  UNL1        0.2016
     23 O          -3.5687    0.2675    0.6426 O.2     1  UNL1       -0.2864
     24 C           1.2154    1.2779   -0.2886 C.ar    1  UNL1       -0.0398
     25 C           2.6130    1.3880   -0.2872 C.ar    1  UNL1       -0.0503
     26 C           3.3387    0.2786    0.1311 C.ar    1  UNL1        0.0085
     27 C           4.7915    0.0599    0.2430 C.2     1  UNL1        0.0479
     28 C           5.7605    0.9111   -0.0607 C.2     1  UNL1       -0.0256
     29 C           7.1784    0.6162    0.0399 C.ar    1  UNL1        0.0400
     30 C           7.9150   -0.4167   -0.4719 C.ar    1  UNL1       -0.0370
     31 C           9.2173   -0.2395   -0.0367 C.ar    1  UNL1       -0.0438
     32 C           9.2677    0.9043    0.7397 C.ar    1  UNL1        0.0022
     33 N           8.0119    1.4095    0.7715 N.ar    1  UNL1       -0.3611
     34 H           3.5287   -2.8308    1.2397 H       1  UNL1        0.1552
     35 H           0.8218   -1.8642    0.8253 H       1  UNL1        0.0655
     36 H          -1.3973    0.3860    0.8748 H       1  UNL1        0.1551
     37 H          -2.5288   -1.2280   -3.3526 H       1  UNL1        0.0815
     38 H          -4.8378   -1.4732   -3.8542 H       1  UNL1        0.1648
     39 H          -6.5640   -0.9175   -2.2745 H       1  UNL1        0.0814
     40 H          -6.2488    2.0496   -0.5788 H       1  UNL1        0.0625
     41 H          -8.0179    2.7470    1.0263 H       1  UNL1        0.0618
     42 H          -8.9739    1.1890    2.6467 H       1  UNL1        0.0618
     43 H          -8.1524   -1.1518    2.6853 H       1  UNL1        0.0646
     44 H           0.6222    2.1204   -0.6060 H       1  UNL1        0.0636
     45 H           3.1466    2.2549   -0.5832 H       1  UNL1        0.0625
     46 H           5.4134    1.8997   -0.4081 H       1  UNL1        0.0646
     47 H           7.5324   -1.1972   -1.1094 H       1  UNL1        0.0638
     48 H          10.0612   -0.8855   -0.2620 H       1  UNL1        0.0633
     49 H          10.1624    1.2864    1.2154 H       1  UNL1        0.0807
     50 H           7.7823    2.2792    1.2972 H       1  UNL1        0.1653
@<TRIPOS>BOND
     1     1     2    2
     2     2     3   am
     3     3     4    1
     4     4     5   ar
     5     5     6   ar
     6     6     7    1
     7     7     8   am
     8     8     9    2
     9     8    10    1
    10    10    11   ar
    11    11    12   ar
    12    12    13   ar
    13    13    14   ar
    14    14    15    1
    15    15    16   ar
    16    16    17   ar
    17    17    18   ar
    18    18    19   ar
    19    19    20   ar
    20    20    21    1
    21    14    22   ar
    22    22    23    2
    23     6    24   ar
    24    24    25   ar
    25    25    26   ar
    26    26    27    1
    27    27    28    2
    28    28    29    1
    29    29    30   ar
    30    30    31   ar
    31    31    32   ar
    32    32    33   ar
    33    27     2    1
    34    33    29   ar
    35    26     4   ar
    36    22    10   ar
    37    20    15   ar
    38     3    34    1
    39     5    35    1
    40     7    36    1
    41    11    37    1
    42    12    38    1
    43    13    39    1
    44    16    40    1
    45    17    41    1
    46    18    42    1
    47    19    43    1
    48    24    44    1
    49    25    45    1
    50    28    46    1
    51    30    47    1
    52    31    48    1
    53    32    49    1
    54    33    50    1
