@<TRIPOS>MOLECULE
*****
 64 69 0 0 0
SMALL
GASTEIGER

@<TRIPOS>ATOM
      1 O           0.1583    0.8955    1.1179 O.2     1  UNL1       -0.2489
      2 C           1.2887    0.4500    0.7657 C.2     1  UNL1        0.3255
      3 OXT         2.3737    0.8373    1.5362 O.3     1  UNL1       -0.4793
      4 CA          1.4683   -0.4390   -0.4033 C.3     1  UNL1        0.1221
      5 C           0.7262   -1.7438   -0.2842 C.3     1  UNL1        0.0011
      6 C          -0.7191   -1.5258   -0.1431 C.ar    1  UNL1       -0.0450
      7 C          -1.5742   -1.3938   -1.2214 C.ar    1  UNL1       -0.0565
      8 C          -2.9449   -1.2023   -1.0019 C.ar    1  UNL1       -0.0375
      9 C          -3.4465   -1.1446    0.2743 C.ar    1  UNL1        0.0500
     10 N          -4.8279   -0.9513    0.4793 N.ar    1  UNL1       -0.2767
     11 C          -5.5037    0.1830    0.1471 C.ar    1  UNL1        0.1490
     12 C          -4.9148    1.3555   -0.4624 C.ar    1  UNL1        0.0359
     13 C          -5.4065    1.9586   -1.6007 C.ar    1  UNL1       -0.0482
     14 C          -4.7961    3.0839   -2.1387 C.ar    1  UNL1       -0.0429
     15 C          -3.6816    3.6214   -1.5414 C.ar    1  UNL1        0.0276
     16 N          -3.2122    3.0211   -0.4291 N.ar    1  UNL1       -0.2626
     17 C          -3.7997    1.9188    0.1088 C.ar    1  UNL1        0.0382
     18 N          -6.7814   -0.0295    0.4995 N.ar    1  UNL1       -0.2255
     19 C          -6.9338   -1.2405    1.0348 C.ar    1  UNL1        0.1089
     20 C          -8.0402   -1.9163    1.5445 C.ar    1  UNL1       -0.0312
     21 C          -7.8204   -3.1878    2.0280 C.ar    1  UNL1       -0.0414
     22 C          -6.5666   -3.7506    2.0031 C.ar    1  UNL1        0.0300
     23 N          -5.5208   -3.0889    1.5117 N.ar    1  UNL1       -0.2355
     24 C          -5.6992   -1.8377    1.0281 C.ar    1  UNL1        0.1652
     25 C          -2.5902   -1.2766    1.3287 C.ar    1  UNL1       -0.0375
     26 C          -1.2446   -1.4648    1.1269 C.ar    1  UNL1       -0.0565
     27 N           2.8968   -0.7063   -0.5388 N.pl3   1  UNL1       -0.3328
     28 C           3.7983    0.4021   -0.7440 C.2     1  UNL1        0.0359
     29 C           3.5886    1.5617   -1.2902 C.2     1  UNL1        0.0788
     30 BR          2.0451    2.4305   -2.0983 Br      1  UNL1       -0.0451
     31 C           4.9334    1.9766   -1.0748 C.2     1  UNL1        0.1830
     32 O           5.5718    3.0522   -1.3346 O.2     1  UNL1       -0.2905
     33 C           5.1910    0.7074   -0.4779 C.3     1  UNL1        0.0728
     34 C           6.1996   -0.1879   -1.1883 C.3     1  UNL1       -0.0350
     35 C           7.4805    0.6306   -1.2881 C.3     1  UNL1       -0.0518
     36 C           7.8526    1.2123    0.0596 C.3     1  UNL1       -0.0530
     37 C           7.0411    0.5712    1.1645 C.3     1  UNL1       -0.0518
     38 C           5.5670    0.7007    0.9956 C.3     1  UNL1       -0.0350
     39 HXT         2.2873    1.6962    2.0640 H       1  UNL1        0.2951
     40 HA          1.0888    0.1185   -1.2995 H       1  UNL1        0.0617
     41 H           1.1396   -2.2669    0.6184 H       1  UNL1        0.0337
     42 H           0.9144   -2.3129   -1.2090 H       1  UNL1        0.0337
     43 H          -1.1568   -1.4426   -2.2103 H       1  UNL1        0.0621
     44 H          -3.5786   -1.1037   -1.8801 H       1  UNL1        0.0638
     45 H          -6.2937    1.5179   -2.0629 H       1  UNL1        0.0626
     46 H          -5.1827    3.5482   -3.0234 H       1  UNL1        0.0633
     47 H          -3.1869    4.5121   -1.9553 H       1  UNL1        0.0829
     48 H          -3.3690    1.4987    0.9932 H       1  UNL1        0.0837
     49 H          -9.0094   -1.4375    1.5456 H       1  UNL1        0.0640
     50 H          -8.6526   -3.7651    2.4402 H       1  UNL1        0.0633
     51 H          -6.4388   -4.7471    2.3912 H       1  UNL1        0.0830
     52 H          -2.9604   -1.2346    2.3355 H       1  UNL1        0.0638
     53 H          -0.6002   -1.5707    1.9753 H       1  UNL1        0.0621
     54 H           3.2724   -1.6679   -0.4909 H       1  UNL1        0.1466
     55 H           5.8465   -0.5103   -2.1660 H       1  UNL1        0.0278
     56 H           6.4008   -1.0393   -0.5271 H       1  UNL1        0.0278
     57 H           7.2731    1.4794   -1.9662 H       1  UNL1        0.0266
     58 H           8.2965    0.0299   -1.7150 H       1  UNL1        0.0266
     59 H           8.9120    0.9359    0.2504 H       1  UNL1        0.0265
     60 H           7.8101    2.3106    0.0775 H       1  UNL1        0.0265
     61 H           7.3857   -0.4900    1.2399 H       1  UNL1        0.0266
     62 H           7.3955    1.0520    2.1197 H       1  UNL1        0.0266
     63 H           5.1726    1.5954    1.5136 H       1  UNL1        0.0278
     64 H           5.0767   -0.1892    1.4479 H       1  UNL1        0.0278
@<TRIPOS>BOND
     1     1     2    2
     2     2     3    1
     3     2     4    1
     4     4     5    1
     5     5     6    1
     6     6     7   ar
     7     7     8   ar
     8     8     9   ar
     9     9    10    1
    10    10    11   ar
    11    11    12    1
    12    12    13   ar
    13    13    14   ar
    14    14    15   ar
    15    15    16   ar
    16    16    17   ar
    17    11    18   ar
    18    18    19   ar
    19    19    20   ar
    20    20    21   ar
    21    21    22   ar
    22    22    23   ar
    23    23    24   ar
    24     9    25   ar
    25    25    26   ar
    26     4    27    1
    27    27    28    1
    28    28    29    2
    29    29    30    1
    30    29    31    1
    31    31    32    2
    32    31    33    1
    33    33    34    1
    34    34    35    1
    35    35    36    1
    36    36    37    1
    37    37    38    1
    38    26     6   ar
    39    33    28    1
    40    24    10   ar
    41    38    33    1
    42    17    12   ar
    43    24    19   ar
    44     3    39    1
    45     4    40    1
    46     5    41    1
    47     5    42    1
    48     7    43    1
    49     8    44    1
    50    13    45    1
    51    14    46    1
    52    15    47    1
    53    17    48    1
    54    20    49    1
    55    21    50    1
    56    22    51    1
    57    25    52    1
    58    26    53    1
    59    27    54    1
    60    34    55    1
    61    34    56    1
    62    35    57    1
    63    35    58    1
    64    36    59    1
    65    36    60    1
    66    37    61    1
    67    37    62    1
    68    38    63    1
    69    38    64    1
