
     RDKit          3D

 61 64  0  0  0  0  0  0  0  0999 V2000
    9.3034    2.5005   -1.4636 C   0  0  0  0  0  0  0  0  0  0  0  0
    8.3090    1.4491   -1.1222 C   0  0  0  0  0  0  0  0  0  0  0  0
    7.7555    0.4300   -1.7997 C   0  0  0  0  0  0  0  0  0  0  0  0
    6.8876   -0.3111   -1.1498 N   0  0  0  0  0  0  0  0  0  0  0  0
    6.5256   -0.2016   -0.0422 C   0  0  0  0  0  0  0  0  0  0  0  0
    5.5868   -0.8504    0.9661 C   0  0  2  0  0  0  0  0  0  0  0  0
    6.4631   -1.3746    1.9477 O   0  0  0  0  0  0  0  0  0  0  0  0
    4.9412   -1.9863    0.2854 C   0  0  0  0  0  0  0  0  0  0  0  0
    3.5552   -1.7469   -0.2242 C   0  0  0  0  0  0  0  0  0  0  0  0
    2.7770   -1.1379    0.9253 C   0  0  2  0  0  0  0  0  0  0  0  0
    1.3989   -1.2333    0.6745 N   0  0  0  0  0  0  0  0  0  0  0  0
    0.8378   -0.6089   -0.4763 C   0  0  0  0  0  0  0  0  0  0  0  0
   -0.4068   -0.3273    0.3780 C   0  0  0  0  0  0  0  0  0  0  0  0
   -1.4521   -1.3083    0.2286 N   0  0  0  0  0  0  0  0  0  0  0  0
   -2.7818   -0.8285   -0.0264 C   0  0  0  0  0  0  0  0  0  0  0  0
   -2.9830    0.4083   -0.1087 O   0  0  0  0  0  0  0  0  0  0  0  0
   -3.9234   -1.7459   -0.1954 C   0  0  0  0  0  0  0  0  0  0  0  0
   -5.1350   -0.9960   -0.4345 N   0  0  0  0  0  0  0  0  0  0  0  0
   -5.5914   -0.0871    0.5259 C   0  0  0  0  0  0  0  0  0  0  0  0
   -4.9437    0.0734    1.5972 O   0  0  0  0  0  0  0  0  0  0  0  0
   -6.8001    0.6959    0.3434 C   0  0  0  0  0  0  0  0  0  0  0  0
   -7.2315    1.5940    1.3120 C   0  0  0  0  0  0  0  0  0  0  0  0
   -8.3777    2.3216    1.1150 C   0  0  0  0  0  0  0  0  0  0  0  0
   -9.1310    2.1903   -0.0326 C   0  0  0  0  0  0  0  0  0  0  0  0
   -8.7342    1.3136   -1.0080 C   0  0  0  0  0  0  0  0  0  0  0  0
   -9.5118    1.1288   -2.2741 C   0  0  0  0  0  0  0  0  0  0  0  0
   -9.9825    2.3380   -2.7293 F   0  0  0  0  0  0  0  0  0  0  0  0
  -10.5810    0.2564   -2.0420 F   0  0  0  0  0  0  0  0  0  0  0  0
   -8.7005    0.4957   -3.1920 F   0  0  0  0  0  0  0  0  0  0  0  0
   -7.5602    0.5815   -0.7844 C   0  0  0  0  0  0  0  0  0  0  0  0
    0.4822   -0.6338    1.5922 C   0  0  0  0  0  0  0  0  0  0  0  0
    3.3217    0.2448    1.1205 C   0  0  0  0  0  0  0  0  0  0  0  0
    4.7187    0.1379    1.6255 C   0  0  0  0  0  0  0  0  0  0  0  0
    7.5091    1.2827    0.5090 S   0  0  0  0  0  0  0  0  0  0  0  0
    9.3079    3.3121   -0.7082 H   0  0  0  0  0  0  0  0  0  0  0  0
    9.0938    2.9242   -2.4683 H   0  0  0  0  0  0  0  0  0  0  0  0
   10.3084    2.0255   -1.4176 H   0  0  0  0  0  0  0  0  0  0  0  0
    8.0207    0.2242   -2.8622 H   0  0  0  0  0  0  0  0  0  0  0  0
    6.0343   -2.1836    2.3682 H   0  0  0  0  0  0  0  0  0  0  0  0
    5.5534   -2.3342   -0.5753 H   0  0  0  0  0  0  0  0  0  0  0  0
    4.8658   -2.8462    1.0148 H   0  0  0  0  0  0  0  0  0  0  0  0
    3.5457   -1.0171   -1.0745 H   0  0  0  0  0  0  0  0  0  0  0  0
    3.0814   -2.7000   -0.4748 H   0  0  0  0  0  0  0  0  0  0  0  0
    3.0290   -1.7298    1.8239 H   0  0  0  0  0  0  0  0  0  0  0  0
    1.3205    0.2889   -0.8657 H   0  0  0  0  0  0  0  0  0  0  0  0
    0.6435   -1.3635   -1.2852 H   0  0  0  0  0  0  0  0  0  0  0  0
   -0.7045    0.7165    0.2814 H   0  0  0  0  0  0  0  0  0  0  0  0
   -1.2816   -2.3234    0.2973 H   0  0  0  0  0  0  0  0  0  0  0  0
   -4.1137   -2.3450    0.7377 H   0  0  0  0  0  0  0  0  0  0  0  0
   -3.7434   -2.5003   -0.9918 H   0  0  0  0  0  0  0  0  0  0  0  0
   -5.6437   -1.1488   -1.3190 H   0  0  0  0  0  0  0  0  0  0  0  0
   -6.6260    1.6790    2.2000 H   0  0  0  0  0  0  0  0  0  0  0  0
   -8.6775    3.0113    1.8976 H   0  0  0  0  0  0  0  0  0  0  0  0
  -10.0345    2.7657   -0.1847 H   0  0  0  0  0  0  0  0  0  0  0  0
   -7.2923   -0.0932   -1.5812 H   0  0  0  0  0  0  0  0  0  0  0  0
    0.0155   -1.4304    2.2422 H   0  0  0  0  0  0  0  0  0  0  0  0
    0.8042    0.2457    2.1480 H   0  0  0  0  0  0  0  0  0  0  0  0
    3.3216    0.8522    0.1878 H   0  0  0  0  0  0  0  0  0  0  0  0
    2.7357    0.8357    1.8613 H   0  0  0  0  0  0  0  0  0  0  0  0
    4.6532   -0.0717    2.7336 H   0  0  0  0  0  0  0  0  0  0  0  0
    5.2371    1.1413    1.5822 H   0  0  0  0  0  0  0  0  0  0  0  0
  1  2  1  0
  2  3  2  0
  3  4  1  0
  4  5  2  0
  5  6  1  0
  6  7  1  1
  6  8  1  0
  8  9  1  0
  9 10  1  0
 10 11  1  0
 11 12  1  0
 12 13  1  0
 13 14  1  0
 14 15  1  0
 15 16  2  0
 15 17  1  0
 17 18  1  0
 18 19  1  0
 19 20  2  0
 19 21  1  0
 21 22  2  0
 22 23  1  0
 23 24  2  0
 24 25  1  0
 25 26  1  0
 26 27  1  0
 26 28  1  0
 26 29  1  0
 25 30  2  0
 13 31  1  0
 10 32  1  0
 32 33  1  0
  5 34  1  0
 34  2  1  0
 33  6  1  0
 31 11  1  0
 30 21  1  0
  1 35  1  0
  1 36  1  0
  1 37  1  0
  3 38  1  0
  7 39  1  0
  8 40  1  0
  8 41  1  0
  9 42  1  0
  9 43  1  0
 10 44  1  1
 12 45  1  0
 12 46  1  0
 13 47  1  0
 14 48  1  0
 17 49  1  0
 17 50  1  0
 18 51  1  0
 22 52  1  0
 23 53  1  0
 24 54  1  0
 30 55  1  0
 31 56  1  0
 31 57  1  0
 32 58  1  0
 32 59  1  0
 33 60  1  0
 33 61  1  0
M  END
$$$$
