@<TRIPOS>MOLECULE
*****
 61 64 0 0 0
SMALL
GASTEIGER

@<TRIPOS>ATOM
      1 C           9.3034    2.5005   -1.4636 C.3     1  UNL1       -0.0319
      2 C           8.3090    1.4491   -1.1222 C.ar    1  UNL1        0.0065
      3 C           7.7555    0.4300   -1.7997 C.ar    1  UNL1        0.0380
      4 N           6.8876   -0.3111   -1.1498 N.ar    1  UNL1       -0.2491
      5 C           6.5256   -0.2016   -0.0422 C.ar    1  UNL1        0.1100
      6 C           5.5868   -0.8504    0.9661 C.3     1  UNL1        0.1140
      7 O           6.4631   -1.3746    1.9477 O.3     1  UNL1       -0.3819
      8 C           4.9412   -1.9863    0.2854 C.3     1  UNL1       -0.0164
      9 C           3.5552   -1.7469   -0.2242 C.3     1  UNL1       -0.0344
     10 C           2.7770   -1.1379    0.9253 C.3     1  UNL1        0.0107
     11 N           1.3989   -1.2333    0.6745 N.3     1  UNL1       -0.2958
     12 C           0.8378   -0.6089   -0.4763 C.3     1  UNL1        0.0189
     13 C          -0.4068   -0.3273    0.3780 C.3     1  UNL1        0.0486
     14 N          -1.4521   -1.3083    0.2286 N.am    1  UNL1       -0.3087
     15 C          -2.7818   -0.8285   -0.0264 C.2     1  UNL1        0.2305
     16 O          -2.9830    0.4083   -0.1087 O.2     1  UNL1       -0.2741
     17 C          -3.9234   -1.7459   -0.1954 C.3     1  UNL1        0.0884
     18 N          -5.1350   -0.9960   -0.4345 N.am    1  UNL1       -0.3028
     19 C          -5.5914   -0.0871    0.5259 C.2     1  UNL1        0.2445
     20 O          -4.9437    0.0734    1.5972 O.2     1  UNL1       -0.2702
     21 C          -6.8001    0.6959    0.3434 C.ar    1  UNL1        0.0372
     22 C          -7.2315    1.5940    1.3120 C.ar    1  UNL1       -0.0496
     23 C          -8.3777    2.3216    1.1150 C.ar    1  UNL1       -0.0605
     24 C          -9.1310    2.1903   -0.0326 C.ar    1  UNL1       -0.0501
     25 C          -8.7342    1.3136   -1.0080 C.ar    1  UNL1        0.0555
     26 C          -9.5118    1.1288   -2.2741 C.3     1  UNL1        0.4174
     27 F          -9.9825    2.3380   -2.7293 F       1  UNL1       -0.1659
     28 F         -10.5810    0.2564   -2.0420 F       1  UNL1       -0.1659
     29 F          -8.7005    0.4957   -3.1920 F       1  UNL1       -0.1659
     30 C          -7.5602    0.5815   -0.7844 C.ar    1  UNL1       -0.0380
     31 C           0.4822   -0.6338    1.5922 C.3     1  UNL1        0.0189
     32 C           3.3217    0.2448    1.1205 C.3     1  UNL1       -0.0344
     33 C           4.7187    0.1379    1.6255 C.3     1  UNL1       -0.0164
     34 S           7.5091    1.2827    0.5090 S.2     1  UNL1       -0.0745
     35 H           9.3079    3.3121   -0.7082 H       1  UNL1        0.0283
     36 H           9.0938    2.9242   -2.4683 H       1  UNL1        0.0283
     37 H          10.3084    2.0255   -1.4176 H       1  UNL1        0.0283
     38 H           8.0207    0.2242   -2.8622 H       1  UNL1        0.0838
     39 H           6.0343   -2.1836    2.3682 H       1  UNL1        0.2107
     40 H           5.5534   -2.3342   -0.5753 H       1  UNL1        0.0297
     41 H           4.8658   -2.8462    1.0148 H       1  UNL1        0.0297
     42 H           3.5457   -1.0171   -1.0745 H       1  UNL1        0.0281
     43 H           3.0814   -2.7000   -0.4748 H       1  UNL1        0.0281
     44 H           3.0290   -1.7298    1.8239 H       1  UNL1        0.0462
     45 H           1.3205    0.2889   -0.8657 H       1  UNL1        0.0445
     46 H           0.6435   -1.3635   -1.2852 H       1  UNL1        0.0445
     47 H          -0.7045    0.7165    0.2814 H       1  UNL1        0.0523
     48 H          -1.2816   -2.3234    0.2973 H       1  UNL1        0.1491
     49 H          -4.1137   -2.3450    0.7377 H       1  UNL1        0.0558
     50 H          -3.7434   -2.5003   -0.9918 H       1  UNL1        0.0558
     51 H          -5.6437   -1.1488   -1.3190 H       1  UNL1        0.1495
     52 H          -6.6260    1.6790    2.2000 H       1  UNL1        0.0625
     53 H          -8.6775    3.0113    1.8976 H       1  UNL1        0.0618
     54 H         -10.0345    2.7657   -0.1847 H       1  UNL1        0.0623
     55 H          -7.2923   -0.0932   -1.5812 H       1  UNL1        0.0631
     56 H           0.0155   -1.4304    2.2422 H       1  UNL1        0.0445
     57 H           0.8042    0.2457    2.1480 H       1  UNL1        0.0445
     58 H           3.3216    0.8522    0.1878 H       1  UNL1        0.0281
     59 H           2.7357    0.8357    1.8613 H       1  UNL1        0.0281
     60 H           4.6532   -0.0717    2.7336 H       1  UNL1        0.0297
     61 H           5.2371    1.1413    1.5822 H       1  UNL1        0.0297
@<TRIPOS>BOND
     1     1     2    1
     2     2     3   ar
     3     3     4   ar
     4     4     5   ar
     5     5     6    1
     6     6     7    1
     7     6     8    1
     8     8     9    1
     9     9    10    1
    10    10    11    1
    11    11    12    1
    12    12    13    1
    13    13    14    1
    14    14    15   am
    15    15    16    2
    16    15    17    1
    17    17    18    1
    18    18    19   am
    19    19    20    2
    20    19    21    1
    21    21    22   ar
    22    22    23   ar
    23    23    24   ar
    24    24    25   ar
    25    25    26    1
    26    26    27    1
    27    26    28    1
    28    26    29    1
    29    25    30   ar
    30    13    31    1
    31    10    32    1
    32    32    33    1
    33     5    34   ar
    34    34     2   ar
    35    33     6    1
    36    31    11    1
    37    30    21   ar
    38     1    35    1
    39     1    36    1
    40     1    37    1
    41     3    38    1
    42     7    39    1
    43     8    40    1
    44     8    41    1
    45     9    42    1
    46     9    43    1
    47    10    44    1
    48    12    45    1
    49    12    46    1
    50    13    47    1
    51    14    48    1
    52    17    49    1
    53    17    50    1
    54    18    51    1
    55    22    52    1
    56    23    53    1
    57    24    54    1
    58    30    55    1
    59    31    56    1
    60    31    57    1
    61    32    58    1
    62    32    59    1
    63    33    60    1
    64    33    61    1
