@<TRIPOS>MOLECULE
*****
 43 45 0 0 0
SMALL
GASTEIGER

@<TRIPOS>ATOM
      1 C           5.1909    0.8767    1.3842 C.3     1  UNL1       -0.0394
      2 C           4.2760    0.8663    0.2176 C.ar    1  UNL1       -0.0465
      3 C           4.8495    0.9173   -1.0335 C.ar    1  UNL1       -0.0585
      4 C           4.0433    0.9101   -2.1515 C.ar    1  UNL1       -0.0604
      5 C           2.6743    0.8516   -1.9935 C.ar    1  UNL1       -0.0477
      6 C           2.0688    0.7996   -0.7565 C.ar    1  UNL1        0.0159
      7 S           0.3275    0.7240   -0.5050 S.3     1  UNL1       -0.0873
      8 C          -0.2888   -0.9437   -0.4428 C.ar    1  UNL1        0.0337
      9 C           0.5848   -2.0181   -0.5871 C.ar    1  UNL1       -0.0462
     10 C           0.0708   -3.2980   -0.5333 C.ar    1  UNL1       -0.0606
     11 C          -1.2838   -3.4910   -0.3398 C.ar    1  UNL1       -0.0599
     12 C          -2.1432   -2.4199   -0.1976 C.ar    1  UNL1       -0.0396
     13 C          -1.6435   -1.1199   -0.2490 C.ar    1  UNL1        0.0437
     14 N          -2.5207   -0.0094   -0.1036 N.pl3   1  UNL1       -0.3266
     15 C          -2.4188    0.9773    0.9303 C.3     1  UNL1        0.0248
     16 C          -3.7501    1.7397    0.9433 C.3     1  UNL1        0.0117
     17 N          -4.8766    0.8796    0.8428 N.3     1  UNL1       -0.3130
     18 C          -4.9493    0.0943   -0.3459 C.3     1  UNL1        0.0117
     19 C          -3.6167    0.1587   -1.0706 C.3     1  UNL1        0.0248
     20 C           2.8991    0.8082    0.3443 C.ar    1  UNL1       -0.0338
     21 C           2.3233    0.7548    1.6981 C.3     1  UNL1       -0.0384
     22 H           5.5969    1.9219    1.4554 H       1  UNL1        0.0278
     23 H           6.0822    0.2105    1.1941 H       1  UNL1        0.0278
     24 H           4.6937    0.6362    2.3233 H       1  UNL1        0.0278
     25 H           5.9172    0.9639   -1.2008 H       1  UNL1        0.0620
     26 H           4.4571    0.9492   -3.1548 H       1  UNL1        0.0618
     27 H           1.9932    0.8436   -2.8527 H       1  UNL1        0.0629
     28 H           1.6570   -1.8371   -0.7398 H       1  UNL1        0.0629
     29 H           0.7553   -4.1401   -0.6464 H       1  UNL1        0.0618
     30 H          -1.6465   -4.5032   -0.3037 H       1  UNL1        0.0618
     31 H          -3.2206   -2.5664   -0.0436 H       1  UNL1        0.0636
     32 H          -1.6472    1.7525    0.7380 H       1  UNL1        0.0476
     33 H          -2.1986    0.5375    1.9236 H       1  UNL1        0.0476
     34 H          -3.7293    2.3972    0.0520 H       1  UNL1        0.0439
     35 H          -3.8128    2.3162    1.8708 H       1  UNL1        0.0439
     36 H          -5.1782    0.4203    1.7064 H       1  UNL1        0.1220
     37 H          -5.1792   -0.9810   -0.1411 H       1  UNL1        0.0439
     38 H          -5.7252    0.4426   -1.0666 H       1  UNL1        0.0439
     39 H          -3.6048   -0.6769   -1.7997 H       1  UNL1        0.0476
     40 H          -3.5083    1.0946   -1.6376 H       1  UNL1        0.0476
     41 H           2.7716   -0.0756    2.3039 H       1  UNL1        0.0278
     42 H           1.2353    0.5533    1.6840 H       1  UNL1        0.0278
     43 H           2.4742    1.6828    2.2844 H       1  UNL1        0.0278
@<TRIPOS>BOND
     1     1     2    1
     2     2     3   ar
     3     3     4   ar
     4     4     5   ar
     5     5     6   ar
     6     6     7    1
     7     7     8    1
     8     8     9   ar
     9     9    10   ar
    10    10    11   ar
    11    11    12   ar
    12    12    13   ar
    13    13    14    1
    14    14    15    1
    15    15    16    1
    16    16    17    1
    17    17    18    1
    18    18    19    1
    19     6    20   ar
    20    20    21    1
    21    20     2   ar
    22    13     8   ar
    23    19    14    1
    24     1    22    1
    25     1    23    1
    26     1    24    1
    27     3    25    1
    28     4    26    1
    29     5    27    1
    30     9    28    1
    31    10    29    1
    32    11    30    1
    33    12    31    1
    34    15    32    1
    35    15    33    1
    36    16    34    1
    37    16    35    1
    38    17    36    1
    39    18    37    1
    40    18    38    1
    41    19    39    1
    42    19    40    1
    43    21    41    1
    44    21    42    1
    45    21    43    1
