
     RDKit          3D

 43 45  0  0  0  0  0  0  0  0999 V2000
    5.1909    0.8767    1.3842 C   0  0  0  0  0  0  0  0  0  0  0  0
    4.2760    0.8663    0.2176 C   0  0  0  0  0  0  0  0  0  0  0  0
    4.8495    0.9173   -1.0335 C   0  0  0  0  0  0  0  0  0  0  0  0
    4.0433    0.9101   -2.1515 C   0  0  0  0  0  0  0  0  0  0  0  0
    2.6743    0.8516   -1.9935 C   0  0  0  0  0  0  0  0  0  0  0  0
    2.0688    0.7996   -0.7565 C   0  0  0  0  0  0  0  0  0  0  0  0
    0.3275    0.7240   -0.5050 S   0  0  0  0  0  0  0  0  0  0  0  0
   -0.2888   -0.9437   -0.4428 C   0  0  0  0  0  0  0  0  0  0  0  0
    0.5848   -2.0181   -0.5871 C   0  0  0  0  0  0  0  0  0  0  0  0
    0.0708   -3.2980   -0.5333 C   0  0  0  0  0  0  0  0  0  0  0  0
   -1.2838   -3.4910   -0.3398 C   0  0  0  0  0  0  0  0  0  0  0  0
   -2.1432   -2.4199   -0.1976 C   0  0  0  0  0  0  0  0  0  0  0  0
   -1.6435   -1.1199   -0.2490 C   0  0  0  0  0  0  0  0  0  0  0  0
   -2.5207   -0.0094   -0.1036 N   0  0  0  0  0  0  0  0  0  0  0  0
   -2.4188    0.9773    0.9303 C   0  0  0  0  0  0  0  0  0  0  0  0
   -3.7501    1.7397    0.9433 C   0  0  0  0  0  0  0  0  0  0  0  0
   -4.8766    0.8796    0.8428 N   0  0  0  0  0  0  0  0  0  0  0  0
   -4.9493    0.0943   -0.3459 C   0  0  0  0  0  0  0  0  0  0  0  0
   -3.6167    0.1587   -1.0706 C   0  0  0  0  0  0  0  0  0  0  0  0
    2.8991    0.8082    0.3443 C   0  0  0  0  0  0  0  0  0  0  0  0
    2.3233    0.7548    1.6981 C   0  0  0  0  0  0  0  0  0  0  0  0
    5.5969    1.9219    1.4554 H   0  0  0  0  0  0  0  0  0  0  0  0
    6.0822    0.2105    1.1941 H   0  0  0  0  0  0  0  0  0  0  0  0
    4.6937    0.6362    2.3233 H   0  0  0  0  0  0  0  0  0  0  0  0
    5.9172    0.9639   -1.2008 H   0  0  0  0  0  0  0  0  0  0  0  0
    4.4571    0.9492   -3.1548 H   0  0  0  0  0  0  0  0  0  0  0  0
    1.9932    0.8436   -2.8527 H   0  0  0  0  0  0  0  0  0  0  0  0
    1.6570   -1.8371   -0.7398 H   0  0  0  0  0  0  0  0  0  0  0  0
    0.7553   -4.1401   -0.6464 H   0  0  0  0  0  0  0  0  0  0  0  0
   -1.6465   -4.5032   -0.3037 H   0  0  0  0  0  0  0  0  0  0  0  0
   -3.2206   -2.5664   -0.0436 H   0  0  0  0  0  0  0  0  0  0  0  0
   -1.6472    1.7525    0.7380 H   0  0  0  0  0  0  0  0  0  0  0  0
   -2.1986    0.5375    1.9236 H   0  0  0  0  0  0  0  0  0  0  0  0
   -3.7293    2.3972    0.0520 H   0  0  0  0  0  0  0  0  0  0  0  0
   -3.8128    2.3162    1.8708 H   0  0  0  0  0  0  0  0  0  0  0  0
   -5.1782    0.4203    1.7064 H   0  0  0  0  0  0  0  0  0  0  0  0
   -5.1792   -0.9810   -0.1411 H   0  0  0  0  0  0  0  0  0  0  0  0
   -5.7252    0.4426   -1.0666 H   0  0  0  0  0  0  0  0  0  0  0  0
   -3.6048   -0.6769   -1.7997 H   0  0  0  0  0  0  0  0  0  0  0  0
   -3.5083    1.0946   -1.6376 H   0  0  0  0  0  0  0  0  0  0  0  0
    2.7716   -0.0756    2.3039 H   0  0  0  0  0  0  0  0  0  0  0  0
    1.2353    0.5533    1.6840 H   0  0  0  0  0  0  0  0  0  0  0  0
    2.4742    1.6828    2.2844 H   0  0  0  0  0  0  0  0  0  0  0  0
  1  2  1  0
  2  3  2  0
  3  4  1  0
  4  5  2  0
  5  6  1  0
  6  7  1  0
  7  8  1  0
  8  9  2  0
  9 10  1  0
 10 11  2  0
 11 12  1  0
 12 13  2  0
 13 14  1  0
 14 15  1  0
 15 16  1  0
 16 17  1  0
 17 18  1  0
 18 19  1  0
  6 20  2  0
 20 21  1  0
 20  2  1  0
 13  8  1  0
 19 14  1  0
  1 22  1  0
  1 23  1  0
  1 24  1  0
  3 25  1  0
  4 26  1  0
  5 27  1  0
  9 28  1  0
 10 29  1  0
 11 30  1  0
 12 31  1  0
 15 32  1  0
 15 33  1  0
 16 34  1  0
 16 35  1  0
 17 36  1  0
 18 37  1  0
 18 38  1  0
 19 39  1  0
 19 40  1  0
 21 41  1  0
 21 42  1  0
 21 43  1  0
M  END
$$$$
