@<TRIPOS>MOLECULE
*****
 59 62 0 0 0
SMALL
GASTEIGER

@<TRIPOS>ATOM
      1 C          -5.1986   -1.9035    2.1876 C.3     1  UNL1       -0.0495
      2 C          -3.8779   -2.1873    2.8796 C.3     1  UNL1        0.0088
      3 N          -2.7826   -2.1971    1.9516 N.am    1  UNL1       -0.3140
      4 C          -2.4279   -1.0729    1.1172 C.2     1  UNL1        0.2336
      5 O          -3.1308   -0.0669    1.2386 O.2     1  UNL1       -0.2738
      6 C          -1.2997   -1.1426    0.1857 C.3     1  UNL1        0.1042
      7 C          -0.0470   -0.6376    0.9262 C.3     1  UNL1       -0.0058
      8 C           0.7396    0.0396   -0.1318 C.3     1  UNL1        0.0414
      9 N           2.1587   -0.2805   -0.1197 N.am    1  UNL1       -0.3057
     10 C           3.1465    0.7323   -0.1535 C.2     1  UNL1        0.2623
     11 O           2.6987    1.9313   -0.1967 O.2     1  UNL1       -0.2685
     12 C           4.5659    0.5077   -0.1433 C.ar    1  UNL1        0.1232
     13 C           5.5037    1.5582   -0.2050 C.ar    1  UNL1       -0.0086
     14 C           6.7606    1.0281   -0.1788 C.ar    1  UNL1        0.0635
     15 C           8.0817    1.6815   -0.2254 C.3     1  UNL1       -0.0115
     16 C           9.1802    0.6561   -0.1790 C.3     1  UNL1       -0.0598
     17 N           6.5736   -0.3059   -0.1027 N.ar    1  UNL1       -0.1758
     18 N           5.2726   -0.6011   -0.0825 N.ar    1  UNL1       -0.2620
     19 C           4.8100   -1.9704    0.0033 C.3     1  UNL1        0.0310
     20 C           0.0933   -0.3337   -1.4395 C.3     1  UNL1        0.0343
     21 N          -1.3355   -0.4184   -1.0166 N.am    1  UNL1       -0.2840
     22 C          -2.3531    0.1067   -1.8110 C.2     1  UNL1        0.2509
     23 O          -1.9489    0.6525   -2.9365 O.2     1  UNL1       -0.2698
     24 C          -3.7759    0.1457   -1.6092 C.ar    1  UNL1        0.0823
     25 C          -4.6826   -0.8719   -1.8723 C.ar    1  UNL1        0.1053
     26 O          -5.8808   -0.4576   -1.5628 O.2     1  UNL1       -0.4621
     27 C          -5.8549    0.7777   -1.1047 C.ar    1  UNL1        0.1355
     28 C          -6.8718    1.6033   -0.6663 C.ar    1  UNL1       -0.0187
     29 C          -6.5776    2.8796   -0.2282 C.ar    1  UNL1       -0.0582
     30 C          -5.2727    3.2862   -0.2440 C.ar    1  UNL1       -0.0610
     31 C          -4.2705    2.4639   -0.6797 C.ar    1  UNL1       -0.0503
     32 C          -4.5392    1.1735   -1.1261 C.ar    1  UNL1        0.0323
     33 H          -5.7206   -1.0575    2.6646 H       1  UNL1        0.0245
     34 H          -5.0487   -1.7536    1.0966 H       1  UNL1        0.0245
     35 H          -5.8417   -2.7969    2.2958 H       1  UNL1        0.0245
     36 H          -3.9193   -3.2063    3.3735 H       1  UNL1        0.0459
     37 H          -3.7308   -1.4542    3.6718 H       1  UNL1        0.0459
     38 H          -2.1974   -3.0370    1.8500 H       1  UNL1        0.1487
     39 H          -1.0996   -2.2335   -0.1138 H       1  UNL1        0.0597
     40 H           0.4807   -1.4904    1.4012 H       1  UNL1        0.0306
     41 H          -0.4156    0.0124    1.7434 H       1  UNL1        0.0306
     42 H           0.6156    1.1380   -0.0439 H       1  UNL1        0.0514
     43 H           2.3966   -1.2828   -0.0838 H       1  UNL1        0.1494
     44 H           5.2899    2.6146   -0.2637 H       1  UNL1        0.0659
     45 H           8.1869    2.2063   -1.2220 H       1  UNL1        0.0326
     46 H           8.2620    2.4319    0.5435 H       1  UNL1        0.0326
     47 H           9.0829   -0.0265   -1.0746 H       1  UNL1        0.0233
     48 H           9.1215   -0.0067    0.6984 H       1  UNL1        0.0233
     49 H          10.1801    1.1037   -0.2559 H       1  UNL1        0.0233
     50 H           5.6982   -2.6780    0.0889 H       1  UNL1        0.0473
     51 H           4.2882   -2.3300   -0.9040 H       1  UNL1        0.0473
     52 H           4.2602   -2.1662    0.9566 H       1  UNL1        0.0473
     53 H           0.2306    0.4648   -2.1860 H       1  UNL1        0.0483
     54 H           0.4172   -1.2866   -1.8586 H       1  UNL1        0.0483
     55 H          -4.4353   -1.8436   -2.2677 H       1  UNL1        0.1037
     56 H          -7.9081    1.3060   -0.6444 H       1  UNL1        0.0654
     57 H          -7.3860    3.5446    0.1230 H       1  UNL1        0.0619
     58 H          -5.0356    4.2813    0.0940 H       1  UNL1        0.0618
     59 H          -3.2292    2.7698   -0.6986 H       1  UNL1        0.0625
@<TRIPOS>BOND
     1     1     2    1
     2     2     3    1
     3     3     4   am
     4     4     5    2
     5     4     6    1
     6     6     7    1
     7     7     8    1
     8     8     9    1
     9     9    10   am
    10    10    11    2
    11    10    12    1
    12    12    13   ar
    13    13    14   ar
    14    14    15    1
    15    15    16    1
    16    14    17   ar
    17    17    18   ar
    18    18    19    1
    19     8    20    1
    20    20    21    1
    21    21    22   am
    22    22    23    2
    23    22    24    1
    24    24    25   ar
    25    25    26   ar
    26    26    27   ar
    27    27    28   ar
    28    28    29   ar
    29    29    30   ar
    30    30    31   ar
    31    31    32   ar
    32    21     6    1
    33    32    24   ar
    34    18    12   ar
    35    32    27   ar
    36     1    33    1
    37     1    34    1
    38     1    35    1
    39     2    36    1
    40     2    37    1
    41     3    38    1
    42     6    39    1
    43     7    40    1
    44     7    41    1
    45     8    42    1
    46     9    43    1
    47    13    44    1
    48    15    45    1
    49    15    46    1
    50    16    47    1
    51    16    48    1
    52    16    49    1
    53    19    50    1
    54    19    51    1
    55    19    52    1
    56    20    53    1
    57    20    54    1
    58    25    55    1
    59    28    56    1
    60    29    57    1
    61    30    58    1
    62    31    59    1
