
     RDKit          3D

 59 62  0  0  0  0  0  0  0  0999 V2000
   -5.1986   -1.9035    2.1876 C   0  0  0  0  0  0  0  0  0  0  0  0
   -3.8779   -2.1873    2.8796 C   0  0  0  0  0  0  0  0  0  0  0  0
   -2.7826   -2.1971    1.9516 N   0  0  0  0  0  0  0  0  0  0  0  0
   -2.4279   -1.0729    1.1172 C   0  0  0  0  0  0  0  0  0  0  0  0
   -3.1308   -0.0669    1.2386 O   0  0  0  0  0  0  0  0  0  0  0  0
   -1.2997   -1.1426    0.1857 C   0  0  2  0  0  0  0  0  0  0  0  0
   -0.0470   -0.6376    0.9262 C   0  0  0  0  0  0  0  0  0  0  0  0
    0.7396    0.0396   -0.1318 C   0  0  1  0  0  0  0  0  0  0  0  0
    2.1587   -0.2805   -0.1197 N   0  0  0  0  0  0  0  0  0  0  0  0
    3.1465    0.7323   -0.1535 C   0  0  0  0  0  0  0  0  0  0  0  0
    2.6987    1.9313   -0.1967 O   0  0  0  0  0  0  0  0  0  0  0  0
    4.5659    0.5077   -0.1433 C   0  0  0  0  0  0  0  0  0  0  0  0
    5.5037    1.5582   -0.2050 C   0  0  0  0  0  0  0  0  0  0  0  0
    6.7606    1.0281   -0.1788 C   0  0  0  0  0  0  0  0  0  0  0  0
    8.0817    1.6815   -0.2254 C   0  0  0  0  0  0  0  0  0  0  0  0
    9.1802    0.6561   -0.1790 C   0  0  0  0  0  0  0  0  0  0  0  0
    6.5736   -0.3059   -0.1027 N   0  0  0  0  0  0  0  0  0  0  0  0
    5.2726   -0.6011   -0.0825 N   0  0  0  0  0  0  0  0  0  0  0  0
    4.8100   -1.9704    0.0033 C   0  0  0  0  0  0  0  0  0  0  0  0
    0.0933   -0.3337   -1.4395 C   0  0  0  0  0  0  0  0  0  0  0  0
   -1.3355   -0.4184   -1.0166 N   0  0  0  0  0  0  0  0  0  0  0  0
   -2.3531    0.1067   -1.8110 C   0  0  0  0  0  0  0  0  0  0  0  0
   -1.9489    0.6525   -2.9365 O   0  0  0  0  0  0  0  0  0  0  0  0
   -3.7759    0.1457   -1.6092 C   0  0  0  0  0  0  0  0  0  0  0  0
   -4.6826   -0.8719   -1.8723 C   0  0  0  0  0  0  0  0  0  0  0  0
   -5.8808   -0.4576   -1.5628 O   0  0  0  0  0  0  0  0  0  0  0  0
   -5.8549    0.7777   -1.1047 C   0  0  0  0  0  0  0  0  0  0  0  0
   -6.8718    1.6033   -0.6663 C   0  0  0  0  0  0  0  0  0  0  0  0
   -6.5776    2.8796   -0.2282 C   0  0  0  0  0  0  0  0  0  0  0  0
   -5.2727    3.2862   -0.2440 C   0  0  0  0  0  0  0  0  0  0  0  0
   -4.2705    2.4639   -0.6797 C   0  0  0  0  0  0  0  0  0  0  0  0
   -4.5392    1.1735   -1.1261 C   0  0  0  0  0  0  0  0  0  0  0  0
   -5.7206   -1.0575    2.6646 H   0  0  0  0  0  0  0  0  0  0  0  0
   -5.0487   -1.7536    1.0966 H   0  0  0  0  0  0  0  0  0  0  0  0
   -5.8417   -2.7969    2.2958 H   0  0  0  0  0  0  0  0  0  0  0  0
   -3.9193   -3.2063    3.3735 H   0  0  0  0  0  0  0  0  0  0  0  0
   -3.7308   -1.4542    3.6718 H   0  0  0  0  0  0  0  0  0  0  0  0
   -2.1974   -3.0370    1.8500 H   0  0  0  0  0  0  0  0  0  0  0  0
   -1.0996   -2.2335   -0.1138 H   0  0  0  0  0  0  0  0  0  0  0  0
    0.4807   -1.4904    1.4012 H   0  0  0  0  0  0  0  0  0  0  0  0
   -0.4156    0.0124    1.7434 H   0  0  0  0  0  0  0  0  0  0  0  0
    0.6156    1.1380   -0.0439 H   0  0  0  0  0  0  0  0  0  0  0  0
    2.3966   -1.2828   -0.0838 H   0  0  0  0  0  0  0  0  0  0  0  0
    5.2899    2.6146   -0.2637 H   0  0  0  0  0  0  0  0  0  0  0  0
    8.1869    2.2063   -1.2220 H   0  0  0  0  0  0  0  0  0  0  0  0
    8.2620    2.4319    0.5435 H   0  0  0  0  0  0  0  0  0  0  0  0
    9.0829   -0.0265   -1.0746 H   0  0  0  0  0  0  0  0  0  0  0  0
    9.1215   -0.0067    0.6984 H   0  0  0  0  0  0  0  0  0  0  0  0
   10.1801    1.1037   -0.2559 H   0  0  0  0  0  0  0  0  0  0  0  0
    5.6982   -2.6780    0.0889 H   0  0  0  0  0  0  0  0  0  0  0  0
    4.2882   -2.3300   -0.9040 H   0  0  0  0  0  0  0  0  0  0  0  0
    4.2602   -2.1662    0.9566 H   0  0  0  0  0  0  0  0  0  0  0  0
    0.2306    0.4648   -2.1860 H   0  0  0  0  0  0  0  0  0  0  0  0
    0.4172   -1.2866   -1.8586 H   0  0  0  0  0  0  0  0  0  0  0  0
   -4.4353   -1.8436   -2.2677 H   0  0  0  0  0  0  0  0  0  0  0  0
   -7.9081    1.3060   -0.6444 H   0  0  0  0  0  0  0  0  0  0  0  0
   -7.3860    3.5446    0.1230 H   0  0  0  0  0  0  0  0  0  0  0  0
   -5.0356    4.2813    0.0940 H   0  0  0  0  0  0  0  0  0  0  0  0
   -3.2292    2.7698   -0.6986 H   0  0  0  0  0  0  0  0  0  0  0  0
  1  2  1  0
  2  3  1  0
  3  4  1  0
  4  5  2  0
  4  6  1  0
  6  7  1  0
  7  8  1  0
  8  9  1  0
  9 10  1  0
 10 11  2  0
 10 12  1  0
 12 13  2  0
 13 14  1  0
 14 15  1  0
 15 16  1  0
 14 17  2  0
 17 18  1  0
 18 19  1  0
  8 20  1  0
 20 21  1  0
 21 22  1  0
 22 23  2  0
 22 24  1  0
 24 25  2  0
 25 26  1  0
 26 27  1  0
 27 28  2  0
 28 29  1  0
 29 30  2  0
 30 31  1  0
 31 32  2  0
 21  6  1  0
 32 24  1  0
 18 12  1  0
 32 27  1  0
  1 33  1  0
  1 34  1  0
  1 35  1  0
  2 36  1  0
  2 37  1  0
  3 38  1  0
  6 39  1  6
  7 40  1  0
  7 41  1  0
  8 42  1  1
  9 43  1  0
 13 44  1  0
 15 45  1  0
 15 46  1  0
 16 47  1  0
 16 48  1  0
 16 49  1  0
 19 50  1  0
 19 51  1  0
 19 52  1  0
 20 53  1  0
 20 54  1  0
 25 55  1  0
 28 56  1  0
 29 57  1  0
 30 58  1  0
 31 59  1  0
M  END
$$$$
