@<TRIPOS>MOLECULE
*****
 122 121 0 0 0
SMALL
GASTEIGER

@<TRIPOS>ATOM
      1 C           9.8149   -1.8039   -0.5356 C.2     1  UNL1       -0.0879
      2 C          11.0235   -1.0278   -0.9131 C.3     1  UNL1       -0.0348
      3 C          11.8631   -0.6713    0.2765 C.3     1  UNL1       -0.0496
      4 C          13.0945    0.1014   -0.0564 C.3     1  UNL1       -0.0528
      5 C          12.8552    1.4082   -0.7350 C.3     1  UNL1       -0.0533
      6 C          14.2062    2.0586   -0.9978 C.3     1  UNL1       -0.0559
      7 C          15.0448    1.1749   -1.8806 C.3     1  UNL1       -0.0653
      8 C           8.5288   -1.5200   -0.7076 C.2     1  UNL1       -0.0879
      9 C           7.8795   -0.3543   -1.3224 C.3     1  UNL1       -0.0348
     10 C           6.9840    0.3661   -0.3320 C.3     1  UNL1       -0.0496
     11 C           5.8915   -0.4875    0.2233 C.3     1  UNL1       -0.0528
     12 C           5.0490    0.3384    1.1895 C.3     1  UNL1       -0.0530
     13 C           5.7949    0.8987    2.3346 C.3     1  UNL1       -0.0526
     14 C           5.0541    1.7327    3.3261 C.3     1  UNL1       -0.0430
     15 C           3.9338    1.1232    4.0685 C.3     1  UNL1        0.0450
     16 C           2.8229    0.7183    3.1943 C.2     1  UNL1        0.3075
     17 O           2.2614   -0.3932    3.4920 O.2     1  UNL1       -0.2508
     18 O           2.2450    1.3060    2.0931 O.3     1  UNL1       -0.4555
     19 C           1.1723    0.7759    1.3772 C.3     1  UNL1        0.1605
     20 C           0.0402    1.7636    1.4251 C.3     1  UNL1        0.1315
     21 O          -1.0768    1.3462    0.7146 O.3     1  UNL1       -0.4608
     22 C          -1.7877    0.2010    0.9583 C.2     1  UNL1        0.3072
     23 O          -1.4341   -0.5799    1.9016 O.2     1  UNL1       -0.2509
     24 C          -2.8947    0.1476   -0.0280 C.3     1  UNL1        0.0449
     25 C          -3.7449   -1.1043    0.1012 C.3     1  UNL1       -0.0430
     26 C          -4.8415   -1.1522   -0.8827 C.3     1  UNL1       -0.0526
     27 C          -5.8615   -0.1081   -0.9559 C.3     1  UNL1       -0.0530
     28 C          -6.8361    0.1502    0.1176 C.3     1  UNL1       -0.0528
     29 C          -6.2634    0.4997    1.4303 C.3     1  UNL1       -0.0496
     30 C          -7.3591    0.8255    2.4612 C.3     1  UNL1       -0.0348
     31 C          -8.2827   -0.2993    2.6370 C.2     1  UNL1       -0.0879
     32 C          -9.5980   -0.1176    2.3879 C.2     1  UNL1       -0.0879
     33 C         -10.3559    1.0420    1.9502 C.3     1  UNL1       -0.0348
     34 C         -11.1119    0.8463    0.6222 C.3     1  UNL1       -0.0496
     35 C         -12.0806   -0.2456    0.6881 C.3     1  UNL1       -0.0528
     36 C         -12.9793   -0.5893   -0.4444 C.3     1  UNL1       -0.0530
     37 C         -12.4188   -0.9630   -1.7564 C.3     1  UNL1       -0.0531
     38 C         -11.7528    0.0129   -2.6306 C.3     1  UNL1       -0.0533
     39 C         -12.5835    1.1023   -3.2171 C.3     1  UNL1       -0.0559
     40 C         -13.3205    2.0318   -2.3455 C.3     1  UNL1       -0.0653
     41 C           1.6199    0.4563   -0.0437 C.3     1  UNL1        0.0993
     42 O           0.5499   -0.0764   -0.7721 O.3     1  UNL1       -0.2828
     43 P           1.0807   -0.7719   -2.2341 P.3     1  UNL1        0.4751
     44 O          -0.0796   -1.8737   -2.8114 O.3     1  UNL1       -0.3025
     45 O           1.2245    0.3317   -3.2395 O.2     1  UNL1       -0.2273
     46 O           2.5792   -1.5107   -2.0187 O.3     1  UNL1       -0.2844
     47 C           2.4122   -2.8818   -1.7588 C.3     1  UNL1        0.0822
     48 C           3.7918   -3.4544   -1.4653 C.3     1  UNL1        0.0681
     49 O           4.6156   -3.2678   -2.5577 O.3     1  UNL1       -0.3927
     50 H          10.0565   -2.7435   -0.0491 H       1  UNL1        0.0569
     51 H          11.6450   -1.7249   -1.5462 H       1  UNL1        0.0307
     52 H          10.7959   -0.1825   -1.5763 H       1  UNL1        0.0307
     53 H          12.1772   -1.6262    0.7444 H       1  UNL1        0.0268
     54 H          11.2681   -0.1244    1.0519 H       1  UNL1        0.0268
     55 H          13.8242   -0.5169   -0.6214 H       1  UNL1        0.0265
     56 H          13.6099    0.3016    0.9252 H       1  UNL1        0.0265
     57 H          12.1959    2.0551   -0.1443 H       1  UNL1        0.0265
     58 H          12.3975    1.1637   -1.7368 H       1  UNL1        0.0265
     59 H          14.0601    3.0767   -1.4348 H       1  UNL1        0.0263
     60 H          14.7640    2.2176   -0.0460 H       1  UNL1        0.0263
     61 H          14.3677    0.5313   -2.4787 H       1  UNL1        0.0230
     62 H          15.6944    0.5169   -1.2720 H       1  UNL1        0.0230
     63 H          15.6549    1.8369   -2.5369 H       1  UNL1        0.0230
     64 H           7.7743   -2.2140   -0.3682 H       1  UNL1        0.0569
     65 H           8.6577    0.3262   -1.7188 H       1  UNL1        0.0307
     66 H           7.2749   -0.6850   -2.2081 H       1  UNL1        0.0307
     67 H           6.5382    1.2179   -0.8404 H       1  UNL1        0.0268
     68 H           7.6602    0.6465    0.5092 H       1  UNL1        0.0268
     69 H           6.2676   -1.3934    0.7332 H       1  UNL1        0.0265
     70 H           5.1893   -0.8005   -0.5802 H       1  UNL1        0.0265
     71 H           4.5116    1.1310    0.6571 H       1  UNL1        0.0265
     72 H           4.2870   -0.3755    1.5948 H       1  UNL1        0.0265
     73 H           6.2419    0.0465    2.9214 H       1  UNL1        0.0265
     74 H           6.6795    1.5189    2.0287 H       1  UNL1        0.0265
     75 H           5.8384    2.1536    4.0305 H       1  UNL1        0.0270
     76 H           4.7258    2.6617    2.7687 H       1  UNL1        0.0270
     77 H           4.3364    0.2365    4.6370 H       1  UNL1        0.0377
     78 H           3.5981    1.8776    4.8357 H       1  UNL1        0.0377
     79 H           0.8726   -0.1720    1.8915 H       1  UNL1        0.0792
     80 H          -0.2086    1.9111    2.5027 H       1  UNL1        0.0736
     81 H           0.3718    2.7654    1.0550 H       1  UNL1        0.0736
     82 H          -3.5443    1.0374    0.0019 H       1  UNL1        0.0377
     83 H          -2.4453    0.1439   -1.0556 H       1  UNL1        0.0377
     84 H          -3.0273   -1.9607   -0.2353 H       1  UNL1        0.0270
     85 H          -3.9363   -1.3165    1.1327 H       1  UNL1        0.0270
     86 H          -4.3555   -1.2880   -1.9130 H       1  UNL1        0.0265
     87 H          -5.3989   -2.1330   -0.6649 H       1  UNL1        0.0265
     88 H          -5.3522    0.8886   -1.2333 H       1  UNL1        0.0265
     89 H          -6.4776   -0.2707   -1.9123 H       1  UNL1        0.0265
     90 H          -7.4809    1.0207   -0.2605 H       1  UNL1        0.0265
     91 H          -7.5736   -0.7065    0.1855 H       1  UNL1        0.0265
     92 H          -5.5307    1.3101    1.3462 H       1  UNL1        0.0268
     93 H          -5.7209   -0.3888    1.8612 H       1  UNL1        0.0268
     94 H          -7.7874    1.7809    2.1785 H       1  UNL1        0.0307
     95 H          -6.8192    0.9720    3.4412 H       1  UNL1        0.0307
     96 H          -7.8857   -1.2501    2.9646 H       1  UNL1        0.0569
     97 H         -10.2529   -0.9719    2.5267 H       1  UNL1        0.0569
     98 H          -9.7859    1.9720    1.8318 H       1  UNL1        0.0307
     99 H         -11.1761    1.2990    2.6796 H       1  UNL1        0.0307
    100 H         -11.5765    1.7949    0.3310 H       1  UNL1        0.0268
    101 H         -10.3402    0.6000   -0.1578 H       1  UNL1        0.0268
    102 H         -11.5447   -1.2414    0.9423 H       1  UNL1        0.0265
    103 H         -12.7663   -0.1683    1.5927 H       1  UNL1        0.0265
    104 H         -13.7065   -1.4140   -0.1339 H       1  UNL1        0.0265
    105 H         -13.7017    0.2935   -0.5285 H       1  UNL1        0.0265
    106 H         -11.6258   -1.7695   -1.5190 H       1  UNL1        0.0265
    107 H         -13.1655   -1.5789   -2.3606 H       1  UNL1        0.0265
    108 H         -11.4479   -0.6231   -3.5687 H       1  UNL1        0.0265
    109 H         -10.7871    0.3913   -2.2976 H       1  UNL1        0.0265
    110 H         -11.8820    1.7156   -3.8551 H       1  UNL1        0.0263
    111 H         -13.3187    0.6618   -3.9641 H       1  UNL1        0.0263
    112 H         -14.3993    1.7414   -2.2313 H       1  UNL1        0.0230
    113 H         -12.8522    2.3504   -1.4156 H       1  UNL1        0.0230
    114 H         -13.4064    3.0163   -2.9376 H       1  UNL1        0.0230
    115 H           1.9860    1.3378   -0.5805 H       1  UNL1        0.0604
    116 H           2.4510   -0.2867    0.0270 H       1  UNL1        0.0604
    117 H          -0.3779   -2.4467   -2.0494 H       1  UNL1        0.2220
    118 H           2.0047   -3.3988   -2.6474 H       1  UNL1        0.0588
    119 H           1.7341   -3.0642   -0.9115 H       1  UNL1        0.0588
    120 H           4.2213   -2.9857   -0.5512 H       1  UNL1        0.0580
    121 H           3.6506   -4.5363   -1.2270 H       1  UNL1        0.0580
    122 H           5.5035   -3.6669   -2.3944 H       1  UNL1        0.2095
@<TRIPOS>BOND
     1     1     2    1
     2     2     3    1
     3     3     4    1
     4     4     5    1
     5     5     6    1
     6     6     7    1
     7     1     8    2
     8     8     9    1
     9     9    10    1
    10    10    11    1
    11    11    12    1
    12    12    13    1
    13    13    14    1
    14    14    15    1
    15    15    16    1
    16    16    17    2
    17    16    18    1
    18    18    19    1
    19    19    20    1
    20    20    21    1
    21    21    22    1
    22    22    23    2
    23    22    24    1
    24    24    25    1
    25    25    26    1
    26    26    27    1
    27    27    28    1
    28    28    29    1
    29    29    30    1
    30    30    31    1
    31    31    32    2
    32    32    33    1
    33    33    34    1
    34    34    35    1
    35    35    36    1
    36    36    37    1
    37    37    38    1
    38    38    39    1
    39    39    40    1
    40    19    41    1
    41    41    42    1
    42    42    43    1
    43    43    44    1
    44    43    45    2
    45    43    46    1
    46    46    47    1
    47    47    48    1
    48    48    49    1
    49     1    50    1
    50     2    51    1
    51     2    52    1
    52     3    53    1
    53     3    54    1
    54     4    55    1
    55     4    56    1
    56     5    57    1
    57     5    58    1
    58     6    59    1
    59     6    60    1
    60     7    61    1
    61     7    62    1
    62     7    63    1
    63     8    64    1
    64     9    65    1
    65     9    66    1
    66    10    67    1
    67    10    68    1
    68    11    69    1
    69    11    70    1
    70    12    71    1
    71    12    72    1
    72    13    73    1
    73    13    74    1
    74    14    75    1
    75    14    76    1
    76    15    77    1
    77    15    78    1
    78    19    79    1
    79    20    80    1
    80    20    81    1
    81    24    82    1
    82    24    83    1
    83    25    84    1
    84    25    85    1
    85    26    86    1
    86    26    87    1
    87    27    88    1
    88    27    89    1
    89    28    90    1
    90    28    91    1
    91    29    92    1
    92    29    93    1
    93    30    94    1
    94    30    95    1
    95    31    96    1
    96    32    97    1
    97    33    98    1
    98    33    99    1
    99    34   100    1
   100    34   101    1
   101    35   102    1
   102    35   103    1
   103    36   104    1
   104    36   105    1
   105    37   106    1
   106    37   107    1
   107    38   108    1
   108    38   109    1
   109    39   110    1
   110    39   111    1
   111    40   112    1
   112    40   113    1
   113    40   114    1
   114    41   115    1
   115    41   116    1
   116    44   117    1
   117    47   118    1
   118    47   119    1
   119    48   120    1
   120    48   121    1
   121    49   122    1
