@<TRIPOS>MOLECULE
*****
 57 61 0 0 0
SMALL
GASTEIGER

@<TRIPOS>ATOM
      1 C          -0.6868   -2.9343   -1.5503 C.3     1  UNL1       -0.0351
      2 C          -0.7067   -1.5016   -0.9133 C.3     1  UNL1        0.0950
      3 C           0.1823   -0.7169   -1.8608 C.ar    1  UNL1        0.0349
      4 C           1.4317   -0.2965   -1.4390 C.ar    1  UNL1       -0.0433
      5 C           2.2578    0.3823   -2.2999 C.ar    1  UNL1       -0.0036
      6 C           3.6017    0.8310   -1.9670 C.2     1  UNL1       -0.0157
      7 C           4.4279    0.1422   -1.2277 C.2     1  UNL1        0.1492
      8 F           3.9361   -1.0512   -0.7783 F       1  UNL1       -0.2032
      9 C           5.7870    0.5187   -0.8698 C.ar    1  UNL1        0.0990
     10 C           6.5362   -0.3436   -0.0595 C.ar    1  UNL1       -0.0322
     11 C           7.8399   -0.0542    0.2924 C.ar    1  UNL1       -0.0408
     12 C           8.4138    1.0975   -0.1567 C.ar    1  UNL1        0.0699
     13 C           9.8120    1.3975    0.2045 C.1     1  UNL1        0.1007
     14 N          10.8774    1.6265    0.4983 N.1     1  UNL1       -0.1908
     15 C           7.6922    1.9586   -0.9508 C.ar    1  UNL1        0.0457
     16 N           6.3930    1.6309   -1.2793 N.ar    1  UNL1       -0.2514
     17 C           1.7890    0.6196   -3.5715 C.ar    1  UNL1        0.0379
     18 N           0.5647    0.2142   -3.9986 N.ar    1  UNL1       -0.2267
     19 C          -0.2275   -0.4543   -3.1297 C.ar    1  UNL1        0.2187
     20 F          -1.4556   -0.8639   -3.5200 F       1  UNL1       -0.1835
     21 N           0.0158   -1.5625    0.3065 N.2     1  UNL1       -0.2520
     22 C          -0.2920   -1.2834    1.4930 C.2     1  UNL1        0.1485
     23 N           0.6536   -1.4455    2.5341 N.pl3   1  UNL1       -0.3380
     24 S          -1.9186   -0.6910    1.8357 S.3     1  UNL1       -0.0746
     25 C          -2.7650   -0.5035    0.2410 C.3     1  UNL1        0.1054
     26 C          -4.2620   -0.6524    0.3179 C.2     1  UNL1        0.2326
     27 O          -4.7030   -1.8004    0.0624 O.2     1  UNL1       -0.2741
     28 N          -5.1623    0.3649    0.6467 N.am    1  UNL1       -0.2960
     29 C          -6.6161    0.1201    0.7289 C.3     1  UNL1        0.0382
     30 C          -6.9142    0.1227    2.2242 C.3     1  UNL1        0.0635
     31 O          -6.2082    1.1336    2.8650 O.3     1  UNL1       -0.3767
     32 C          -5.7817    2.1554    2.0568 C.3     1  UNL1        0.0635
     33 C          -4.7986    1.7406    0.9777 C.3     1  UNL1        0.0382
     34 C          -2.2642    0.4703   -0.7319 C.3     1  UNL1       -0.0220
     35 C          -2.0705   -0.9945   -0.9347 C.3     1  UNL1        0.0135
     36 H          -1.5261   -3.5337   -1.2061 H       1  UNL1        0.0256
     37 H           0.3250   -3.3775   -1.2915 H       1  UNL1        0.0256
     38 H          -0.6832   -2.7792   -2.6369 H       1  UNL1        0.0256
     39 H           1.7579   -0.4919   -0.4264 H       1  UNL1        0.0629
     40 H           3.9422    1.7928   -2.3523 H       1  UNL1        0.0653
     41 H           6.0356   -1.2477    0.2787 H       1  UNL1        0.0640
     42 H           8.4240   -0.7135    0.9086 H       1  UNL1        0.0631
     43 H           8.1455    2.8665   -1.3010 H       1  UNL1        0.0843
     44 H           2.3950    1.1579   -4.3220 H       1  UNL1        0.0836
     45 H           0.4523   -2.0470    3.3876 H       1  UNL1        0.1442
     46 H           1.6110   -0.9962    2.5435 H       1  UNL1        0.1442
     47 H          -6.9341   -0.7793    0.2135 H       1  UNL1        0.0487
     48 H          -7.1065    1.0077    0.2989 H       1  UNL1        0.0487
     49 H          -6.5282   -0.8327    2.6248 H       1  UNL1        0.0575
     50 H          -8.0093    0.1443    2.4034 H       1  UNL1        0.0575
     51 H          -6.6234    2.7248    1.5696 H       1  UNL1        0.0575
     52 H          -5.2600    2.8899    2.7044 H       1  UNL1        0.0575
     53 H          -3.7954    1.8474    1.3726 H       1  UNL1        0.0487
     54 H          -4.9506    2.4147    0.1077 H       1  UNL1        0.0487
     55 H          -2.9555    1.0399   -1.4014 H       1  UNL1        0.0287
     56 H          -1.3536    1.0528   -0.4885 H       1  UNL1        0.0287
     57 H          -2.7417   -1.5170   -1.6795 H       1  UNL1        0.0346
@<TRIPOS>BOND
     1     2     1    1
     2     2     3    1
     3     3     4   ar
     4     4     5   ar
     5     5     6    1
     6     6     7    2
     7     7     8    1
     8     7     9    1
     9     9    10   ar
    10    10    11   ar
    11    11    12   ar
    12    12    13    1
    13    13    14    3
    14    12    15   ar
    15    15    16   ar
    16     5    17   ar
    17    17    18   ar
    18    18    19   ar
    19    19    20    1
    20     2    21    1
    21    21    22    2
    22    22    23    1
    23    22    24    1
    24    24    25    1
    25    25    26    1
    26    26    27    2
    27    26    28   am
    28    28    29    1
    29    29    30    1
    30    30    31    1
    31    31    32    1
    32    32    33    1
    33    25    34    1
    34    34    35    1
    35    35     2    1
    36    19     3   ar
    37    35    25    1
    38    16     9   ar
    39    33    28    1
    40     1    36    1
    41     1    37    1
    42     1    38    1
    43     4    39    1
    44     6    40    1
    45    10    41    1
    46    11    42    1
    47    15    43    1
    48    17    44    1
    49    23    45    1
    50    23    46    1
    51    29    47    1
    52    29    48    1
    53    30    49    1
    54    30    50    1
    55    32    51    1
    56    32    52    1
    57    33    53    1
    58    33    54    1
    59    34    55    1
    60    34    56    1
    61    35    57    1
