@<TRIPOS>MOLECULE
*****
 60 64 0 0 0
SMALL
GASTEIGER

@<TRIPOS>ATOM
      1 C           7.2929    4.3317   -2.4655 C.3     1  UNL1        0.0788
      2 O           7.8331    3.5817   -1.4098 O.3     1  UNL1       -0.4950
      3 C           7.1077    2.5673   -0.7815 C.ar    1  UNL1        0.1221
      4 C           5.8318    2.3142   -1.2255 C.ar    1  UNL1       -0.0192
      5 C           5.0779    1.3201   -0.6336 C.ar    1  UNL1       -0.0485
      6 C           5.6083    0.5892    0.3967 C.ar    1  UNL1        0.0079
      7 C           5.0367   -0.4684    1.1579 C.ar    1  UNL1        0.0146
      8 C           3.7253   -0.9748    0.8763 C.2     1  UNL1       -0.0469
      9 C           2.9320   -1.6000    1.6647 C.2     1  UNL1        0.0011
     10 C           1.5913   -2.0886    1.2555 C.2     1  UNL1        0.2411
     11 O           0.9025   -2.6909    2.1169 O.2     1  UNL1       -0.2705
     12 N           1.0387   -1.9251   -0.0257 N.am    1  UNL1       -0.2820
     13 C          -0.2688   -2.4225   -0.3627 C.ar    1  UNL1        0.0342
     14 C          -0.4583   -3.6892   -0.8710 C.ar    1  UNL1       -0.0404
     15 C          -1.7027   -4.1781   -1.1959 C.ar    1  UNL1       -0.0595
     16 C          -2.8205   -3.3547   -1.0018 C.ar    1  UNL1       -0.0545
     17 C          -2.6804   -2.0851   -0.4979 C.ar    1  UNL1       -0.0232
     18 C          -3.8104   -1.2072   -0.2829 C.2     1  UNL1       -0.0525
     19 C          -5.0369   -1.5531   -0.5485 C.2     1  UNL1       -0.0357
     20 C          -6.1640   -0.6073   -0.3070 C.ar    1  UNL1        0.0646
     21 C          -7.4495   -0.9970   -0.5948 C.ar    1  UNL1       -0.0357
     22 C          -8.5315   -0.1380   -0.3810 C.ar    1  UNL1       -0.0506
     23 C          -8.2999    1.1267    0.1298 C.ar    1  UNL1        0.0005
     24 C          -9.3393    2.0051    0.3558 C.ar    1  UNL1       -0.0512
     25 C          -9.0950    3.2785    0.8714 C.ar    1  UNL1       -0.0427
     26 C          -7.7922    3.6487    1.1535 C.ar    1  UNL1        0.0430
     27 CL         -7.4707    5.2562    1.8058 Cl      1  UNL1       -0.0835
     28 C          -6.7795    2.7477    0.9159 C.ar    1  UNL1       -0.0174
     29 C          -6.9873    1.4845    0.4082 C.ar    1  UNL1        0.0730
     30 N          -5.9658    0.6221    0.1866 N.ar    1  UNL1       -0.2472
     31 C          -1.3806   -1.6405   -0.1840 C.ar    1  UNL1       -0.0333
     32 CA          6.0214   -0.8137    2.0406 C.ar    1  UNL1        0.1325
     33 C           6.0451   -1.8703    3.0184 C.2     1  UNL1        0.3539
     34 O           7.1199   -1.9977    3.7439 O.2     1  UNL1       -0.2435
     35 OXT         5.0879   -2.7969    3.3112 O.3     1  UNL1       -0.4761
     36 N           7.1115   -0.0084    1.8259 N.ar    1  UNL1       -0.3485
     37 C           6.8598    0.8377    0.8321 C.ar    1  UNL1        0.0511
     38 C           7.6425    1.8430    0.2447 C.ar    1  UNL1        0.0040
     39 H           8.0243    4.9933   -2.9410 H       1  UNL1        0.0660
     40 H           6.8168    3.6920   -3.2593 H       1  UNL1        0.0660
     41 H           6.4766    4.9639   -2.0478 H       1  UNL1        0.0660
     42 H           5.3953    2.8881   -2.0448 H       1  UNL1        0.0654
     43 H           4.0623    1.1173   -0.9856 H       1  UNL1        0.0625
     44 H           3.3531   -0.8215   -0.1553 H       1  UNL1        0.0626
     45 H           3.1777   -1.7424    2.6884 H       1  UNL1        0.0670
     46 H           1.5889   -1.4297   -0.7558 H       1  UNL1        0.1551
     47 H           0.4301   -4.2971   -1.0074 H       1  UNL1        0.0636
     48 H          -1.8367   -5.1855   -1.5983 H       1  UNL1        0.0618
     49 H          -3.8038   -3.7657   -1.2682 H       1  UNL1        0.0623
     50 H          -3.6437   -0.2143    0.1167 H       1  UNL1        0.0624
     51 H          -5.2616   -2.5310   -0.9487 H       1  UNL1        0.0639
     52 H          -7.6663   -1.9772   -0.9947 H       1  UNL1        0.0639
     53 H          -9.5455   -0.4294   -0.6018 H       1  UNL1        0.0625
     54 H         -10.3539    1.7470    0.1478 H       1  UNL1        0.0625
     55 H          -9.8975    3.9576    1.0462 H       1  UNL1        0.0632
     56 H          -5.7596    3.0420    1.1384 H       1  UNL1        0.0653
     57 H          -1.3157   -0.6296    0.2120 H       1  UNL1        0.0642
     58 HXT         5.3180   -3.7794    3.5201 H       1  UNL1        0.2955
     59 H           7.9793   -0.0558    2.3519 H       1  UNL1        0.1661
     60 H           8.6291    2.0103    0.6170 H       1  UNL1        0.0675
@<TRIPOS>BOND
     1     1     2    1
     2     2     3    1
     3     3     4   ar
     4     4     5   ar
     5     5     6   ar
     6     6     7   ar
     7     7     8    1
     8     8     9    2
     9     9    10    1
    10    10    11    2
    11    10    12   am
    12    12    13    1
    13    13    14   ar
    14    14    15   ar
    15    15    16   ar
    16    16    17   ar
    17    17    18    1
    18    18    19    2
    19    19    20    1
    20    20    21   ar
    21    21    22   ar
    22    22    23   ar
    23    23    24   ar
    24    24    25   ar
    25    25    26   ar
    26    26    27    1
    27    26    28   ar
    28    28    29   ar
    29    29    30   ar
    30    17    31   ar
    31     7    32   ar
    32    32    33    1
    33    33    34    2
    34    33    35    1
    35    32    36   ar
    36    36    37   ar
    37    37    38   ar
    38    38     3   ar
    39    37     6   ar
    40    31    13   ar
    41    30    20   ar
    42    29    23   ar
    43     1    39    1
    44     1    40    1
    45     1    41    1
    46     4    42    1
    47     5    43    1
    48     8    44    1
    49     9    45    1
    50    12    46    1
    51    14    47    1
    52    15    48    1
    53    16    49    1
    54    18    50    1
    55    19    51    1
    56    21    52    1
    57    22    53    1
    58    24    54    1
    59    25    55    1
    60    28    56    1
    61    31    57    1
    62    35    58    1
    63    36    59    1
    64    38    60    1
