@<TRIPOS>MOLECULE
*****
 48 51 0 0 0
SMALL
GASTEIGER

@<TRIPOS>ATOM
      1 C          -7.1341   -1.3997   -0.2564 C.3     1  UNL1        0.0736
      2 S          -6.1461   -1.4444    1.2085 S.O2    1  UNL1        0.0403
      3 O          -6.4380   -0.1809    1.9892 O.2     1  UNL1       -0.1555
      4 O          -6.5341   -2.6546    2.0387 O.2     1  UNL1       -0.1555
      5 N          -4.4923   -1.5072    0.8410 N.pl3   1  UNL1       -0.2209
      6 C          -3.8170   -0.4884    0.1418 C.ar    1  UNL1        0.0482
      7 C          -4.2901    0.0199   -1.0278 C.ar    1  UNL1       -0.0393
      8 C          -3.5651    1.0254   -1.6880 C.ar    1  UNL1       -0.0594
      9 C          -2.3890    1.4776   -1.1395 C.ar    1  UNL1       -0.0538
     10 C          -1.8975    0.9692    0.0476 C.ar    1  UNL1       -0.0120
     11 C          -0.6361    1.4891    0.5869 C.ar    1  UNL1        0.0313
     12 C          -0.6558    2.5657    1.4426 C.ar    1  UNL1        0.1251
     13 O          -1.8911    3.1152    1.7577 O.3     1  UNL1       -0.5061
     14 C           0.5148    3.0908    1.9771 C.ar    1  UNL1       -0.0190
     15 C           1.7319    2.5354    1.6555 C.ar    1  UNL1       -0.0505
     16 C           1.7478    1.4590    0.7996 C.ar    1  UNL1       -0.0165
     17 C           2.9770    0.9157    0.4892 C.ar    1  UNL1       -0.0463
     18 C           3.0527   -0.1794   -0.3754 C.ar    1  UNL1       -0.0172
     19 C           4.3615   -0.7391   -0.6909 C.ar    1  UNL1       -0.0144
     20 C           4.6678   -1.3342   -1.8915 C.ar    1  UNL1       -0.0538
     21 C           5.9191   -1.8527   -2.1527 C.ar    1  UNL1       -0.0577
     22 C           6.9129   -1.7827   -1.1901 C.ar    1  UNL1       -0.0201
     23 C           6.6355   -1.1895    0.0291 C.ar    1  UNL1        0.1174
     24 O           7.6443   -1.1213    0.9990 O.3     1  UNL1       -0.5067
     25 C           5.3769   -0.6775    0.2684 C.ar    1  UNL1       -0.0125
     26 C           1.8777   -0.6841   -0.8941 C.ar    1  UNL1       -0.0534
     27 C           0.6426   -0.1540   -0.5948 C.ar    1  UNL1       -0.0528
     28 C           0.5756    0.9304    0.2621 C.ar    1  UNL1       -0.0067
     29 C          -2.6135   -0.0083    0.6788 C.ar    1  UNL1       -0.0315
     30 H          -6.7116   -2.0518   -1.0444 H       1  UNL1        0.0482
     31 H          -7.3567   -0.3637   -0.5992 H       1  UNL1        0.0482
     32 H          -8.1255   -1.8833   -0.0028 H       1  UNL1        0.0482
     33 H          -3.9396   -2.3669    1.1587 H       1  UNL1        0.1733
     34 H          -5.2042   -0.3413   -1.4589 H       1  UNL1        0.0636
     35 H          -3.9513    1.4214   -2.6155 H       1  UNL1        0.0618
     36 H          -1.8198    2.2680   -1.6595 H       1  UNL1        0.0624
     37 H          -2.1574    3.2886    2.7290 H       1  UNL1        0.2922
     38 H           0.4584    3.9362    2.6449 H       1  UNL1        0.0654
     39 H           2.6612    2.9493    2.0772 H       1  UNL1        0.0625
     40 H           3.8935    1.3127    0.8963 H       1  UNL1        0.0630
     41 H           3.9014   -1.4005   -2.6641 H       1  UNL1        0.0624
     42 H           6.1485   -2.3160   -3.0944 H       1  UNL1        0.0619
     43 H           7.8975   -2.1998   -1.4175 H       1  UNL1        0.0654
     44 H           7.5145   -1.6841    1.8459 H       1  UNL1        0.2921
     45 H           5.1990   -0.2160    1.2471 H       1  UNL1        0.0660
     46 H           1.9680   -1.5370   -1.5645 H       1  UNL1        0.0624
     47 H          -0.2559   -0.5716   -1.0168 H       1  UNL1        0.0624
     48 H          -2.2581   -0.4394    1.6246 H       1  UNL1        0.0642
@<TRIPOS>BOND
     1     1     2    1
     2     2     3    2
     3     2     4    2
     4     2     5    1
     5     5     6    1
     6     6     7   ar
     7     7     8   ar
     8     8     9   ar
     9     9    10   ar
    10    10    11    1
    11    11    12   ar
    12    12    13    1
    13    12    14   ar
    14    14    15   ar
    15    15    16   ar
    16    16    17   ar
    17    17    18   ar
    18    18    19    1
    19    19    20   ar
    20    20    21   ar
    21    21    22   ar
    22    22    23   ar
    23    23    24    1
    24    23    25   ar
    25    18    26   ar
    26    26    27   ar
    27    27    28   ar
    28    10    29   ar
    29    29     6   ar
    30    28    11   ar
    31    28    16   ar
    32    25    19   ar
    33     1    30    1
    34     1    31    1
    35     1    32    1
    36     5    33    1
    37     7    34    1
    38     8    35    1
    39     9    36    1
    40    13    37    1
    41    14    38    1
    42    15    39    1
    43    17    40    1
    44    20    41    1
    45    21    42    1
    46    22    43    1
    47    24    44    1
    48    25    45    1
    49    26    46    1
    50    27    47    1
    51    29    48    1
