
     RDKit          3D

 48 51  0  0  0  0  0  0  0  0999 V2000
   -7.1341   -1.3997   -0.2564 C   0  0  0  0  0  0  0  0  0  0  0  0
   -6.1461   -1.4444    1.2085 S   0  0  0  0  0  6  0  0  0  0  0  0
   -6.4380   -0.1809    1.9892 O   0  0  0  0  0  0  0  0  0  0  0  0
   -6.5341   -2.6546    2.0387 O   0  0  0  0  0  0  0  0  0  0  0  0
   -4.4923   -1.5072    0.8410 N   0  0  0  0  0  0  0  0  0  0  0  0
   -3.8170   -0.4884    0.1418 C   0  0  0  0  0  0  0  0  0  0  0  0
   -4.2901    0.0199   -1.0278 C   0  0  0  0  0  0  0  0  0  0  0  0
   -3.5651    1.0254   -1.6880 C   0  0  0  0  0  0  0  0  0  0  0  0
   -2.3890    1.4776   -1.1395 C   0  0  0  0  0  0  0  0  0  0  0  0
   -1.8975    0.9692    0.0476 C   0  0  0  0  0  0  0  0  0  0  0  0
   -0.6361    1.4891    0.5869 C   0  0  0  0  0  0  0  0  0  0  0  0
   -0.6558    2.5657    1.4426 C   0  0  0  0  0  0  0  0  0  0  0  0
   -1.8911    3.1152    1.7577 O   0  0  0  0  0  0  0  0  0  0  0  0
    0.5148    3.0908    1.9771 C   0  0  0  0  0  0  0  0  0  0  0  0
    1.7319    2.5354    1.6555 C   0  0  0  0  0  0  0  0  0  0  0  0
    1.7478    1.4590    0.7996 C   0  0  0  0  0  0  0  0  0  0  0  0
    2.9770    0.9157    0.4892 C   0  0  0  0  0  0  0  0  0  0  0  0
    3.0527   -0.1794   -0.3754 C   0  0  0  0  0  0  0  0  0  0  0  0
    4.3615   -0.7391   -0.6909 C   0  0  0  0  0  0  0  0  0  0  0  0
    4.6678   -1.3342   -1.8915 C   0  0  0  0  0  0  0  0  0  0  0  0
    5.9191   -1.8527   -2.1527 C   0  0  0  0  0  0  0  0  0  0  0  0
    6.9129   -1.7827   -1.1901 C   0  0  0  0  0  0  0  0  0  0  0  0
    6.6355   -1.1895    0.0291 C   0  0  0  0  0  0  0  0  0  0  0  0
    7.6443   -1.1213    0.9990 O   0  0  0  0  0  0  0  0  0  0  0  0
    5.3769   -0.6775    0.2684 C   0  0  0  0  0  0  0  0  0  0  0  0
    1.8777   -0.6841   -0.8941 C   0  0  0  0  0  0  0  0  0  0  0  0
    0.6426   -0.1540   -0.5948 C   0  0  0  0  0  0  0  0  0  0  0  0
    0.5756    0.9304    0.2621 C   0  0  0  0  0  0  0  0  0  0  0  0
   -2.6135   -0.0083    0.6788 C   0  0  0  0  0  0  0  0  0  0  0  0
   -6.7116   -2.0518   -1.0444 H   0  0  0  0  0  0  0  0  0  0  0  0
   -7.3567   -0.3637   -0.5992 H   0  0  0  0  0  0  0  0  0  0  0  0
   -8.1255   -1.8833   -0.0028 H   0  0  0  0  0  0  0  0  0  0  0  0
   -3.9396   -2.3669    1.1587 H   0  0  0  0  0  0  0  0  0  0  0  0
   -5.2042   -0.3413   -1.4589 H   0  0  0  0  0  0  0  0  0  0  0  0
   -3.9513    1.4214   -2.6155 H   0  0  0  0  0  0  0  0  0  0  0  0
   -1.8198    2.2680   -1.6595 H   0  0  0  0  0  0  0  0  0  0  0  0
   -2.1574    3.2886    2.7290 H   0  0  0  0  0  0  0  0  0  0  0  0
    0.4584    3.9362    2.6449 H   0  0  0  0  0  0  0  0  0  0  0  0
    2.6612    2.9493    2.0772 H   0  0  0  0  0  0  0  0  0  0  0  0
    3.8935    1.3127    0.8963 H   0  0  0  0  0  0  0  0  0  0  0  0
    3.9014   -1.4005   -2.6641 H   0  0  0  0  0  0  0  0  0  0  0  0
    6.1485   -2.3160   -3.0944 H   0  0  0  0  0  0  0  0  0  0  0  0
    7.8975   -2.1998   -1.4175 H   0  0  0  0  0  0  0  0  0  0  0  0
    7.5145   -1.6841    1.8459 H   0  0  0  0  0  0  0  0  0  0  0  0
    5.1990   -0.2160    1.2471 H   0  0  0  0  0  0  0  0  0  0  0  0
    1.9680   -1.5370   -1.5645 H   0  0  0  0  0  0  0  0  0  0  0  0
   -0.2559   -0.5716   -1.0168 H   0  0  0  0  0  0  0  0  0  0  0  0
   -2.2581   -0.4394    1.6246 H   0  0  0  0  0  0  0  0  0  0  0  0
  1  2  1  0
  2  3  2  0
  2  4  2  0
  2  5  1  0
  5  6  1  0
  6  7  2  0
  7  8  1  0
  8  9  2  0
  9 10  1  0
 10 11  1  0
 11 12  2  0
 12 13  1  0
 12 14  1  0
 14 15  2  0
 15 16  1  0
 16 17  2  0
 17 18  1  0
 18 19  1  0
 19 20  2  0
 20 21  1  0
 21 22  2  0
 22 23  1  0
 23 24  1  0
 23 25  2  0
 18 26  2  0
 26 27  1  0
 27 28  2  0
 10 29  2  0
 29  6  1  0
 28 11  1  0
 28 16  1  0
 25 19  1  0
  1 30  1  0
  1 31  1  0
  1 32  1  0
  5 33  1  0
  7 34  1  0
  8 35  1  0
  9 36  1  0
 13 37  1  0
 14 38  1  0
 15 39  1  0
 17 40  1  0
 20 41  1  0
 21 42  1  0
 22 43  1  0
 24 44  1  0
 25 45  1  0
 26 46  1  0
 27 47  1  0
 29 48  1  0
M  END
$$$$
