@<TRIPOS>MOLECULE
*****
 37 39 0 0 0
SMALL
GASTEIGER

@<TRIPOS>ATOM
      1 C           7.0395    1.4646   -0.8647 C.3     1  UNL1       -0.0006
      2 N           6.5309    0.3086   -0.1582 N.pl3   1  UNL1       -0.3265
      3 C           5.1360    0.0320   -0.0017 C.ar    1  UNL1        0.1587
      4 N           4.4235   -0.7791    0.4906 N.ar    1  UNL1       -0.2295
      5 C           3.1089   -0.7750    0.4751 C.ar    1  UNL1        0.0567
      6 C           2.2519   -1.8316    1.1171 C.3     1  UNL1       -0.0211
      7 C           2.4968    0.2676   -0.1728 C.ar    1  UNL1        0.0618
      8 S           3.9034    1.2126   -0.7407 S.2     1  UNL1       -0.0506
      9 C           1.0951    0.6350   -0.4129 C.ar    1  UNL1        0.0844
     10 C           0.8338    1.7826   -1.1221 C.ar    1  UNL1       -0.0168
     11 C          -0.4994    2.0652   -1.3091 C.ar    1  UNL1        0.0332
     12 N          -1.4025    1.2185   -0.7967 N.ar    1  UNL1       -0.2226
     13 C          -1.1222    0.1053   -0.1085 C.ar    1  UNL1        0.2200
     14 N          -2.0895   -0.7827    0.4288 N.pl3   1  UNL1       -0.2836
     15 C          -3.5028   -0.7079    0.3693 C.ar    1  UNL1        0.0338
     16 C          -4.3120   -1.6628    0.9494 C.ar    1  UNL1       -0.0370
     17 C          -5.6732   -1.6342    0.9189 C.ar    1  UNL1       -0.0184
     18 C          -6.3328   -0.6070    0.2802 C.ar    1  UNL1        0.1170
     19 O          -7.7186   -0.6035    0.2648 O.3     1  UNL1       -0.5068
     20 C          -5.5967    0.3760   -0.3180 C.ar    1  UNL1       -0.0184
     21 C          -4.2246    0.2888   -0.2513 C.ar    1  UNL1       -0.0370
     22 N           0.1780   -0.1758    0.0773 N.ar    1  UNL1       -0.2136
     23 H           8.1091    1.3100   -1.0274 H       1  UNL1        0.0426
     24 H           6.5193    1.5531   -1.8520 H       1  UNL1        0.0426
     25 H           6.8022    2.3576   -0.2425 H       1  UNL1        0.0426
     26 H           7.1215   -0.3981    0.2826 H       1  UNL1        0.1476
     27 H           1.4770   -2.2049    0.3976 H       1  UNL1        0.0293
     28 H           1.7726   -1.3906    2.0047 H       1  UNL1        0.0293
     29 H           2.8116   -2.7154    1.4264 H       1  UNL1        0.0293
     30 H           1.5598    2.4458   -1.5233 H       1  UNL1        0.0654
     31 H          -0.7812    2.9551   -1.8598 H       1  UNL1        0.0831
     32 H          -1.7337   -1.6328    0.9555 H       1  UNL1        0.1550
     33 H          -3.8479   -2.5056    1.4727 H       1  UNL1        0.0637
     34 H          -6.2430   -2.4178    1.3959 H       1  UNL1        0.0655
     35 H          -8.2662    0.1801   -0.0566 H       1  UNL1        0.2921
     36 H          -6.1118    1.1666   -0.8097 H       1  UNL1        0.0655
     37 H          -3.7128    1.0996   -0.7456 H       1  UNL1        0.0637
@<TRIPOS>BOND
     1     1     2    1
     2     2     3    1
     3     3     4   ar
     4     4     5   ar
     5     5     6    1
     6     5     7   ar
     7     7     8   ar
     8     7     9    1
     9     9    10   ar
    10    10    11   ar
    11    11    12   ar
    12    12    13   ar
    13    13    14    1
    14    14    15    1
    15    15    16   ar
    16    16    17   ar
    17    17    18   ar
    18    18    19    1
    19    18    20   ar
    20    20    21   ar
    21    13    22   ar
    22     8     3   ar
    23    22     9   ar
    24    21    15   ar
    25     1    23    1
    26     1    24    1
    27     1    25    1
    28     2    26    1
    29     6    27    1
    30     6    28    1
    31     6    29    1
    32    10    30    1
    33    11    31    1
    34    14    32    1
    35    16    33    1
    36    17    34    1
    37    19    35    1
    38    20    36    1
    39    21    37    1
