@<TRIPOS>MOLECULE
*****
 61 62 0 0 0
SMALL
GASTEIGER

@<TRIPOS>ATOM
      1 C          -3.7294   -0.2122   -1.7569 C.3     0  UNK0       -0.0308
      2 C          -3.8839    0.3254   -0.3504 C.3     0  UNK0        0.1337
      3 N          -4.5605    1.5820   -0.3094 N.am    0  UNK0       -0.2907
      4 C          -4.0227    2.7297   -0.9954 C.2     0  UNK0        0.3183
      5 O          -2.9513    2.5548   -1.6126 O.2     0  UNK0       -0.2660
      6 C          -4.7400    4.0097   -0.9364 C.3     0  UNK0        0.4694
      7 F          -4.8788    4.4812    0.3716 F       0  UNK0       -0.1620
      8 F          -6.0472    3.7982   -1.3821 F       0  UNK0       -0.1620
      9 F          -4.2030    4.9660   -1.7593 F       0  UNK0       -0.1620
     10 C          -2.5472    0.4512    0.2900 C.2     0  UNK0        0.2440
     11 O          -2.1934    1.5594    0.7504 O.2     0  UNK0       -0.2729
     12 N          -1.7177   -0.7043    0.3536 N.am    0  UNK0       -0.2878
     13 C          -1.7189   -2.0998   -0.0221 C.3     0  UNK0        0.0177
     14 C          -0.7917   -2.3464    1.1761 C.3     0  UNK0       -0.0099
     15 C          -0.3775   -0.9170    0.8984 C.3     0  UNK0        0.1037
     16 C           0.6127   -0.7531   -0.1931 C.2     0  UNK0        0.2342
     17 O           0.2981   -0.4749   -1.3823 O.2     0  UNK0       -0.2738
     18 N           2.0260   -0.9052    0.0454 N.am    1  ARG1       -0.3044
     19 CA          2.9935   -0.7449   -1.0214 C.3     1  ARG1        0.0786
     20 C           3.7389   -2.0196   -1.1582 C.2     1  ARG1        0.1404
     21 O           3.4982   -2.9707   -0.4463 O.2     1  ARG1       -0.2991
     22 CB          3.9190    0.4154   -0.7315 C.3     1  ARG1       -0.0249
     23 CG          4.6539    0.1530    0.5672 C.3     1  ARG1       -0.0166
     24 CD          5.5663    1.3544    0.8010 C.3     1  ARG1        0.1048
     25 NE          6.4685    1.4315   -0.3222 N.pl3   1  ARG1       -0.1138
     26 CZ          7.7240    1.6596   -0.1568 C.cat   1  ARG1        0.3765
     27 NH1         8.2275    1.8380    1.1530 N.pl3   1  ARG1       -0.2893
     28 NH2         8.5814    1.7294   -1.2721 N.pl3   1  ARG1       -0.2893
     29 C          -4.6556   -0.6556    0.4422 C.ar    0  UNK0       -0.0156
     30 C          -5.3775   -1.6154   -0.2045 C.ar    0  UNK0       -0.0561
     31 C          -6.1042   -2.5409    0.5278 C.ar    0  UNK0       -0.0614
     32 C          -6.0817   -2.4709    1.9039 C.ar    0  UNK0       -0.0617
     33 C          -5.3433   -1.4895    2.5457 C.ar    0  UNK0       -0.0614
     34 C          -4.6320   -0.5847    1.7996 C.ar    0  UNK0       -0.0561
     35 H          -4.6289   -0.1037   -2.3603 H       0  UNK0        0.0258
     36 H          -3.4527   -1.2856   -1.7398 H       0  UNK0        0.0258
     37 H          -2.8312    0.3015   -2.2103 H       0  UNK0        0.0258
     38 H          -5.4554    1.6625    0.2261 H       0  UNK0        0.1503
     39 H          -1.1780   -2.2945   -0.9649 H       0  UNK0        0.0465
     40 H          -2.6824   -2.6362    0.0811 H       0  UNK0        0.0465
     41 H          -0.0015   -3.0932    0.9625 H       0  UNK0        0.0303
     42 H          -1.3086   -2.4420    2.1333 H       0  UNK0        0.0303
     43 H          -0.1728   -0.3134    1.8057 H       0  UNK0        0.0597
     44 H           2.2943   -1.1353    1.0265 H       1  ARG1        0.1494
     45 HA          2.4347   -0.5051   -1.9512 H       1  ARG1        0.0574
     46 H           4.5204   -2.1347   -1.9002 H       1  ARG1        0.1046
     47 HB1         3.3063    1.3100   -0.5822 H       1  ARG1        0.0288
     48 HB2         4.6492    0.4739   -1.5379 H       1  ARG1        0.0288
     49 HG1         5.2283   -0.7740    0.4686 H       1  ARG1        0.0298
     50 HG2         3.9486    0.1051    1.4339 H       1  ARG1        0.0298
     51 HD1         6.1448    1.2285    1.7439 H       1  ARG1        0.0693
     52 HD2         4.9074    2.2439    0.8504 H       1  ARG1        0.0693
     53 HH11        8.4628    1.0213    1.7759 H       1  ARG1        0.2546
     54 HH12        8.3886    2.7822    1.5615 H       1  ARG1        0.2546
     55 HH21        9.4243    1.1288   -1.3552 H       1  ARG1        0.2546
     56 HH22        8.3921    2.3944   -2.0560 H       1  ARG1        0.2546
     57 H          -5.4029   -1.6803   -1.3104 H       0  UNK0        0.0621
     58 H          -6.6674   -3.2899    0.0177 H       0  UNK0        0.0618
     59 H          -6.6573   -3.2044    2.4658 H       0  UNK0        0.0618
     60 H          -5.3587   -1.4776    3.6308 H       0  UNK0        0.0618
     61 H          -4.0545    0.1838    2.3355 H       0  UNK0        0.0621
@<TRIPOS>BOND
     1     1     2    1
     2     2     3    1
     3     3     4   am
     4     4     5    2
     5     4     6    1
     6     6     7    1
     7     6     8    1
     8     6     9    1
     9     2    10    1
    10    10    11    2
    11    10    12   am
    12    12    13    1
    13    13    14    1
    14    14    15    1
    15    15    16    1
    16    16    17    2
    17    16    18   am
    18    18    19    1
    19    19    20    1
    20    20    21    2
    21    19    22    1
    22    22    23    1
    23    23    24    1
    24    24    25    1
    25    25    26    2
    26    26    27    1
    27    26    28    1
    28     2    29    1
    29    29    30   ar
    30    30    31   ar
    31    31    32   ar
    32    32    33   ar
    33    33    34   ar
    34    15    12    1
    35    34    29   ar
    36     1    35    1
    37     1    36    1
    38     1    37    1
    39     3    38    1
    40    13    39    1
    41    13    40    1
    42    14    41    1
    43    14    42    1
    44    15    43    1
    45    18    44    1
    46    19    45    1
    47    20    46    1
    48    22    47    1
    49    22    48    1
    50    23    49    1
    51    23    50    1
    52    24    51    1
    53    24    52    1
    54    27    53    1
    55    27    54    1
    56    28    55    1
    57    28    56    1
    58    30    57    1
    59    31    58    1
    60    32    59    1
    61    33    60    1
    62    34    61    1
