
     RDKit          3D

 61 62  0  0  0  0  0  0  0  0999 V2000
   -3.7294   -0.2122   -1.7569 C   0  0  0  0  0  0  0  0  0  0  0  0
   -3.8839    0.3254   -0.3504 C   0  0  2  0  0  0  0  0  0  0  0  0
   -4.5605    1.5820   -0.3094 N   0  0  0  0  0  0  0  0  0  0  0  0
   -4.0227    2.7297   -0.9954 C   0  0  0  0  0  0  0  0  0  0  0  0
   -2.9513    2.5548   -1.6126 O   0  0  0  0  0  0  0  0  0  0  0  0
   -4.7400    4.0097   -0.9364 C   0  0  0  0  0  0  0  0  0  0  0  0
   -4.8788    4.4812    0.3716 F   0  0  0  0  0  0  0  0  0  0  0  0
   -6.0472    3.7982   -1.3821 F   0  0  0  0  0  0  0  0  0  0  0  0
   -4.2030    4.9660   -1.7593 F   0  0  0  0  0  0  0  0  0  0  0  0
   -2.5472    0.4512    0.2900 C   0  0  0  0  0  0  0  0  0  0  0  0
   -2.1934    1.5594    0.7504 O   0  0  0  0  0  0  0  0  0  0  0  0
   -1.7177   -0.7043    0.3536 N   0  0  0  0  0  0  0  0  0  0  0  0
   -1.7189   -2.0998   -0.0221 C   0  0  0  0  0  0  0  0  0  0  0  0
   -0.7917   -2.3464    1.1761 C   0  0  0  0  0  0  0  0  0  0  0  0
   -0.3775   -0.9170    0.8984 C   0  0  1  0  0  0  0  0  0  0  0  0
    0.6127   -0.7531   -0.1931 C   0  0  0  0  0  0  0  0  0  0  0  0
    0.2981   -0.4749   -1.3823 O   0  0  0  0  0  0  0  0  0  0  0  0
    2.0260   -0.9052    0.0454 N   0  0  0  0  0  0  0  0  0  0  0  0
    2.9935   -0.7449   -1.0214 C   0  0  2  0  0  0  0  0  0  0  0  0
    3.7389   -2.0196   -1.1582 C   0  0  0  0  0  0  0  0  0  0  0  0
    3.4982   -2.9707   -0.4463 O   0  0  0  0  0  0  0  0  0  0  0  0
    3.9190    0.4154   -0.7315 C   0  0  0  0  0  0  0  0  0  0  0  0
    4.6539    0.1530    0.5672 C   0  0  0  0  0  0  0  0  0  0  0  0
    5.5663    1.3544    0.8010 C   0  0  0  0  0  0  0  0  0  0  0  0
    6.4685    1.4315   -0.3222 N   0  0  0  0  0  0  0  0  0  0  0  0
    7.7240    1.6596   -0.1568 C   0  0  0  0  0  0  0  0  0  0  0  0
    8.2275    1.8380    1.1530 N   0  0  0  0  0  0  0  0  0  0  0  0
    8.5814    1.7294   -1.2721 N   0  0  0  0  0  0  0  0  0  0  0  0
   -4.6556   -0.6556    0.4422 C   0  0  0  0  0  0  0  0  0  0  0  0
   -5.3775   -1.6154   -0.2045 C   0  0  0  0  0  0  0  0  0  0  0  0
   -6.1042   -2.5409    0.5278 C   0  0  0  0  0  0  0  0  0  0  0  0
   -6.0817   -2.4709    1.9039 C   0  0  0  0  0  0  0  0  0  0  0  0
   -5.3433   -1.4895    2.5457 C   0  0  0  0  0  0  0  0  0  0  0  0
   -4.6320   -0.5847    1.7996 C   0  0  0  0  0  0  0  0  0  0  0  0
   -4.6289   -0.1037   -2.3603 H   0  0  0  0  0  0  0  0  0  0  0  0
   -3.4527   -1.2856   -1.7398 H   0  0  0  0  0  0  0  0  0  0  0  0
   -2.8312    0.3015   -2.2103 H   0  0  0  0  0  0  0  0  0  0  0  0
   -5.4554    1.6625    0.2261 H   0  0  0  0  0  0  0  0  0  0  0  0
   -1.1780   -2.2945   -0.9649 H   0  0  0  0  0  0  0  0  0  0  0  0
   -2.6824   -2.6362    0.0811 H   0  0  0  0  0  0  0  0  0  0  0  0
   -0.0015   -3.0932    0.9625 H   0  0  0  0  0  0  0  0  0  0  0  0
   -1.3086   -2.4420    2.1333 H   0  0  0  0  0  0  0  0  0  0  0  0
   -0.1728   -0.3134    1.8057 H   0  0  0  0  0  0  0  0  0  0  0  0
    2.2943   -1.1353    1.0265 H   0  0  0  0  0  0  0  0  0  0  0  0
    2.4347   -0.5051   -1.9512 H   0  0  0  0  0  0  0  0  0  0  0  0
    4.5204   -2.1347   -1.9002 H   0  0  0  0  0  0  0  0  0  0  0  0
    3.3063    1.3100   -0.5822 H   0  0  0  0  0  0  0  0  0  0  0  0
    4.6492    0.4739   -1.5379 H   0  0  0  0  0  0  0  0  0  0  0  0
    5.2283   -0.7740    0.4686 H   0  0  0  0  0  0  0  0  0  0  0  0
    3.9486    0.1051    1.4339 H   0  0  0  0  0  0  0  0  0  0  0  0
    6.1448    1.2285    1.7439 H   0  0  0  0  0  0  0  0  0  0  0  0
    4.9074    2.2439    0.8504 H   0  0  0  0  0  0  0  0  0  0  0  0
    8.4628    1.0213    1.7759 H   0  0  0  0  0  0  0  0  0  0  0  0
    8.3886    2.7822    1.5615 H   0  0  0  0  0  0  0  0  0  0  0  0
    9.4243    1.1288   -1.3552 H   0  0  0  0  0  0  0  0  0  0  0  0
    8.3921    2.3944   -2.0560 H   0  0  0  0  0  0  0  0  0  0  0  0
   -5.4029   -1.6803   -1.3104 H   0  0  0  0  0  0  0  0  0  0  0  0
   -6.6674   -3.2899    0.0177 H   0  0  0  0  0  0  0  0  0  0  0  0
   -6.6573   -3.2044    2.4658 H   0  0  0  0  0  0  0  0  0  0  0  0
   -5.3587   -1.4776    3.6308 H   0  0  0  0  0  0  0  0  0  0  0  0
   -4.0545    0.1838    2.3355 H   0  0  0  0  0  0  0  0  0  0  0  0
  1  2  1  0
  2  3  1  6
  3  4  1  0
  4  5  2  0
  4  6  1  0
  6  7  1  0
  6  8  1  0
  6  9  1  0
  2 10  1  0
 10 11  2  0
 10 12  1  0
 12 13  1  0
 13 14  1  0
 14 15  1  0
 15 16  1  0
 16 17  2  0
 16 18  1  0
 18 19  1  0
 19 20  1  0
 20 21  2  0
 19 22  1  0
 22 23  1  0
 23 24  1  0
 24 25  1  0
 25 26  2  3
 26 27  1  0
 26 28  1  0
  2 29  1  0
 29 30  2  0
 30 31  1  0
 31 32  2  0
 32 33  1  0
 33 34  2  0
 15 12  1  0
 34 29  1  0
  1 35  1  0
  1 36  1  0
  1 37  1  0
  3 38  1  0
 13 39  1  0
 13 40  1  0
 14 41  1  0
 14 42  1  0
 15 43  1  1
 18 44  1  0
 19 45  1  6
 20 46  1  0
 22 47  1  0
 22 48  1  0
 23 49  1  0
 23 50  1  0
 24 51  1  0
 24 52  1  0
 27 53  1  0
 27 54  1  0
 28 55  1  0
 28 56  1  0
 30 57  1  0
 31 58  1  0
 32 59  1  0
 33 60  1  0
 34 61  1  0
M  END
$$$$
