@<TRIPOS>MOLECULE
*****
 62 64 0 0 0
SMALL
GASTEIGER

@<TRIPOS>ATOM
      1 C           7.9400    2.8128   -1.0391 C.3     1  UNL1        0.0366
      2 O           7.3225    1.9713   -0.1109 O.3     1  UNL1       -0.3804
      3 C           6.2327    1.3928   -0.7505 C.3     1  UNL1        0.0749
      4 C           5.4902    0.4484    0.1941 C.3     1  UNL1        0.0965
      5 O           6.4026   -0.5334    0.5776 O.3     1  UNL1       -0.3877
      6 C           4.9713    1.2229    1.4006 C.3     1  UNL1        0.0592
      7 N           4.2780    0.2577    2.2513 N.ar    1  UNL1       -0.2556
      8 C           5.0245   -0.3617    3.1868 C.ar    1  UNL1        0.2751
      9 O           6.2547   -0.1293    3.3300 O.2     1  UNL1       -0.2658
     10 C           4.3934   -1.2730    3.9972 C.ar    1  UNL1        0.1130
     11 N           3.0931   -1.4997    3.8248 N.ar    1  UNL1       -0.1651
     12 N           2.3381   -0.9001    2.9086 N.ar    1  UNL1       -0.1816
     13 C           0.9563   -1.1915    2.7828 C.ar    1  UNL1        0.0715
     14 C           0.2296   -1.3770    3.9412 C.ar    1  UNL1       -0.0347
     15 C          -1.1199   -1.6645    3.9099 C.ar    1  UNL1       -0.0406
     16 C          -1.7370   -1.7642    2.6773 C.ar    1  UNL1        0.0532
     17 CL         -3.4440   -2.1281    2.6472 Cl      1  UNL1       -0.0828
     18 C          -1.0518   -1.5869    1.4962 C.ar    1  UNL1        0.0570
     19 C          -1.7603   -1.7048    0.2158 C.2     1  UNL1        0.2456
     20 O          -2.2758   -2.8002   -0.1058 O.2     1  UNL1       -0.2701
     21 N          -1.8394   -0.5623   -0.6249 N.am    1  UNL1       -0.3086
     22 C          -2.4992   -0.5336   -1.8835 C.3     1  UNL1        0.0407
     23 C          -3.9670   -0.7953   -1.8836 C.3     1  UNL1        0.0815
     24 O          -4.3556   -2.0228   -1.3897 O.3     1  UNL1       -0.3870
     25 C          -4.5064   -0.6375   -3.3033 C.3     1  UNL1       -0.0225
     26 C          -4.6150    0.7793   -3.7445 C.3     1  UNL1       -0.0504
     27 C          -5.7607    1.5513   -3.1725 C.3     1  UNL1       -0.0530
     28 C          -6.7654    0.7424   -2.4247 C.3     1  UNL1       -0.0530
     29 C          -6.1914    0.0574   -1.2106 C.3     1  UNL1       -0.0504
     30 C          -4.7242    0.2460   -1.0505 C.3     1  UNL1       -0.0225
     31 C           0.2950   -1.3012    1.5768 C.ar    1  UNL1       -0.0226
     32 C           2.9618   -0.0027    2.1112 C.ar    1  UNL1        0.3529
     33 O           2.3137    0.6058    1.2202 O.2     1  UNL1       -0.2443
     34 H           8.8296    3.3113   -0.5839 H       1  UNL1        0.0524
     35 H           7.1982    3.5237   -1.4162 H       1  UNL1        0.0524
     36 H           8.3462    2.2267   -1.8996 H       1  UNL1        0.0524
     37 H           5.5321    2.1543   -1.1726 H       1  UNL1        0.0586
     38 H           6.6248    0.7976   -1.5924 H       1  UNL1        0.0586
     39 H           4.6532   -0.0139   -0.3520 H       1  UNL1        0.0634
     40 H           6.7808   -0.9200   -0.2407 H       1  UNL1        0.2100
     41 H           4.2418    1.9591    1.0385 H       1  UNL1        0.0520
     42 H           5.8050    1.7045    1.9238 H       1  UNL1        0.0520
     43 H           4.9917   -1.7817    4.7608 H       1  UNL1        0.0903
     44 H           0.7152   -1.2983    4.9009 H       1  UNL1        0.0639
     45 H          -1.6981   -1.8115    4.8069 H       1  UNL1        0.0633
     46 H          -1.3639    0.3303   -0.2706 H       1  UNL1        0.1491
     47 H          -2.3528    0.4801   -2.3337 H       1  UNL1        0.0490
     48 H          -2.0007   -1.2155   -2.6407 H       1  UNL1        0.0490
     49 H          -4.8353   -1.9779   -0.5411 H       1  UNL1        0.2102
     50 H          -5.4613   -1.1896   -3.3229 H       1  UNL1        0.0293
     51 H          -3.8368   -1.1649   -4.0256 H       1  UNL1        0.0293
     52 H          -4.7139    0.7506   -4.8750 H       1  UNL1        0.0266
     53 H          -3.6915    1.3313   -3.5469 H       1  UNL1        0.0266
     54 H          -6.3196    2.0625   -4.0084 H       1  UNL1        0.0265
     55 H          -5.4259    2.4050   -2.5216 H       1  UNL1        0.0265
     56 H          -7.5841    1.4250   -2.1188 H       1  UNL1        0.0265
     57 H          -7.2403    0.0178   -3.1385 H       1  UNL1        0.0265
     58 H          -6.6811    0.4653   -0.2824 H       1  UNL1        0.0266
     59 H          -6.4457   -0.9997   -1.2497 H       1  UNL1        0.0266
     60 H          -4.3504    1.2530   -1.2287 H       1  UNL1        0.0293
     61 H          -4.4775    0.0101    0.0264 H       1  UNL1        0.0293
     62 H           0.8761   -1.1536    0.6761 H       1  UNL1        0.0647
@<TRIPOS>BOND
     1     1     2    1
     2     2     3    1
     3     3     4    1
     4     4     5    1
     5     4     6    1
     6     6     7    1
     7     7     8   ar
     8     8     9    2
     9     8    10   ar
    10    10    11   ar
    11    11    12   ar
    12    12    13    1
    13    13    14   ar
    14    14    15   ar
    15    15    16   ar
    16    16    17    1
    17    16    18   ar
    18    18    19    1
    19    19    20    2
    20    19    21   am
    21    21    22    1
    22    22    23    1
    23    23    24    1
    24    23    25    1
    25    25    26    1
    26    26    27    1
    27    27    28    1
    28    28    29    1
    29    29    30    1
    30    18    31   ar
    31    12    32   ar
    32    32    33    2
    33    32     7   ar
    34    31    13   ar
    35    30    23    1
    36     1    34    1
    37     1    35    1
    38     1    36    1
    39     3    37    1
    40     3    38    1
    41     4    39    1
    42     5    40    1
    43     6    41    1
    44     6    42    1
    45    10    43    1
    46    14    44    1
    47    15    45    1
    48    21    46    1
    49    22    47    1
    50    22    48    1
    51    24    49    1
    52    25    50    1
    53    25    51    1
    54    26    52    1
    55    26    53    1
    56    27    54    1
    57    27    55    1
    58    28    56    1
    59    28    57    1
    60    29    58    1
    61    29    59    1
    62    30    60    1
    63    30    61    1
    64    31    62    1
