
     RDKit          3D

 62 64  0  0  0  0  0  0  0  0999 V2000
    7.9400    2.8128   -1.0391 C   0  0  0  0  0  0  0  0  0  0  0  0
    7.3225    1.9713   -0.1109 O   0  0  0  0  0  0  0  0  0  0  0  0
    6.2327    1.3928   -0.7505 C   0  0  0  0  0  0  0  0  0  0  0  0
    5.4902    0.4484    0.1941 C   0  0  1  0  0  0  0  0  0  0  0  0
    6.4026   -0.5334    0.5776 O   0  0  0  0  0  0  0  0  0  0  0  0
    4.9713    1.2229    1.4006 C   0  0  0  0  0  0  0  0  0  0  0  0
    4.2780    0.2577    2.2513 N   0  0  0  0  0  0  0  0  0  0  0  0
    5.0245   -0.3617    3.1868 C   0  0  0  0  0  0  0  0  0  0  0  0
    6.2547   -0.1293    3.3300 O   0  0  0  0  0  0  0  0  0  0  0  0
    4.3934   -1.2730    3.9972 C   0  0  0  0  0  0  0  0  0  0  0  0
    3.0931   -1.4997    3.8248 N   0  0  0  0  0  0  0  0  0  0  0  0
    2.3381   -0.9001    2.9086 N   0  0  0  0  0  0  0  0  0  0  0  0
    0.9563   -1.1915    2.7828 C   0  0  0  0  0  0  0  0  0  0  0  0
    0.2296   -1.3770    3.9412 C   0  0  0  0  0  0  0  0  0  0  0  0
   -1.1199   -1.6645    3.9099 C   0  0  0  0  0  0  0  0  0  0  0  0
   -1.7370   -1.7642    2.6773 C   0  0  0  0  0  0  0  0  0  0  0  0
   -3.4440   -2.1281    2.6472 Cl  0  0  0  0  0  0  0  0  0  0  0  0
   -1.0518   -1.5869    1.4962 C   0  0  0  0  0  0  0  0  0  0  0  0
   -1.7603   -1.7048    0.2158 C   0  0  0  0  0  0  0  0  0  0  0  0
   -2.2758   -2.8002   -0.1058 O   0  0  0  0  0  0  0  0  0  0  0  0
   -1.8394   -0.5623   -0.6249 N   0  0  0  0  0  0  0  0  0  0  0  0
   -2.4992   -0.5336   -1.8835 C   0  0  0  0  0  0  0  0  0  0  0  0
   -3.9670   -0.7953   -1.8836 C   0  0  0  0  0  0  0  0  0  0  0  0
   -4.3556   -2.0228   -1.3897 O   0  0  0  0  0  0  0  0  0  0  0  0
   -4.5064   -0.6375   -3.3033 C   0  0  0  0  0  0  0  0  0  0  0  0
   -4.6150    0.7793   -3.7445 C   0  0  0  0  0  0  0  0  0  0  0  0
   -5.7607    1.5513   -3.1725 C   0  0  0  0  0  0  0  0  0  0  0  0
   -6.7654    0.7424   -2.4247 C   0  0  0  0  0  0  0  0  0  0  0  0
   -6.1914    0.0574   -1.2106 C   0  0  0  0  0  0  0  0  0  0  0  0
   -4.7242    0.2460   -1.0505 C   0  0  0  0  0  0  0  0  0  0  0  0
    0.2950   -1.3012    1.5768 C   0  0  0  0  0  0  0  0  0  0  0  0
    2.9618   -0.0027    2.1112 C   0  0  0  0  0  0  0  0  0  0  0  0
    2.3137    0.6058    1.2202 O   0  0  0  0  0  0  0  0  0  0  0  0
    8.8296    3.3113   -0.5839 H   0  0  0  0  0  0  0  0  0  0  0  0
    7.1982    3.5237   -1.4162 H   0  0  0  0  0  0  0  0  0  0  0  0
    8.3462    2.2267   -1.8996 H   0  0  0  0  0  0  0  0  0  0  0  0
    5.5321    2.1543   -1.1726 H   0  0  0  0  0  0  0  0  0  0  0  0
    6.6248    0.7976   -1.5924 H   0  0  0  0  0  0  0  0  0  0  0  0
    4.6532   -0.0139   -0.3520 H   0  0  0  0  0  0  0  0  0  0  0  0
    6.7808   -0.9200   -0.2407 H   0  0  0  0  0  0  0  0  0  0  0  0
    4.2418    1.9591    1.0385 H   0  0  0  0  0  0  0  0  0  0  0  0
    5.8050    1.7045    1.9238 H   0  0  0  0  0  0  0  0  0  0  0  0
    4.9917   -1.7817    4.7608 H   0  0  0  0  0  0  0  0  0  0  0  0
    0.7152   -1.2983    4.9009 H   0  0  0  0  0  0  0  0  0  0  0  0
   -1.6981   -1.8115    4.8069 H   0  0  0  0  0  0  0  0  0  0  0  0
   -1.3639    0.3303   -0.2706 H   0  0  0  0  0  0  0  0  0  0  0  0
   -2.3528    0.4801   -2.3337 H   0  0  0  0  0  0  0  0  0  0  0  0
   -2.0007   -1.2155   -2.6407 H   0  0  0  0  0  0  0  0  0  0  0  0
   -4.8353   -1.9779   -0.5411 H   0  0  0  0  0  0  0  0  0  0  0  0
   -5.4613   -1.1896   -3.3229 H   0  0  0  0  0  0  0  0  0  0  0  0
   -3.8368   -1.1649   -4.0256 H   0  0  0  0  0  0  0  0  0  0  0  0
   -4.7139    0.7506   -4.8750 H   0  0  0  0  0  0  0  0  0  0  0  0
   -3.6915    1.3313   -3.5469 H   0  0  0  0  0  0  0  0  0  0  0  0
   -6.3196    2.0625   -4.0084 H   0  0  0  0  0  0  0  0  0  0  0  0
   -5.4259    2.4050   -2.5216 H   0  0  0  0  0  0  0  0  0  0  0  0
   -7.5841    1.4250   -2.1188 H   0  0  0  0  0  0  0  0  0  0  0  0
   -7.2403    0.0178   -3.1385 H   0  0  0  0  0  0  0  0  0  0  0  0
   -6.6811    0.4653   -0.2824 H   0  0  0  0  0  0  0  0  0  0  0  0
   -6.4457   -0.9997   -1.2497 H   0  0  0  0  0  0  0  0  0  0  0  0
   -4.3504    1.2530   -1.2287 H   0  0  0  0  0  0  0  0  0  0  0  0
   -4.4775    0.0101    0.0264 H   0  0  0  0  0  0  0  0  0  0  0  0
    0.8761   -1.1536    0.6761 H   0  0  0  0  0  0  0  0  0  0  0  0
  1  2  1  0
  2  3  1  0
  3  4  1  0
  4  5  1  0
  4  6  1  0
  6  7  1  0
  7  8  1  0
  8  9  2  0
  8 10  1  0
 10 11  2  0
 11 12  1  0
 12 13  1  0
 13 14  2  0
 14 15  1  0
 15 16  2  0
 16 17  1  0
 16 18  1  0
 18 19  1  0
 19 20  2  0
 19 21  1  0
 21 22  1  0
 22 23  1  0
 23 24  1  0
 23 25  1  0
 25 26  1  0
 26 27  1  0
 27 28  1  0
 28 29  1  0
 29 30  1  0
 18 31  2  0
 12 32  1  0
 32 33  2  0
 32  7  1  0
 31 13  1  0
 30 23  1  0
  1 34  1  0
  1 35  1  0
  1 36  1  0
  3 37  1  0
  3 38  1  0
  4 39  1  6
  5 40  1  0
  6 41  1  0
  6 42  1  0
 10 43  1  0
 14 44  1  0
 15 45  1  0
 21 46  1  0
 22 47  1  0
 22 48  1  0
 24 49  1  0
 25 50  1  0
 25 51  1  0
 26 52  1  0
 26 53  1  0
 27 54  1  0
 27 55  1  0
 28 56  1  0
 28 57  1  0
 29 58  1  0
 29 59  1  0
 30 60  1  0
 30 61  1  0
 31 62  1  0
M  END
$$$$
