@<TRIPOS>MOLECULE
*****
 63 65 0 0 0
SMALL
GASTEIGER

@<TRIPOS>ATOM
      1 C           3.8585   -1.5583    0.4517 C.3     1  UNL1       -0.0123
      2 N           3.9398   -0.4354   -0.4171 N.3     1  UNL1       -0.2982
      3 C           5.2644    0.1084   -0.5763 C.3     1  UNL1        0.0297
      4 C           5.7833    0.7582    0.6843 C.3     1  UNL1        0.0796
      5 N           7.1110    1.2676    0.3985 N.pl3   1  UNL1       -0.2641
      6 C           8.2222    0.3728    0.1470 C.3     1  UNL1        0.0561
      7 C           7.3226    2.6815    0.3645 C.cat   1  UNL1        0.3784
      8 N           6.4057    3.4099   -0.2272 N.pl3   1  UNL1       -0.1296
      9 N           8.4394    3.3214    0.9218 N.pl3   1  UNL1       -0.2891
     10 C           2.9274    0.5543   -0.2475 C.3     1  UNL1        0.0239
     11 C           1.5944   -0.0575   -0.4836 C.ar    1  UNL1       -0.0333
     12 C           0.9178   -0.5977    0.5759 C.ar    1  UNL1       -0.0566
     13 C          -0.3408   -1.1816    0.3956 C.ar    1  UNL1       -0.0493
     14 C          -0.9477   -1.2403   -0.8320 C.ar    1  UNL1        0.0370
     15 C          -2.2505   -1.8361   -1.0423 C.2     1  UNL1        0.2483
     16 O          -2.7146   -1.8714   -2.2054 O.2     1  UNL1       -0.2699
     17 N          -3.0114   -2.3750    0.0119 N.am    1  UNL1       -0.2808
     18 C          -4.3072   -2.9657   -0.2108 C.ar    1  UNL1        0.0459
     19 C          -4.4068   -4.3135   -0.4744 C.ar    1  UNL1       -0.0384
     20 C          -5.6617   -4.8894   -0.6938 C.ar    1  UNL1       -0.0416
     21 C          -6.7617   -4.0906   -0.6392 C.ar    1  UNL1        0.0418
     22 CL         -8.3948   -4.6925   -0.8966 Cl      1  UNL1       -0.0835
     23 C          -6.6251   -2.7466   -0.3730 C.ar    1  UNL1       -0.0295
     24 C          -5.4092   -2.1464   -0.1526 C.ar    1  UNL1        0.0596
     25 C          -5.2223   -0.7398    0.1311 C.2     1  UNL1        0.2511
     26 O          -4.0651   -0.2589    0.3354 O.2     1  UNL1       -0.2697
     27 N          -6.2854    0.2088    0.2053 N.am    1  UNL1       -0.2663
     28 C          -6.0441    1.5787    0.4874 C.ar    1  UNL1        0.1252
     29 C          -7.1136    2.4419    0.5346 C.ar    1  UNL1       -0.0201
     30 C          -6.9521    3.8019    0.8074 C.ar    1  UNL1       -0.0387
     31 C          -5.6859    4.2997    1.0372 C.ar    1  UNL1        0.0592
     32 CL         -5.4471    6.0046    1.3834 Cl      1  UNL1       -0.0820
     33 C          -4.6362    3.4069    0.9823 C.ar    1  UNL1        0.0480
     34 N          -4.8185    2.0812    0.7135 N.ar    1  UNL1       -0.2387
     35 C          -0.2328   -0.6803   -1.8974 C.ar    1  UNL1       -0.0493
     36 C           1.0028   -0.1073   -1.7179 C.ar    1  UNL1       -0.0566
     37 H           3.9782   -1.3468    1.5166 H       1  UNL1        0.0391
     38 H           4.6212   -2.2977    0.1289 H       1  UNL1        0.0391
     39 H           2.8723   -2.0645    0.2681 H       1  UNL1        0.0391
     40 H           5.9448   -0.7218   -0.8312 H       1  UNL1        0.0458
     41 H           5.2547    0.8111   -1.4221 H       1  UNL1        0.0458
     42 H           5.9272   -0.0243    1.4759 H       1  UNL1        0.0669
     43 H           5.1325    1.5358    1.0868 H       1  UNL1        0.0669
     44 H           7.9164   -0.6739    0.2818 H       1  UNL1        0.0620
     45 H           9.0750    0.5806    0.8449 H       1  UNL1        0.0620
     46 H           8.5796    0.4736   -0.9090 H       1  UNL1        0.0620
     47 H           6.5080    4.4462   -0.2819 H       1  UNL1        0.3062
     48 H           9.2899    3.6291    0.4031 H       1  UNL1        0.2547
     49 H           8.4172    3.5092    1.9582 H       1  UNL1        0.2547
     50 H           2.9317    1.0345    0.7507 H       1  UNL1        0.0476
     51 H           3.0588    1.3468   -1.0053 H       1  UNL1        0.0476
     52 H           1.3272   -0.5944    1.5884 H       1  UNL1        0.0621
     53 H          -0.8541   -1.6024    1.2568 H       1  UNL1        0.0625
     54 H          -2.6699   -2.3671    0.9819 H       1  UNL1        0.1552
     55 H          -3.5474   -4.9587   -0.5206 H       1  UNL1        0.0637
     56 H          -5.7890   -5.9427   -0.9041 H       1  UNL1        0.0633
     57 H          -7.5013   -2.1112   -0.3295 H       1  UNL1        0.0640
     58 H          -7.2452   -0.1288    0.0471 H       1  UNL1        0.1566
     59 H          -8.1213    2.0697    0.3557 H       1  UNL1        0.0652
     60 H          -7.7843    4.4809    0.8446 H       1  UNL1        0.0634
     61 H          -3.6440    3.7851    1.1604 H       1  UNL1        0.0845
     62 H          -0.6966   -0.7134   -2.8962 H       1  UNL1        0.0625
     63 H           1.5638    0.3316   -2.5500 H       1  UNL1        0.0621
@<TRIPOS>BOND
     1     1     2    1
     2     2     3    1
     3     3     4    1
     4     4     5    1
     5     5     6    1
     6     5     7    1
     7     7     8    2
     8     7     9    1
     9     2    10    1
    10    10    11    1
    11    11    12   ar
    12    12    13   ar
    13    13    14   ar
    14    14    15    1
    15    15    16    2
    16    15    17   am
    17    17    18    1
    18    18    19   ar
    19    19    20   ar
    20    20    21   ar
    21    21    22    1
    22    21    23   ar
    23    23    24   ar
    24    24    25    1
    25    25    26    2
    26    25    27   am
    27    27    28    1
    28    28    29   ar
    29    29    30   ar
    30    30    31   ar
    31    31    32    1
    32    31    33   ar
    33    33    34   ar
    34    14    35   ar
    35    35    36   ar
    36    36    11   ar
    37    24    18   ar
    38    34    28   ar
    39     1    37    1
    40     1    38    1
    41     1    39    1
    42     3    40    1
    43     3    41    1
    44     4    42    1
    45     4    43    1
    46     6    44    1
    47     6    45    1
    48     6    46    1
    49     8    47    1
    50     9    48    1
    51     9    49    1
    52    10    50    1
    53    10    51    1
    54    12    52    1
    55    13    53    1
    56    17    54    1
    57    19    55    1
    58    20    56    1
    59    23    57    1
    60    27    58    1
    61    29    59    1
    62    30    60    1
    63    33    61    1
    64    35    62    1
    65    36    63    1
