@<TRIPOS>MOLECULE
*****
 72 77 0 0 0
SMALL
GASTEIGER

@<TRIPOS>ATOM
      1 C           1.6121    1.3710   -0.2621 C.3     1  UNL1       -0.0372
      2 C           1.3462    0.8348    1.1180 C.ar    1  UNL1       -0.0186
      3 C           0.3013    1.2983    1.8710 C.ar    1  UNL1       -0.0096
      4 C          -0.5571    2.3289    1.3288 C.ar    1  UNL1        0.0271
      5 C          -0.2304    3.6430    1.5668 C.ar    1  UNL1        0.1325
      6 F           0.8650    3.9889    2.2877 F       1  UNL1       -0.2048
      7 C          -1.0422    4.6120    1.0555 C.ar    1  UNL1       -0.0116
      8 C          -2.1816    4.2883    0.3061 C.ar    1  UNL1        0.0623
      9 C          -2.9838    5.3968   -0.1938 C.2     1  UNL1        0.2144
     10 N          -3.9889    5.2570   -0.8522 N.2     1  UNL1       -0.2667
     11 O          -2.5542    6.7088    0.1138 O.2     1  UNL1       -0.4923
     12 C          -2.5056    2.9714    0.0695 C.ar    1  UNL1        0.0600
     13 N          -3.4844    2.3713   -0.5821 N.ar    1  UNL1       -0.3571
     14 C          -3.3564    1.0226   -0.5257 C.ar    1  UNL1        0.0206
     15 C          -2.2224    0.7761    0.2104 C.ar    1  UNL1       -0.0184
     16 C          -1.6894    1.9665    0.5829 C.ar    1  UNL1        0.0143
     17 C          -1.8967   -0.6452    0.3961 C.3     1  UNL1       -0.0251
     18 C          -3.1707   -1.3107    0.8171 C.3     1  UNL1       -0.0432
     19 C          -4.1323   -1.3549   -0.2999 C.3     1  UNL1       -0.0070
     20 C          -3.9769   -2.5043   -1.2556 C.3     1  UNL1        0.0637
     21 C          -4.1203   -3.8510   -0.6222 C.3     1  UNL1       -0.0361
     22 C          -5.0613   -2.3755   -2.3147 C.3     1  UNL1       -0.0361
     23 O          -2.7691   -2.4433   -1.9401 O.3     1  UNL1       -0.3888
     24 C          -4.1759   -0.0829   -1.0851 C.3     1  UNL1       -0.0068
     25 C           0.0724    0.8059    3.1172 C.ar    1  UNL1       -0.0535
     26 C           0.9064   -0.1652    3.6105 C.ar    1  UNL1       -0.0592
     27 C           1.9595   -0.6291    2.8455 C.ar    1  UNL1       -0.0373
     28 C           2.2194   -0.1511    1.5784 C.ar    1  UNL1        0.0579
     29 N           3.2982   -0.6234    0.7940 N.ar    1  UNL1       -0.2282
     30 C           4.5821   -0.4055    1.1328 C.ar    1  UNL1        0.2689
     31 O           4.8162    0.2361    2.1792 O.2     1  UNL1       -0.2665
     32 C           5.6311   -0.8582    0.3781 C.ar    1  UNL1        0.0663
     33 C           6.9462   -0.6385    0.7205 C.ar    1  UNL1       -0.0472
     34 C           7.9801   -1.1117   -0.0664 C.ar    1  UNL1       -0.0582
     35 C           7.7108   -1.8078   -1.2008 C.ar    1  UNL1       -0.0244
     36 C           6.3986   -2.0474   -1.5758 C.ar    1  UNL1        0.1476
     37 F           6.1089   -2.7389   -2.7014 F       1  UNL1       -0.2033
     38 C           5.3524   -1.5693   -0.7809 C.ar    1  UNL1        0.0935
     39 N           4.0547   -1.7785   -1.1052 N.ar    1  UNL1       -0.2933
     40 C           3.7491   -2.5228   -2.3209 C.3     1  UNL1        0.0168
     41 C           3.0370   -1.3096   -0.3244 C.ar    1  UNL1        0.3368
     42 O           1.8362   -1.5458   -0.6936 O.2     1  UNL1       -0.2459
     43 H           1.4341    2.4801   -0.1813 H       1  UNL1        0.0278
     44 H           2.6702    1.2024   -0.4994 H       1  UNL1        0.0278
     45 H           0.8922    1.0131   -0.9977 H       1  UNL1        0.0278
     46 H          -0.7694    5.6405    1.2525 H       1  UNL1        0.0655
     47 H          -4.7757    5.1471   -1.3675 H       1  UNL1        0.1899
     48 H          -3.0244    7.5209   -0.3104 H       1  UNL1        0.2937
     49 H          -4.2669    2.8709   -1.0829 H       1  UNL1        0.1656
     50 H          -1.0497   -0.8517    1.0750 H       1  UNL1        0.0314
     51 H          -1.5517   -0.9911   -0.6260 H       1  UNL1        0.0314
     52 H          -3.6250   -0.6462    1.6161 H       1  UNL1        0.0272
     53 H          -3.0157   -2.2741    1.3390 H       1  UNL1        0.0272
     54 H          -5.1594   -1.4958    0.1900 H       1  UNL1        0.0332
     55 H          -3.6675   -3.9539    0.3633 H       1  UNL1        0.0257
     56 H          -5.2004   -4.1420   -0.5034 H       1  UNL1        0.0257
     57 H          -3.6728   -4.6297   -1.2741 H       1  UNL1        0.0257
     58 H          -5.3092   -3.4092   -2.6748 H       1  UNL1        0.0257
     59 H          -6.0097   -1.9582   -1.8846 H       1  UNL1        0.0257
     60 H          -4.7370   -1.7893   -3.1906 H       1  UNL1        0.0257
     61 H          -2.7920   -3.0683   -2.7110 H       1  UNL1        0.2101
     62 H          -5.2310    0.3179   -1.1421 H       1  UNL1        0.0331
     63 H          -3.8992   -0.2373   -2.1699 H       1  UNL1        0.0331
     64 H          -0.7434    1.1625    3.7144 H       1  UNL1        0.0624
     65 H           0.7857   -0.6035    4.5928 H       1  UNL1        0.0618
     66 H           2.6224   -1.3983    3.2322 H       1  UNL1        0.0638
     67 H           7.2054   -0.0908    1.6129 H       1  UNL1        0.0626
     68 H           9.0016   -0.9299    0.2172 H       1  UNL1        0.0619
     69 H           8.4813   -2.1942   -1.8414 H       1  UNL1        0.0647
     70 H           4.0497   -3.5722   -2.2829 H       1  UNL1        0.0457
     71 H           4.0539   -1.9787   -3.2458 H       1  UNL1        0.0457
     72 H           2.6194   -2.5478   -2.3979 H       1  UNL1        0.0457
@<TRIPOS>BOND
     1     1     2    1
     2     2     3   ar
     3     3     4    1
     4     4     5   ar
     5     5     6    1
     6     5     7   ar
     7     7     8   ar
     8     8     9    1
     9     9    10    2
    10     9    11    1
    11     8    12   ar
    12    12    13   ar
    13    13    14   ar
    14    14    15   ar
    15    15    16   ar
    16    15    17    1
    17    17    18    1
    18    18    19    1
    19    19    20    1
    20    20    21    1
    21    20    22    1
    22    20    23    1
    23    19    24    1
    24     3    25   ar
    25    25    26   ar
    26    26    27   ar
    27    27    28   ar
    28    28    29    1
    29    29    30   ar
    30    30    31    2
    31    30    32   ar
    32    32    33   ar
    33    33    34   ar
    34    34    35   ar
    35    35    36   ar
    36    36    37    1
    37    36    38   ar
    38    38    39   ar
    39    39    40    1
    40    39    41   ar
    41    41    42    2
    42    28     2   ar
    43    41    29   ar
    44    16     4   ar
    45    38    32   ar
    46    16    12   ar
    47    24    14    1
    48     1    43    1
    49     1    44    1
    50     1    45    1
    51     7    46    1
    52    10    47    1
    53    11    48    1
    54    13    49    1
    55    17    50    1
    56    17    51    1
    57    18    52    1
    58    18    53    1
    59    19    54    1
    60    21    55    1
    61    21    56    1
    62    21    57    1
    63    22    58    1
    64    22    59    1
    65    22    60    1
    66    23    61    1
    67    24    62    1
    68    24    63    1
    69    25    64    1
    70    26    65    1
    71    27    66    1
    72    33    67    1
    73    34    68    1
    74    35    69    1
    75    40    70    1
    76    40    71    1
    77    40    72    1
