
     RDKit          3D

 72 77  0  0  0  0  0  0  0  0999 V2000
    1.6121    1.3710   -0.2621 C   0  0  0  0  0  0  0  0  0  0  0  0
    1.3462    0.8348    1.1180 C   0  0  0  0  0  0  0  0  0  0  0  0
    0.3013    1.2983    1.8710 C   0  0  0  0  0  0  0  0  0  0  0  0
   -0.5571    2.3289    1.3288 C   0  0  0  0  0  0  0  0  0  0  0  0
   -0.2304    3.6430    1.5668 C   0  0  0  0  0  0  0  0  0  0  0  0
    0.8650    3.9889    2.2877 F   0  0  0  0  0  0  0  0  0  0  0  0
   -1.0422    4.6120    1.0555 C   0  0  0  0  0  0  0  0  0  0  0  0
   -2.1816    4.2883    0.3061 C   0  0  0  0  0  0  0  0  0  0  0  0
   -2.9838    5.3968   -0.1938 C   0  0  0  0  0  0  0  0  0  0  0  0
   -3.9889    5.2570   -0.8522 N   0  0  0  0  0  0  0  0  0  0  0  0
   -2.5542    6.7088    0.1138 O   0  0  0  0  0  0  0  0  0  0  0  0
   -2.5056    2.9714    0.0695 C   0  0  0  0  0  0  0  0  0  0  0  0
   -3.4844    2.3713   -0.5821 N   0  0  0  0  0  0  0  0  0  0  0  0
   -3.3564    1.0226   -0.5257 C   0  0  0  0  0  0  0  0  0  0  0  0
   -2.2224    0.7761    0.2104 C   0  0  0  0  0  0  0  0  0  0  0  0
   -1.6894    1.9665    0.5829 C   0  0  0  0  0  0  0  0  0  0  0  0
   -1.8967   -0.6452    0.3961 C   0  0  0  0  0  0  0  0  0  0  0  0
   -3.1707   -1.3107    0.8171 C   0  0  0  0  0  0  0  0  0  0  0  0
   -4.1323   -1.3549   -0.2999 C   0  0  2  0  0  0  0  0  0  0  0  0
   -3.9769   -2.5043   -1.2556 C   0  0  0  0  0  0  0  0  0  0  0  0
   -4.1203   -3.8510   -0.6222 C   0  0  0  0  0  0  0  0  0  0  0  0
   -5.0613   -2.3755   -2.3147 C   0  0  0  0  0  0  0  0  0  0  0  0
   -2.7691   -2.4433   -1.9401 O   0  0  0  0  0  0  0  0  0  0  0  0
   -4.1759   -0.0829   -1.0851 C   0  0  0  0  0  0  0  0  0  0  0  0
    0.0724    0.8059    3.1172 C   0  0  0  0  0  0  0  0  0  0  0  0
    0.9064   -0.1652    3.6105 C   0  0  0  0  0  0  0  0  0  0  0  0
    1.9595   -0.6291    2.8455 C   0  0  0  0  0  0  0  0  0  0  0  0
    2.2194   -0.1511    1.5784 C   0  0  0  0  0  0  0  0  0  0  0  0
    3.2982   -0.6234    0.7940 N   0  0  0  0  0  0  0  0  0  0  0  0
    4.5821   -0.4055    1.1328 C   0  0  0  0  0  0  0  0  0  0  0  0
    4.8162    0.2361    2.1792 O   0  0  0  0  0  0  0  0  0  0  0  0
    5.6311   -0.8582    0.3781 C   0  0  0  0  0  0  0  0  0  0  0  0
    6.9462   -0.6385    0.7205 C   0  0  0  0  0  0  0  0  0  0  0  0
    7.9801   -1.1117   -0.0664 C   0  0  0  0  0  0  0  0  0  0  0  0
    7.7108   -1.8078   -1.2008 C   0  0  0  0  0  0  0  0  0  0  0  0
    6.3986   -2.0474   -1.5758 C   0  0  0  0  0  0  0  0  0  0  0  0
    6.1089   -2.7389   -2.7014 F   0  0  0  0  0  0  0  0  0  0  0  0
    5.3524   -1.5693   -0.7809 C   0  0  0  0  0  0  0  0  0  0  0  0
    4.0547   -1.7785   -1.1052 N   0  0  0  0  0  0  0  0  0  0  0  0
    3.7491   -2.5228   -2.3209 C   0  0  0  0  0  0  0  0  0  0  0  0
    3.0370   -1.3096   -0.3244 C   0  0  0  0  0  0  0  0  0  0  0  0
    1.8362   -1.5458   -0.6936 O   0  0  0  0  0  0  0  0  0  0  0  0
    1.4341    2.4801   -0.1813 H   0  0  0  0  0  0  0  0  0  0  0  0
    2.6702    1.2024   -0.4994 H   0  0  0  0  0  0  0  0  0  0  0  0
    0.8922    1.0131   -0.9977 H   0  0  0  0  0  0  0  0  0  0  0  0
   -0.7694    5.6405    1.2525 H   0  0  0  0  0  0  0  0  0  0  0  0
   -4.7757    5.1471   -1.3675 H   0  0  0  0  0  0  0  0  0  0  0  0
   -3.0244    7.5209   -0.3104 H   0  0  0  0  0  0  0  0  0  0  0  0
   -4.2669    2.8709   -1.0829 H   0  0  0  0  0  0  0  0  0  0  0  0
   -1.0497   -0.8517    1.0750 H   0  0  0  0  0  0  0  0  0  0  0  0
   -1.5517   -0.9911   -0.6260 H   0  0  0  0  0  0  0  0  0  0  0  0
   -3.6250   -0.6462    1.6161 H   0  0  0  0  0  0  0  0  0  0  0  0
   -3.0157   -2.2741    1.3390 H   0  0  0  0  0  0  0  0  0  0  0  0
   -5.1594   -1.4958    0.1900 H   0  0  0  0  0  0  0  0  0  0  0  0
   -3.6675   -3.9539    0.3633 H   0  0  0  0  0  0  0  0  0  0  0  0
   -5.2004   -4.1420   -0.5034 H   0  0  0  0  0  0  0  0  0  0  0  0
   -3.6728   -4.6297   -1.2741 H   0  0  0  0  0  0  0  0  0  0  0  0
   -5.3092   -3.4092   -2.6748 H   0  0  0  0  0  0  0  0  0  0  0  0
   -6.0097   -1.9582   -1.8846 H   0  0  0  0  0  0  0  0  0  0  0  0
   -4.7370   -1.7893   -3.1906 H   0  0  0  0  0  0  0  0  0  0  0  0
   -2.7920   -3.0683   -2.7110 H   0  0  0  0  0  0  0  0  0  0  0  0
   -5.2310    0.3179   -1.1421 H   0  0  0  0  0  0  0  0  0  0  0  0
   -3.8992   -0.2373   -2.1699 H   0  0  0  0  0  0  0  0  0  0  0  0
   -0.7434    1.1625    3.7144 H   0  0  0  0  0  0  0  0  0  0  0  0
    0.7857   -0.6035    4.5928 H   0  0  0  0  0  0  0  0  0  0  0  0
    2.6224   -1.3983    3.2322 H   0  0  0  0  0  0  0  0  0  0  0  0
    7.2054   -0.0908    1.6129 H   0  0  0  0  0  0  0  0  0  0  0  0
    9.0016   -0.9299    0.2172 H   0  0  0  0  0  0  0  0  0  0  0  0
    8.4813   -2.1942   -1.8414 H   0  0  0  0  0  0  0  0  0  0  0  0
    4.0497   -3.5722   -2.2829 H   0  0  0  0  0  0  0  0  0  0  0  0
    4.0539   -1.9787   -3.2458 H   0  0  0  0  0  0  0  0  0  0  0  0
    2.6194   -2.5478   -2.3979 H   0  0  0  0  0  0  0  0  0  0  0  0
  1  2  1  0
  2  3  2  0
  3  4  1  0
  4  5  2  0
  5  6  1  0
  5  7  1  0
  7  8  2  0
  8  9  1  0
  9 10  2  3
  9 11  1  0
  8 12  1  0
 12 13  1  0
 13 14  1  0
 14 15  2  0
 15 16  1  0
 15 17  1  0
 17 18  1  0
 18 19  1  0
 19 20  1  0
 20 21  1  0
 20 22  1  0
 20 23  1  0
 19 24  1  0
  3 25  1  0
 25 26  2  0
 26 27  1  0
 27 28  2  0
 28 29  1  0
 29 30  1  0
 30 31  2  0
 30 32  1  0
 32 33  2  0
 33 34  1  0
 34 35  2  0
 35 36  1  0
 36 37  1  0
 36 38  2  0
 38 39  1  0
 39 40  1  0
 39 41  1  0
 41 42  2  0
 28  2  1  0
 41 29  1  0
 16  4  1  0
 38 32  1  0
 16 12  2  0
 24 14  1  0
  1 43  1  0
  1 44  1  0
  1 45  1  0
  7 46  1  0
 10 47  1  0
 11 48  1  0
 13 49  1  0
 17 50  1  0
 17 51  1  0
 18 52  1  0
 18 53  1  0
 19 54  1  1
 21 55  1  0
 21 56  1  0
 21 57  1  0
 22 58  1  0
 22 59  1  0
 22 60  1  0
 23 61  1  0
 24 62  1  0
 24 63  1  0
 25 64  1  0
 26 65  1  0
 27 66  1  0
 33 67  1  0
 34 68  1  0
 35 69  1  0
 40 70  1  0
 40 71  1  0
 40 72  1  0
M  END
$$$$
