
     RDKit          3D

 29 31  0  0  0  0  0  0  0  0999 V2000
   -0.3965    2.4948    0.0519 N   0  0  0  0  0  0  0  0  0  0  0  0
   -0.4168    1.0727    0.0867 C   0  0  0  0  0  0  0  0  0  0  0  0
    0.8015    0.3990    0.1715 C   0  0  0  0  0  0  0  0  0  0  0  0
    0.7562   -0.9765    0.2037 C   0  0  0  0  0  0  0  0  0  0  0  0
   -0.4390   -1.6146    0.1534 N   0  0  0  0  0  0  0  0  0  0  0  0
   -1.6255   -1.0025    0.0720 C   0  0  0  0  0  0  0  0  0  0  0  0
   -2.8188   -1.6915    0.0231 C   0  0  0  0  0  0  0  0  0  0  0  0
   -4.0149   -1.0320   -0.0601 C   0  0  0  0  0  0  0  0  0  0  0  0
   -4.0092    0.3628   -0.0950 C   0  0  0  0  0  0  0  0  0  0  0  0
   -2.8200    1.0558   -0.0465 C   0  0  0  0  0  0  0  0  0  0  0  0
   -1.6148    0.3945    0.0373 C   0  0  0  0  0  0  0  0  0  0  0  0
    2.0027   -1.8194    0.2934 C   0  0  0  0  0  0  0  0  0  0  0  0
    3.1185   -0.9406    0.8131 C   0  0  0  0  0  0  0  0  0  0  0  0
    3.2000    0.2215   -0.1837 C   0  0  0  0  0  0  0  0  0  0  0  0
    2.0857    1.1598    0.2244 C   0  0  0  0  0  0  0  0  0  0  0  0
   -0.9473    3.0757   -0.6007 H   0  0  0  0  0  0  0  0  0  0  0  0
    0.2183    3.0058    0.7332 H   0  0  0  0  0  0  0  0  0  0  0  0
   -2.8262   -2.7677    0.0499 H   0  0  0  0  0  0  0  0  0  0  0  0
   -4.9453   -1.5860   -0.0978 H   0  0  0  0  0  0  0  0  0  0  0  0
   -4.9524    0.8857   -0.1607 H   0  0  0  0  0  0  0  0  0  0  0  0
   -2.7940    2.1473   -0.0726 H   0  0  0  0  0  0  0  0  0  0  0  0
    2.3134   -2.1605   -0.7214 H   0  0  0  0  0  0  0  0  0  0  0  0
    1.7698   -2.6648    0.9751 H   0  0  0  0  0  0  0  0  0  0  0  0
    4.0682   -1.5141    0.8302 H   0  0  0  0  0  0  0  0  0  0  0  0
    2.8277   -0.5685    1.8140 H   0  0  0  0  0  0  0  0  0  0  0  0
    4.1830    0.6978   -0.1875 H   0  0  0  0  0  0  0  0  0  0  0  0
    2.9412   -0.1438   -1.2083 H   0  0  0  0  0  0  0  0  0  0  0  0
    2.0496    2.0665   -0.4082 H   0  0  0  0  0  0  0  0  0  0  0  0
    2.2848    1.4430    1.2993 H   0  0  0  0  0  0  0  0  0  0  0  0
  1  2  1  0
  2  3  2  0
  3  4  1  0
  4  5  2  0
  5  6  1  0
  6  7  2  0
  7  8  1  0
  8  9  2  0
  9 10  1  0
 10 11  2  0
  4 12  1  0
 12 13  1  0
 13 14  1  0
 14 15  1  0
 11  2  1  0
 15  3  1  0
 11  6  1  0
  1 16  1  0
  1 17  1  0
  7 18  1  0
  8 19  1  0
  9 20  1  0
 10 21  1  0
 12 22  1  0
 12 23  1  0
 13 24  1  0
 13 25  1  0
 14 26  1  0
 14 27  1  0
 15 28  1  0
 15 29  1  0
M  END
$$$$
