@<TRIPOS>MOLECULE
*****
 29 31 0 0 0
SMALL
GASTEIGER

@<TRIPOS>ATOM
      1 N          -0.3965    2.4948    0.0519 N.pl3   1  UNL1       -0.3572
      2 C          -0.4168    1.0727    0.0867 C.ar    1  UNL1        0.0388
      3 C           0.8015    0.3990    0.1715 C.ar    1  UNL1       -0.0049
      4 C           0.7562   -0.9765    0.2037 C.ar    1  UNL1        0.0469
      5 N          -0.4390   -1.6146    0.1534 N.ar    1  UNL1       -0.2512
      6 C          -1.6255   -1.0025    0.0720 C.ar    1  UNL1        0.0730
      7 C          -2.8188   -1.6915    0.0231 C.ar    1  UNL1       -0.0357
      8 C          -4.0149   -1.0320   -0.0601 C.ar    1  UNL1       -0.0597
      9 C          -4.0092    0.3628   -0.0950 C.ar    1  UNL1       -0.0610
     10 C          -2.8200    1.0558   -0.0465 C.ar    1  UNL1       -0.0508
     11 C          -1.6148    0.3945    0.0373 C.ar    1  UNL1        0.0213
     12 C           2.0027   -1.8194    0.2934 C.3     1  UNL1       -0.0101
     13 C           3.1185   -0.9406    0.8131 C.3     1  UNL1       -0.0473
     14 C           3.2000    0.2215   -0.1837 C.3     1  UNL1       -0.0486
     15 C           2.0857    1.1598    0.2244 C.3     1  UNL1       -0.0242
     16 H          -0.9473    3.0757   -0.6007 H       1  UNL1        0.1423
     17 H           0.2183    3.0058    0.7332 H       1  UNL1        0.1423
     18 H          -2.8262   -2.7677    0.0499 H       1  UNL1        0.0639
     19 H          -4.9453   -1.5860   -0.0978 H       1  UNL1        0.0618
     20 H          -4.9524    0.8857   -0.1607 H       1  UNL1        0.0618
     21 H          -2.7940    2.1473   -0.0726 H       1  UNL1        0.0625
     22 H           2.3134   -2.1605   -0.7214 H       1  UNL1        0.0328
     23 H           1.7698   -2.6648    0.9751 H       1  UNL1        0.0328
     24 H           4.0682   -1.5141    0.8302 H       1  UNL1        0.0269
     25 H           2.8277   -0.5685    1.8140 H       1  UNL1        0.0269
     26 H           4.1830    0.6978   -0.1875 H       1  UNL1        0.0269
     27 H           2.9412   -0.1438   -1.2083 H       1  UNL1        0.0269
     28 H           2.0496    2.0665   -0.4082 H       1  UNL1        0.0314
     29 H           2.2848    1.4430    1.2993 H       1  UNL1        0.0314
@<TRIPOS>BOND
     1     1     2    1
     2     2     3   ar
     3     3     4   ar
     4     4     5   ar
     5     5     6   ar
     6     6     7   ar
     7     7     8   ar
     8     8     9   ar
     9     9    10   ar
    10    10    11   ar
    11     4    12    1
    12    12    13    1
    13    13    14    1
    14    14    15    1
    15    11     2   ar
    16    15     3    1
    17    11     6   ar
    18     1    16    1
    19     1    17    1
    20     7    18    1
    21     8    19    1
    22     9    20    1
    23    10    21    1
    24    12    22    1
    25    12    23    1
    26    13    24    1
    27    13    25    1
    28    14    26    1
    29    14    27    1
    30    15    28    1
    31    15    29    1
