
     RDKit          3D

 50 54  0  0  0  0  0  0  0  0999 V2000
   -5.3210    1.3370    3.2466 C   0  0  0  0  0  0  0  0  0  0  0  0
   -4.5722    0.7842    2.0867 N   0  0  0  0  0  0  0  0  0  0  0  0
   -4.3502    1.5040    0.9144 C   0  0  0  0  0  0  0  0  0  0  0  0
   -4.7937    2.7113    0.8168 O   0  0  0  0  0  0  0  0  0  0  0  0
   -3.6281    0.9716   -0.2438 C   0  0  1  0  0  0  0  0  0  0  0  0
   -3.2605    1.9872   -1.2786 C   0  0  0  0  0  0  0  0  0  0  0  0
   -2.2139    1.1176   -0.5518 C   0  0  2  0  0  0  0  0  0  0  0  0
   -1.7410   -0.0434   -1.3692 C   0  0  1  0  0  0  0  0  0  0  0  0
   -0.9892   -1.0497   -0.6929 N   0  0  0  0  0  0  0  0  0  0  0  0
   -1.4515   -2.2699   -0.2774 C   0  0  0  0  0  0  0  0  0  0  0  0
   -0.4417   -2.9984    0.2775 N   0  0  0  0  0  0  0  0  0  0  0  0
    0.6366   -2.2718    0.2182 C   0  0  0  0  0  0  0  0  0  0  0  0
    1.9575   -2.5459    0.6439 C   0  0  0  0  0  0  0  0  0  0  0  0
    2.2299   -3.8343    1.1794 N   0  0  0  0  0  0  0  0  0  0  0  0
    3.5964   -4.0948    1.6126 C   0  0  0  0  0  0  0  0  0  0  0  0
    2.7998   -1.5961    0.4432 N   0  0  0  0  0  0  0  0  0  0  0  0
    2.5510   -0.3441   -0.1416 C   0  0  0  0  0  0  0  0  0  0  0  0
    3.7250    0.4606   -0.2107 C   0  0  0  0  0  0  0  0  0  0  0  0
    4.7448    1.1636   -0.2545 C   0  0  0  0  0  0  0  0  0  0  0  0
    5.9736    2.0013   -0.2824 C   0  0  0  0  0  0  0  0  0  0  0  0
    7.0654    1.7427   -1.0296 C   0  0  0  0  0  0  0  0  0  0  0  0
    8.1308    2.5126   -0.9253 C   0  0  0  0  0  0  0  0  0  0  0  0
    8.0605    3.5794   -0.0217 C   0  0  0  0  0  0  0  0  0  0  0  0
    9.2577    4.7882    0.4667 Cl  0  0  0  0  0  0  0  0  0  0  0  0
    6.3762    3.3564    0.6180 S   0  0  0  0  0  0  0  0  0  0  0  0
    1.3195   -0.1198   -0.5324 N   0  0  0  0  0  0  0  0  0  0  0  0
    0.3313   -1.0533   -0.3743 C   0  0  0  0  0  0  0  0  0  0  0  0
   -3.0506   -0.6427   -1.8896 C   0  0  2  0  0  0  0  0  0  0  0  0
   -3.3658   -0.2089   -3.1662 O   0  0  0  0  0  0  0  0  0  0  0  0
   -4.0846   -0.3562   -0.8544 C   0  0  2  0  0  0  0  0  0  0  0  0
   -5.3337   -0.1725   -1.5055 O   0  0  0  0  0  0  0  0  0  0  0  0
   -5.2564    0.5965    4.0718 H   0  0  0  0  0  0  0  0  0  0  0  0
   -4.8592    2.2844    3.5770 H   0  0  0  0  0  0  0  0  0  0  0  0
   -6.3640    1.5435    2.9739 H   0  0  0  0  0  0  0  0  0  0  0  0
   -4.2037   -0.2075    2.2132 H   0  0  0  0  0  0  0  0  0  0  0  0
   -3.3323    3.0641   -0.9732 H   0  0  0  0  0  0  0  0  0  0  0  0
   -3.5231    1.8251   -2.2984 H   0  0  0  0  0  0  0  0  0  0  0  0
   -1.5057    1.6865    0.0741 H   0  0  0  0  0  0  0  0  0  0  0  0
   -1.2383    0.3602   -2.2910 H   0  0  0  0  0  0  0  0  0  0  0  0
   -2.4688   -2.5995   -0.3632 H   0  0  0  0  0  0  0  0  0  0  0  0
    1.4920   -4.5921    1.2657 H   0  0  0  0  0  0  0  0  0  0  0  0
    3.6508   -5.2069    1.7081 H   0  0  0  0  0  0  0  0  0  0  0  0
    3.8724   -3.5570    2.5398 H   0  0  0  0  0  0  0  0  0  0  0  0
    4.2659   -3.8194    0.7484 H   0  0  0  0  0  0  0  0  0  0  0  0
    7.0497    0.8620   -1.7248 H   0  0  0  0  0  0  0  0  0  0  0  0
    9.0822    2.3790   -1.4921 H   0  0  0  0  0  0  0  0  0  0  0  0
   -2.8929   -1.7334   -1.9598 H   0  0  0  0  0  0  0  0  0  0  0  0
   -3.8079   -0.9823   -3.6268 H   0  0  0  0  0  0  0  0  0  0  0  0
   -4.1561   -1.0895   -0.0452 H   0  0  0  0  0  0  0  0  0  0  0  0
   -5.9629   -0.9042   -1.3198 H   0  0  0  0  0  0  0  0  0  0  0  0
  1  2  1  0
  2  3  1  0
  3  4  2  0
  5  3  1  1
  5  6  1  0
  6  7  1  0
  7  8  1  0
  8  9  1  0
  9 10  1  0
 10 11  2  0
 11 12  1  0
 12 13  2  0
 13 14  1  0
 14 15  1  0
 13 16  1  0
 16 17  2  0
 17 18  1  0
 18 19  3  0
 19 20  1  0
 20 21  2  0
 21 22  1  0
 22 23  2  0
 23 24  1  0
 23 25  1  0
 17 26  1  0
 26 27  2  0
  8 28  1  0
 28 29  1  0
 28 30  1  0
 30 31  1  0
  7  5  1  0
 27  9  1  0
 30  5  1  0
 27 12  1  0
 25 20  1  0
  1 32  1  0
  1 33  1  0
  1 34  1  0
  2 35  1  0
  6 36  1  0
  6 37  1  0
  7 38  1  1
  8 39  1  6
 10 40  1  0
 14 41  1  0
 15 42  1  0
 15 43  1  0
 15 44  1  0
 21 45  1  0
 22 46  1  0
 28 47  1  6
 29 48  1  0
 30 49  1  1
 31 50  1  0
M  END
$$$$
