@<TRIPOS>MOLECULE
*****
 50 54 0 0 0
SMALL
GASTEIGER

@<TRIPOS>ATOM
      1 C          -5.3210    1.3370    3.2466 C.3     1  UNL1        0.0001
      2 N          -4.5722    0.7842    2.0867 N.am    1  UNL1       -0.3178
      3 C          -4.3502    1.5040    0.9144 C.2     1  UNL1        0.2219
      4 O          -4.7937    2.7113    0.8168 O.2     1  UNL1       -0.2751
      5 C          -3.6281    0.9716   -0.2438 C.3     1  UNL1        0.0803
      6 C          -3.2605    1.9872   -1.2786 C.3     1  UNL1       -0.0304
      7 C          -2.2139    1.1176   -0.5518 C.3     1  UNL1       -0.0001
      8 C          -1.7410   -0.0434   -1.3692 C.3     1  UNL1        0.0695
      9 N          -0.9892   -1.0497   -0.6929 N.ar    1  UNL1       -0.3089
     10 C          -1.4515   -2.2699   -0.2774 C.ar    1  UNL1        0.0987
     11 N          -0.4417   -2.9984    0.2775 N.ar    1  UNL1       -0.2306
     12 C           0.6366   -2.2718    0.2182 C.ar    1  UNL1        0.1475
     13 C           1.9575   -2.5459    0.6439 C.ar    1  UNL1        0.1508
     14 N           2.2299   -3.8343    1.1794 N.pl3   1  UNL1       -0.3303
     15 C           3.5964   -4.0948    1.6126 C.3     1  UNL1       -0.0010
     16 N           2.7998   -1.5961    0.4432 N.ar    1  UNL1       -0.2031
     17 C           2.5510   -0.3441   -0.1416 C.ar    1  UNL1        0.2093
     18 C           3.7250    0.4606   -0.2107 C.1     1  UNL1       -0.0205
     19 C           4.7448    1.1636   -0.2545 C.1     1  UNL1       -0.0508
     20 C           5.9736    2.0013   -0.2824 C.ar    1  UNL1        0.0638
     21 C           7.0654    1.7427   -1.0296 C.ar    1  UNL1       -0.0377
     22 C           8.1308    2.5126   -0.9253 C.ar    1  UNL1       -0.0350
     23 C           8.0605    3.5794   -0.0217 C.ar    1  UNL1        0.0792
     24 CL          9.2577    4.7882    0.4667 Cl      1  UNL1       -0.0758
     25 S           6.3762    3.3564    0.6180 S.2     1  UNL1       -0.0684
     26 N           1.3195   -0.1198   -0.5324 N.ar    1  UNL1       -0.2004
     27 C           0.3313   -1.0533   -0.3743 C.ar    1  UNL1        0.1669
     28 C          -3.0506   -0.6427   -1.8896 C.3     1  UNL1        0.1030
     29 O          -3.3658   -0.2089   -3.1662 O.3     1  UNL1       -0.3871
     30 C          -4.0846   -0.3562   -0.8544 C.3     1  UNL1        0.0972
     31 O          -5.3337   -0.1725   -1.5055 O.3     1  UNL1       -0.3881
     32 H          -5.2564    0.5965    4.0718 H       1  UNL1        0.0426
     33 H          -4.8592    2.2844    3.5770 H       1  UNL1        0.0426
     34 H          -6.3640    1.5435    2.9739 H       1  UNL1        0.0426
     35 H          -4.2037   -0.2075    2.2132 H       1  UNL1        0.1484
     36 H          -3.3323    3.0641   -0.9732 H       1  UNL1        0.0280
     37 H          -3.5231    1.8251   -2.2984 H       1  UNL1        0.0280
     38 H          -1.5057    1.6865    0.0741 H       1  UNL1        0.0333
     39 H          -1.2383    0.3602   -2.2910 H       1  UNL1        0.0558
     40 H          -2.4688   -2.5995   -0.3632 H       1  UNL1        0.1029
     41 H           1.4920   -4.5921    1.2657 H       1  UNL1        0.1472
     42 H           3.6508   -5.2069    1.7081 H       1  UNL1        0.0426
     43 H           3.8724   -3.5570    2.5398 H       1  UNL1        0.0426
     44 H           4.2659   -3.8194    0.7484 H       1  UNL1        0.0426
     45 H           7.0497    0.8620   -1.7248 H       1  UNL1        0.0636
     46 H           9.0822    2.3790   -1.4921 H       1  UNL1        0.0638
     47 H          -2.8929   -1.7334   -1.9598 H       1  UNL1        0.0640
     48 H          -3.8079   -0.9823   -3.6268 H       1  UNL1        0.2100
     49 H          -4.1561   -1.0895   -0.0452 H       1  UNL1        0.0630
     50 H          -5.9629   -0.9042   -1.3198 H       1  UNL1        0.2099
@<TRIPOS>BOND
     1     1     2    1
     2     2     3   am
     3     3     4    2
     4     5     3    1
     5     5     6    1
     6     6     7    1
     7     7     8    1
     8     8     9    1
     9     9    10   ar
    10    10    11   ar
    11    11    12   ar
    12    12    13   ar
    13    13    14    1
    14    14    15    1
    15    13    16   ar
    16    16    17   ar
    17    17    18    1
    18    18    19    3
    19    19    20    1
    20    20    21   ar
    21    21    22   ar
    22    22    23   ar
    23    23    24    1
    24    23    25   ar
    25    17    26   ar
    26    26    27   ar
    27     8    28    1
    28    28    29    1
    29    28    30    1
    30    30    31    1
    31     7     5    1
    32    27     9   ar
    33    30     5    1
    34    27    12   ar
    35    25    20   ar
    36     1    32    1
    37     1    33    1
    38     1    34    1
    39     2    35    1
    40     6    36    1
    41     6    37    1
    42     7    38    1
    43     8    39    1
    44    10    40    1
    45    14    41    1
    46    15    42    1
    47    15    43    1
    48    15    44    1
    49    21    45    1
    50    22    46    1
    51    28    47    1
    52    29    48    1
    53    30    49    1
    54    31    50    1
