
     RDKit          3D

 36 39  0  0  0  0  0  0  0  0999 V2000
   -2.1434   -3.4949   -0.8697 C   0  0  0  0  0  0  0  0  0  0  0  0
   -1.3262   -2.4626   -0.3497 O   0  0  0  0  0  0  0  0  0  0  0  0
   -1.7765   -1.1860   -0.0931 C   0  0  0  0  0  0  0  0  0  0  0  0
   -3.0666   -0.7821   -0.3158 C   0  0  0  0  0  0  0  0  0  0  0  0
   -3.5057    0.5084   -0.0512 C   0  0  0  0  0  0  0  0  0  0  0  0
   -4.7736    0.8827   -0.2782 N   0  0  0  0  0  0  0  0  0  0  0  0
   -5.1310    2.1433   -0.0020 C   0  0  0  0  0  0  0  0  0  0  0  0
   -4.2705    3.0938    0.5069 C   0  0  0  0  0  0  0  0  0  0  0  0
   -2.9733    2.7198    0.7416 C   0  0  0  0  0  0  0  0  0  0  0  0
   -2.6007    1.4114    0.4555 C   0  0  0  0  0  0  0  0  0  0  0  0
   -1.2701    1.0402    0.6984 C   0  0  0  0  0  0  0  0  0  0  0  0
   -0.8930   -0.2630    0.4134 C   0  0  0  0  0  0  0  0  0  0  0  0
    0.4593   -0.6657    0.6498 N   0  0  0  0  0  0  0  0  0  0  0  0
    1.3627   -0.4629   -0.4199 C   0  0  0  0  0  0  0  0  0  0  0  0
    1.0705    0.0316   -1.5261 O   0  0  0  0  0  0  0  0  0  0  0  0
    2.8211   -0.8567   -0.2775 C   0  0  0  0  0  0  0  0  0  0  0  0
    3.1078   -2.1683   -0.5755 C   0  0  0  0  0  0  0  0  0  0  0  0
    4.9448   -2.1656   -0.2708 S   0  0  0  0  0  0  0  0  0  0  0  0
    5.0863   -0.4697    0.1993 C   0  0  0  0  0  0  0  0  0  0  0  0
    6.1411    0.3155    0.5812 C   0  0  0  0  0  0  0  0  0  0  0  0
    5.9438    1.6067    0.8891 N   0  0  0  0  0  0  0  0  0  0  0  0
    4.6957    2.0839    0.8082 C   0  0  0  0  0  0  0  0  0  0  0  0
    3.6795    1.3231    0.4388 N   0  0  0  0  0  0  0  0  0  0  0  0
    3.7834   -0.0145    0.1035 C   0  0  0  0  0  0  0  0  0  0  0  0
   -1.5945   -4.4617   -0.7798 H   0  0  0  0  0  0  0  0  0  0  0  0
   -2.4464   -3.3179   -1.9267 H   0  0  0  0  0  0  0  0  0  0  0  0
   -3.0196   -3.5908   -0.1889 H   0  0  0  0  0  0  0  0  0  0  0  0
   -3.7733   -1.4935   -0.7133 H   0  0  0  0  0  0  0  0  0  0  0  0
   -6.1689    2.4567   -0.1864 H   0  0  0  0  0  0  0  0  0  0  0  0
   -4.5792    4.1129    0.7231 H   0  0  0  0  0  0  0  0  0  0  0  0
   -2.2170    3.4066    1.1433 H   0  0  0  0  0  0  0  0  0  0  0  0
   -0.5795    1.7715    1.0983 H   0  0  0  0  0  0  0  0  0  0  0  0
    0.7743   -1.0769    1.5314 H   0  0  0  0  0  0  0  0  0  0  0  0
    2.5893   -2.9812   -0.8765 H   0  0  0  0  0  0  0  0  0  0  0  0
    7.1201   -0.1469    0.6210 H   0  0  0  0  0  0  0  0  0  0  0  0
    4.5292    3.1529    1.0636 H   0  0  0  0  0  0  0  0  0  0  0  0
  1  2  1  0
  2  3  1  0
  3  4  2  0
  4  5  1  0
  5  6  2  0
  6  7  1  0
  7  8  2  0
  8  9  1  0
  9 10  2  0
 10 11  1  0
 11 12  2  0
 12 13  1  0
 13 14  1  0
 14 15  2  0
 14 16  1  0
 16 17  2  0
 17 18  1  0
 18 19  1  0
 19 20  2  0
 20 21  1  0
 21 22  2  0
 22 23  1  0
 23 24  2  0
 12  3  1  0
 24 16  1  0
 10  5  1  0
 24 19  1  0
  1 25  1  0
  1 26  1  0
  1 27  1  0
  4 28  1  0
  7 29  1  0
  8 30  1  0
  9 31  1  0
 11 32  1  0
 13 33  1  0
 17 34  1  0
 20 35  1  0
 22 36  1  0
M  END
$$$$
