@<TRIPOS>MOLECULE
*****
 36 39 0 0 0
SMALL
GASTEIGER

@<TRIPOS>ATOM
      1 C          -2.1434   -3.4949   -0.8697 C.3     1  UNL1        0.0789
      2 O          -1.3262   -2.4626   -0.3497 O.3     1  UNL1       -0.4932
      3 C          -1.7765   -1.1860   -0.0931 C.ar    1  UNL1        0.1432
      4 C          -3.0666   -0.7821   -0.3158 C.ar    1  UNL1        0.0079
      5 C          -3.5057    0.5084   -0.0512 C.ar    1  UNL1        0.0745
      6 N          -4.7736    0.8827   -0.2782 N.ar    1  UNL1       -0.2549
      7 C          -5.1310    2.1433   -0.0020 C.ar    1  UNL1        0.0283
      8 C          -4.2705    3.0938    0.5069 C.ar    1  UNL1       -0.0430
      9 C          -2.9733    2.7198    0.7416 C.ar    1  UNL1       -0.0511
     10 C          -2.6007    1.4114    0.4555 C.ar    1  UNL1        0.0024
     11 C          -1.2701    1.0402    0.6984 C.ar    1  UNL1       -0.0277
     12 C          -0.8930   -0.2630    0.4134 C.ar    1  UNL1        0.0765
     13 N           0.4593   -0.6657    0.6498 N.am    1  UNL1       -0.2785
     14 C           1.3627   -0.4629   -0.4199 C.2     1  UNL1        0.2509
     15 O           1.0705    0.0316   -1.5261 O.2     1  UNL1       -0.2698
     16 C           2.8211   -0.8567   -0.2775 C.ar    1  UNL1        0.0700
     17 C           3.1078   -2.1683   -0.5755 C.ar    1  UNL1       -0.0095
     18 S           4.9448   -2.1656   -0.2708 S.2     1  UNL1       -0.0928
     19 C           5.0863   -0.4697    0.1993 C.ar    1  UNL1        0.0564
     20 C           6.1411    0.3155    0.5812 C.ar    1  UNL1        0.0451
     21 N           5.9438    1.6067    0.8891 N.ar    1  UNL1       -0.2426
     22 C           4.6957    2.0839    0.8082 C.ar    1  UNL1        0.1166
     23 N           3.6795    1.3231    0.4388 N.ar    1  UNL1       -0.2341
     24 C           3.7834   -0.0145    0.1035 C.ar    1  UNL1        0.0933
     25 H          -1.5945   -4.4617   -0.7798 H       1  UNL1        0.0660
     26 H          -2.4464   -3.3179   -1.9267 H       1  UNL1        0.0660
     27 H          -3.0196   -3.5908   -0.1889 H       1  UNL1        0.0660
     28 H          -3.7733   -1.4935   -0.7133 H       1  UNL1        0.0676
     29 H          -6.1689    2.4567   -0.1864 H       1  UNL1        0.0830
     30 H          -4.5792    4.1129    0.7231 H       1  UNL1        0.0633
     31 H          -2.2170    3.4066    1.1433 H       1  UNL1        0.0625
     32 H          -0.5795    1.7715    1.0983 H       1  UNL1        0.0644
     33 H           0.7743   -1.0769    1.5314 H       1  UNL1        0.1552
     34 H           2.5893   -2.9812   -0.8765 H       1  UNL1        0.0702
     35 H           7.1201   -0.1469    0.6210 H       1  UNL1        0.0842
     36 H           4.5292    3.1529    1.0636 H       1  UNL1        0.1047
@<TRIPOS>BOND
     1     1     2    1
     2     2     3    1
     3     3     4   ar
     4     4     5   ar
     5     5     6   ar
     6     6     7   ar
     7     7     8   ar
     8     8     9   ar
     9     9    10   ar
    10    10    11   ar
    11    11    12   ar
    12    12    13    1
    13    13    14   am
    14    14    15    2
    15    14    16    1
    16    16    17   ar
    17    17    18   ar
    18    18    19   ar
    19    19    20   ar
    20    20    21   ar
    21    21    22   ar
    22    22    23   ar
    23    23    24   ar
    24    12     3   ar
    25    24    16   ar
    26    10     5   ar
    27    24    19   ar
    28     1    25    1
    29     1    26    1
    30     1    27    1
    31     4    28    1
    32     7    29    1
    33     8    30    1
    34     9    31    1
    35    11    32    1
    36    13    33    1
    37    17    34    1
    38    20    35    1
    39    22    36    1
