@<TRIPOS>MOLECULE
*****
 69 74 0 0 0
SMALL
GASTEIGER

@<TRIPOS>ATOM
      1 C          -6.1812    3.1024    0.1341 C.3     1  UNL1       -0.0380
      2 C          -6.7132    1.7161   -0.0327 C.ar    1  UNL1       -0.0279
      3 C          -7.8845    1.5134   -0.7448 C.ar    1  UNL1       -0.0557
      4 C          -8.4192    0.2528   -0.9276 C.ar    1  UNL1       -0.0433
      5 C          -7.7492   -0.8171   -0.3758 C.ar    1  UNL1        0.0279
      6 N          -6.6245   -0.5966    0.3048 N.ar    1  UNL1       -0.2583
      7 C          -6.0754    0.6152    0.5025 C.ar    1  UNL1        0.0581
      8 C          -4.8169    0.7735    1.2714 C.3     1  UNL1        0.0415
      9 N          -3.6830    1.0121    0.3649 N.3     1  UNL1       -0.2965
     10 C          -2.5044    1.1609    1.1898 C.3     1  UNL1        0.0017
     11 C          -1.8058   -0.1633    1.3755 C.3     1  UNL1       -0.0095
     12 C          -1.1837   -0.5808    0.0871 C.3     1  UNL1        0.1254
     13 C          -2.1598   -0.3356   -1.0400 C.3     1  UNL1       -0.0095
     14 C          -3.5518   -0.0450   -0.5795 C.3     1  UNL1        0.0017
     15 C           0.0467    0.2110   -0.2685 C.2     1  UNL1        0.2517
     16 O           0.0110    1.3811   -0.6854 O.2     1  UNL1       -0.2724
     17 N           1.1864   -0.6168   -0.0402 N.am    1  UNL1       -0.1920
     18 C           2.5570   -0.2104   -0.0202 C.ar    1  UNL1        0.0455
     19 C           3.5761   -1.1151    0.1739 C.ar    1  UNL1       -0.0392
     20 C           4.9208   -0.7330    0.1877 C.ar    1  UNL1       -0.0523
     21 C           5.2872    0.5794    0.0058 C.ar    1  UNL1       -0.0178
     22 C           6.6969    0.9887    0.0046 C.ar    1  UNL1       -0.0178
     23 C           7.6936    0.1617   -0.4568 C.ar    1  UNL1       -0.0533
     24 C           9.0056    0.5769   -0.4442 C.ar    1  UNL1       -0.0472
     25 C           9.3721    1.8197    0.0237 C.ar    1  UNL1        0.0589
     26 C          10.7763    2.2382    0.0263 C.2     1  UNL1        0.3368
     27 O          11.6241    1.4417   -0.4078 O.2     1  UNL1       -0.2451
     28 O          11.1712    3.4803    0.4942 O.3     1  UNL1       -0.4771
     29 C           8.3683    2.6616    0.4924 C.ar    1  UNL1       -0.0472
     30 C           7.0586    2.2322    0.4737 C.ar    1  UNL1       -0.0533
     31 C           4.2701    1.4808   -0.1871 C.ar    1  UNL1       -0.0523
     32 C           2.9249    1.1087   -0.2024 C.ar    1  UNL1       -0.0392
     33 C           0.6886   -1.9164    0.1591 C.2     1  UNL1        0.3230
     34 O           1.3215   -2.9819    0.3954 O.2     1  UNL1       -0.2511
     35 N          -0.7526   -1.9396    0.0629 N.am    1  UNL1       -0.2083
     36 C          -1.5808   -3.0813   -0.0310 C.ar    1  UNL1        0.2263
     37 N          -1.9255   -3.6297   -1.2180 N.ar    1  UNL1       -0.2224
     38 C          -2.7112   -4.7180   -1.3318 C.ar    1  UNL1        0.0326
     39 C          -3.1947   -5.3115   -0.1766 C.ar    1  UNL1       -0.0253
     40 C          -2.8366   -4.7436    1.0258 C.ar    1  UNL1        0.0326
     41 N          -2.0506   -3.6576    1.0892 N.ar    1  UNL1       -0.2224
     42 H          -5.6947    3.4537   -0.7904 H       1  UNL1        0.0278
     43 H          -5.5587    3.1972    1.0382 H       1  UNL1        0.0278
     44 H          -7.0641    3.7861    0.3073 H       1  UNL1        0.0278
     45 H          -8.3780    2.3977   -1.1642 H       1  UNL1        0.0621
     46 H          -9.3467    0.1216   -1.4957 H       1  UNL1        0.0633
     47 H          -8.1738   -1.8024   -0.5217 H       1  UNL1        0.0829
     48 H          -4.8713    1.5387    2.0561 H       1  UNL1        0.0491
     49 H          -4.5788   -0.1934    1.7821 H       1  UNL1        0.0491
     50 H          -1.7701    1.8553    0.7102 H       1  UNL1        0.0427
     51 H          -2.7985    1.6115    2.1691 H       1  UNL1        0.0427
     52 H          -1.0728   -0.1008    2.2173 H       1  UNL1        0.0303
     53 H          -2.5176   -0.9702    1.6651 H       1  UNL1        0.0303
     54 H          -1.8477    0.4680   -1.7124 H       1  UNL1        0.0303
     55 H          -2.2301   -1.2584   -1.6879 H       1  UNL1        0.0303
     56 H          -4.0531   -0.9505   -0.1393 H       1  UNL1        0.0427
     57 H          -4.1440    0.1601   -1.5200 H       1  UNL1        0.0427
     58 H           3.3818   -2.1710    0.3253 H       1  UNL1        0.0636
     59 H           5.6868   -1.4617    0.3418 H       1  UNL1        0.0624
     60 H           7.4224   -0.8182   -0.8276 H       1  UNL1        0.0624
     61 H           9.7968   -0.0678   -0.8064 H       1  UNL1        0.0626
     62 H          12.0629    3.5396    0.9859 H       1  UNL1        0.2954
     63 H           8.6523    3.6298    0.8576 H       1  UNL1        0.0626
     64 H           6.2871    2.8889    0.8389 H       1  UNL1        0.0624
     65 H           4.5215    2.5285   -0.3338 H       1  UNL1        0.0624
     66 H           2.1665    1.8579   -0.3556 H       1  UNL1        0.0636
     67 H          -2.9784   -5.1454   -2.2894 H       1  UNL1        0.0831
     68 H          -3.8236   -6.1841   -0.2795 H       1  UNL1        0.0648
     69 H          -3.2281   -5.2256    1.9262 H       1  UNL1        0.0831
@<TRIPOS>BOND
     1     1     2    1
     2     2     3   ar
     3     3     4   ar
     4     4     5   ar
     5     5     6   ar
     6     6     7   ar
     7     7     8    1
     8     8     9    1
     9     9    10    1
    10    10    11    1
    11    11    12    1
    12    12    13    1
    13    13    14    1
    14    12    15    1
    15    15    16    2
    16    15    17   am
    17    17    18    1
    18    18    19   ar
    19    19    20   ar
    20    20    21   ar
    21    21    22    1
    22    22    23   ar
    23    23    24   ar
    24    24    25   ar
    25    25    26    1
    26    26    27    2
    27    26    28    1
    28    25    29   ar
    29    29    30   ar
    30    21    31   ar
    31    31    32   ar
    32    17    33   am
    33    33    34    2
    34    33    35   am
    35    35    36    1
    36    36    37   ar
    37    37    38   ar
    38    38    39   ar
    39    39    40   ar
    40    40    41   ar
    41     7     2   ar
    42    14     9    1
    43    32    18   ar
    44    41    36   ar
    45    35    12    1
    46    30    22   ar
    47     1    42    1
    48     1    43    1
    49     1    44    1
    50     3    45    1
    51     4    46    1
    52     5    47    1
    53     8    48    1
    54     8    49    1
    55    10    50    1
    56    10    51    1
    57    11    52    1
    58    11    53    1
    59    13    54    1
    60    13    55    1
    61    14    56    1
    62    14    57    1
    63    19    58    1
    64    20    59    1
    65    23    60    1
    66    24    61    1
    67    28    62    1
    68    29    63    1
    69    30    64    1
    70    31    65    1
    71    32    66    1
    72    38    67    1
    73    39    68    1
    74    40    69    1
