@<TRIPOS>MOLECULE
*****
 76 80 0 0 0
SMALL
GASTEIGER

@<TRIPOS>ATOM
      1 C          -2.8786    2.6242   -5.1095 C.3     1  UNL1       -0.0397
      2 C          -3.3536    1.7855   -3.9644 C.ar    1  UNL1       -0.0503
      3 C          -3.4284    2.2824   -2.6807 C.ar    1  UNL1       -0.0568
      4 C          -3.8685    1.4909   -1.6382 C.ar    1  UNL1       -0.0359
      5 C          -4.2517    0.1792   -1.8211 C.ar    1  UNL1        0.0674
      6 N          -4.7000   -0.6109   -0.7241 N.ar    1  UNL1       -0.2181
      7 N          -5.8225   -0.5587   -0.0331 N.ar    1  UNL1       -0.1691
      8 C          -5.8775   -1.4791    0.9357 C.ar    1  UNL1        0.0706
      9 C          -7.0020   -1.7117    1.9163 C.3     1  UNL1        0.0063
     10 C          -6.8311   -0.9132    3.1687 C.3     1  UNL1       -0.0546
     11 C          -7.1354   -3.1871    2.1293 C.3     1  UNL1       -0.0546
     12 C          -8.2933   -1.2452    1.2287 C.3     1  UNL1       -0.0546
     13 C          -4.6933   -2.1822    0.8629 C.ar    1  UNL1        0.0021
     14 C          -3.9813   -1.6213   -0.1766 C.ar    1  UNL1        0.1299
     15 N          -2.6794   -2.0247   -0.6259 N.am    1  UNL1       -0.2538
     16 C          -1.4975   -1.4354   -0.0876 C.2     1  UNL1        0.3092
     17 O          -1.6692   -0.5504    0.7949 O.2     1  UNL1       -0.2521
     18 N          -0.1841   -1.7893   -0.4881 N.am    1  UNL1       -0.2686
     19 C           0.9709   -1.1558    0.0908 C.ar    1  UNL1        0.0427
     20 C           1.5095   -0.0171   -0.4611 C.ar    1  UNL1       -0.0364
     21 C           2.6242    0.5772    0.1154 C.ar    1  UNL1       -0.0176
     22 C           3.2373    0.0738    1.2410 C.ar    1  UNL1        0.1283
     23 O           4.3308    0.6133    1.8527 O.3     1  UNL1       -0.4901
     24 C           5.1319    1.6869    1.6103 C.3     1  UNL1        0.1023
     25 C           5.8996    1.6400    0.3321 C.3     1  UNL1        0.0333
     26 N           6.7305    2.8162    0.1379 N.3     1  UNL1       -0.2948
     27 C           7.8232    2.9144    1.0560 C.3     1  UNL1        0.0225
     28 C           9.1119    2.6088    0.3085 C.3     1  UNL1        0.0604
     29 O           9.0048    1.4734   -0.4800 O.3     1  UNL1       -0.3772
     30 C           8.0697    1.6799   -1.5051 C.3     1  UNL1        0.0604
     31 C           7.2084    2.8753   -1.2496 C.3     1  UNL1        0.0225
     32 C           2.6850   -1.0924    1.8059 C.ar    1  UNL1        0.0256
     33 C           3.2846   -1.6299    2.9506 C.ar    1  UNL1       -0.0505
     34 C           2.7248   -2.7656    3.4774 C.ar    1  UNL1       -0.0611
     35 C           1.6226   -3.3494    2.9046 C.ar    1  UNL1       -0.0611
     36 C           1.0485   -2.8177    1.7918 C.ar    1  UNL1       -0.0521
     37 C           1.5870   -1.6666    1.2276 C.ar    1  UNL1        0.0069
     38 C          -4.1768   -0.3177   -3.1060 C.ar    1  UNL1       -0.0359
     39 C          -3.7329    0.4766   -4.1648 C.ar    1  UNL1       -0.0568
     40 H          -2.5034    2.0174   -5.9380 H       1  UNL1        0.0278
     41 H          -2.1194    3.3252   -4.6994 H       1  UNL1        0.0278
     42 H          -3.7163    3.2462   -5.4881 H       1  UNL1        0.0278
     43 H          -3.1300    3.3217   -2.5146 H       1  UNL1        0.0621
     44 H          -3.9279    1.8867   -0.6137 H       1  UNL1        0.0639
     45 H          -7.8397   -0.6855    3.5714 H       1  UNL1        0.0239
     46 H          -6.1913   -1.4307    3.9119 H       1  UNL1        0.0239
     47 H          -6.3481    0.0439    2.9031 H       1  UNL1        0.0239
     48 H          -8.2003   -3.4118    2.3975 H       1  UNL1        0.0239
     49 H          -6.9876   -3.6756    1.1307 H       1  UNL1        0.0239
     50 H          -6.4165   -3.5665    2.8679 H       1  UNL1        0.0239
     51 H          -9.1060   -1.0861    1.9443 H       1  UNL1        0.0239
     52 H          -8.0749   -0.2667    0.7486 H       1  UNL1        0.0239
     53 H          -8.5624   -1.9336    0.4026 H       1  UNL1        0.0239
     54 H          -4.4017   -3.0013    1.4981 H       1  UNL1        0.0671
     55 H          -2.5825   -2.7650   -1.3632 H       1  UNL1        0.1578
     56 H          -0.0776   -2.5370   -1.2287 H       1  UNL1        0.1564
     57 H           1.0410    0.3887   -1.3421 H       1  UNL1        0.0637
     58 H           2.9676    1.4716   -0.3719 H       1  UNL1        0.0655
     59 H           5.8003    1.8420    2.4988 H       1  UNL1        0.0709
     60 H           4.5193    2.6470    1.6000 H       1  UNL1        0.0709
     61 H           6.5737    0.7545    0.2770 H       1  UNL1        0.0460
     62 H           5.2342    1.5668   -0.5215 H       1  UNL1        0.0460
     63 H           7.7073    2.1437    1.8373 H       1  UNL1        0.0449
     64 H           7.9519    3.9322    1.4801 H       1  UNL1        0.0449
     65 H           9.9569    2.4654    1.0103 H       1  UNL1        0.0572
     66 H           9.3567    3.4990   -0.3311 H       1  UNL1        0.0572
     67 H           7.4130    0.7870   -1.6440 H       1  UNL1        0.0572
     68 H           8.6128    1.7868   -2.4814 H       1  UNL1        0.0572
     69 H           6.2985    2.8075   -1.8938 H       1  UNL1        0.0449
     70 H           7.6856    3.8457   -1.4577 H       1  UNL1        0.0449
     71 H           4.1372   -1.1431    3.3585 H       1  UNL1        0.0625
     72 H           3.1802   -3.1922    4.3642 H       1  UNL1        0.0618
     73 H           1.1747   -4.2508    3.3194 H       1  UNL1        0.0618
     74 H           0.1768   -3.2469    1.3067 H       1  UNL1        0.0624
     75 H          -4.4742   -1.3423   -3.2616 H       1  UNL1        0.0639
     76 H          -3.6759    0.0791   -5.1765 H       1  UNL1        0.0621
@<TRIPOS>BOND
     1     1     2    1
     2     2     3   ar
     3     3     4   ar
     4     4     5   ar
     5     5     6    1
     6     6     7   ar
     7     7     8   ar
     8     8     9    1
     9     9    10    1
    10     9    11    1
    11     9    12    1
    12     8    13   ar
    13    13    14   ar
    14    14    15    1
    15    15    16   am
    16    16    17    2
    17    16    18   am
    18    18    19    1
    19    19    20   ar
    20    20    21   ar
    21    21    22   ar
    22    22    23    1
    23    23    24    1
    24    24    25    1
    25    25    26    1
    26    26    27    1
    27    27    28    1
    28    28    29    1
    29    29    30    1
    30    30    31    1
    31    22    32   ar
    32    32    33   ar
    33    33    34   ar
    34    34    35   ar
    35    35    36   ar
    36    36    37   ar
    37     5    38   ar
    38    38    39   ar
    39    39     2   ar
    40    14     6   ar
    41    37    19   ar
    42    31    26    1
    43    37    32   ar
    44     1    40    1
    45     1    41    1
    46     1    42    1
    47     3    43    1
    48     4    44    1
    49    10    45    1
    50    10    46    1
    51    10    47    1
    52    11    48    1
    53    11    49    1
    54    11    50    1
    55    12    51    1
    56    12    52    1
    57    12    53    1
    58    13    54    1
    59    15    55    1
    60    18    56    1
    61    20    57    1
    62    21    58    1
    63    24    59    1
    64    24    60    1
    65    25    61    1
    66    25    62    1
    67    27    63    1
    68    27    64    1
    69    28    65    1
    70    28    66    1
    71    30    67    1
    72    30    68    1
    73    31    69    1
    74    31    70    1
    75    33    71    1
    76    34    72    1
    77    35    73    1
    78    36    74    1
    79    38    75    1
    80    39    76    1
