@<TRIPOS>MOLECULE
*****
 73 77 0 0 0
SMALL
GASTEIGER

@<TRIPOS>ATOM
      1 C          -7.5037   -4.3674    0.8095 C.3     1  UNL1       -0.0652
      2 C          -6.0162   -4.2940    1.0888 C.3     1  UNL1       -0.0545
      3 C          -5.5327   -2.8666    0.9304 C.3     1  UNL1       -0.0376
      4 C          -5.7696   -2.3392   -0.4511 C.3     1  UNL1        0.0118
      5 N          -5.2828   -0.9820   -0.5257 N.pl3   1  UNL1       -0.3134
      6 C          -3.9088   -0.6912   -0.3587 C.ar    1  UNL1        0.2169
      7 N          -3.0115   -1.6649   -0.1706 N.ar    1  UNL1       -0.2222
      8 C          -1.6948   -1.4253   -0.0130 C.ar    1  UNL1        0.0436
      9 C          -1.1935   -0.1138   -0.0396 C.ar    1  UNL1        0.0584
     10 C           0.2133    0.1403    0.1527 C.ar    1  UNL1        0.0807
     11 C           1.1190   -0.9056    0.3075 C.ar    1  UNL1        0.0046
     12 C           2.4825   -0.6928    0.4728 C.ar    1  UNL1        0.1267
     13 N           3.3983   -1.7995    0.6331 N.pl3   1  UNL1       -0.2993
     14 C           4.5896   -1.7620   -0.1302 C.ar    1  UNL1        0.0329
     15 C           4.4607   -1.9367   -1.4924 C.ar    1  UNL1       -0.0405
     16 C           5.6018   -1.8743   -2.2526 C.ar    1  UNL1       -0.0594
     17 C           6.8413   -1.6423   -1.6684 C.ar    1  UNL1       -0.0539
     18 C           6.9758   -1.4657   -0.3007 C.ar    1  UNL1       -0.0161
     19 C           8.2705   -1.2109    0.3208 C.ar    1  UNL1       -0.0178
     20 C           8.4254   -0.4355    1.4683 C.ar    1  UNL1       -0.0540
     21 C           9.6484   -0.1893    2.0563 C.ar    1  UNL1       -0.0612
     22 C          10.7896   -0.7383    1.4837 C.ar    1  UNL1       -0.0617
     23 C          10.6612   -1.5047    0.3560 C.ar    1  UNL1       -0.0612
     24 C           9.4159   -1.7434   -0.2269 C.ar    1  UNL1       -0.0540
     25 C           5.8205   -1.5324    0.4467 C.ar    1  UNL1       -0.0328
     26 N           2.9655    0.5662    0.4895 N.ar    1  UNL1       -0.2206
     27 C           2.0962    1.5810    0.3416 C.ar    1  UNL1        0.1187
     28 N           0.7819    1.3429    0.1808 N.ar    1  UNL1       -0.2351
     29 C          -2.1095    0.8800   -0.2323 C.ar    1  UNL1        0.1333
     30 N          -1.7479    2.2445   -0.2907 N.pl3   1  UNL1       -0.3256
     31 C          -2.7151    3.3073   -0.5061 C.3     1  UNL1        0.0221
     32 C          -3.4089    3.2225   -1.8437 C.3     1  UNL1       -0.0322
     33 C          -4.5920    4.1836   -1.8875 C.3     1  UNL1       -0.0252
     34 C          -4.4385    5.2771   -0.8751 C.3     1  UNL1        0.0554
     35 O          -3.3707    6.1373   -1.1659 O.3     1  UNL1       -0.3918
     36 C          -4.3704    4.7628    0.5438 C.3     1  UNL1       -0.0252
     37 C          -3.7434    3.3651    0.6008 C.3     1  UNL1       -0.0322
     38 N          -3.4444    0.5558   -0.3859 N.ar    1  UNL1       -0.1991
     39 H          -7.9576   -5.2349    1.3246 H       1  UNL1        0.0230
     40 H          -7.6206   -4.5288   -0.2968 H       1  UNL1        0.0230
     41 H          -8.0177   -3.4600    1.1646 H       1  UNL1        0.0230
     42 H          -5.8248   -4.5873    2.1406 H       1  UNL1        0.0263
     43 H          -5.4174   -4.9501    0.4472 H       1  UNL1        0.0263
     44 H          -4.4848   -2.8450    1.2348 H       1  UNL1        0.0280
     45 H          -6.1063   -2.2523    1.6844 H       1  UNL1        0.0280
     46 H          -6.7960   -2.4474   -0.7958 H       1  UNL1        0.0462
     47 H          -5.1034   -2.9255   -1.1493 H       1  UNL1        0.0462
     48 H          -5.9775   -0.2253   -0.7034 H       1  UNL1        0.1489
     49 H          -1.0346   -2.2415    0.1339 H       1  UNL1        0.0838
     50 H           0.7854   -1.9287    0.3032 H       1  UNL1        0.0673
     51 H           3.1702   -2.5577    1.2785 H       1  UNL1        0.1536
     52 H           3.4831   -2.1170   -1.9583 H       1  UNL1        0.0636
     53 H           5.5293   -2.0079   -3.3248 H       1  UNL1        0.0618
     54 H           7.7445   -1.5912   -2.2620 H       1  UNL1        0.0624
     55 H           7.5179   -0.0237    1.8885 H       1  UNL1        0.0624
     56 H           9.7666    0.4124    2.9470 H       1  UNL1        0.0618
     57 H          11.7486   -0.5365    1.9602 H       1  UNL1        0.0618
     58 H          11.5516   -1.9284   -0.0787 H       1  UNL1        0.0618
     59 H           9.3826   -2.3568   -1.1197 H       1  UNL1        0.0624
     60 H           5.9282   -1.3905    1.5279 H       1  UNL1        0.0642
     61 H           2.4776    2.5982    0.3562 H       1  UNL1        0.1048
     62 H          -0.7751    2.5441   -0.1864 H       1  UNL1        0.1478
     63 H          -2.1497    4.2840   -0.4239 H       1  UNL1        0.0498
     64 H          -2.7176    3.5656   -2.6719 H       1  UNL1        0.0284
     65 H          -3.7377    2.1855   -2.0016 H       1  UNL1        0.0284
     66 H          -5.5051    3.6080   -1.6266 H       1  UNL1        0.0291
     67 H          -4.6810    4.6512   -2.8866 H       1  UNL1        0.0291
     68 H          -5.3596    5.9228   -0.9665 H       1  UNL1        0.0593
     69 H          -3.5591    6.9914   -0.7013 H       1  UNL1        0.2098
     70 H          -5.3909    4.7207    1.0044 H       1  UNL1        0.0291
     71 H          -3.7543    5.4145    1.1971 H       1  UNL1        0.0291
     72 H          -4.5289    2.5920    0.5012 H       1  UNL1        0.0284
     73 H          -3.2888    3.2571    1.5863 H       1  UNL1        0.0284
@<TRIPOS>BOND
     1     1     2    1
     2     2     3    1
     3     3     4    1
     4     4     5    1
     5     5     6    1
     6     6     7   ar
     7     7     8   ar
     8     8     9   ar
     9     9    10    1
    10    10    11   ar
    11    11    12   ar
    12    12    13    1
    13    13    14    1
    14    14    15   ar
    15    15    16   ar
    16    16    17   ar
    17    17    18   ar
    18    18    19    1
    19    19    20   ar
    20    20    21   ar
    21    21    22   ar
    22    22    23   ar
    23    23    24   ar
    24    18    25   ar
    25    12    26   ar
    26    26    27   ar
    27    27    28   ar
    28     9    29   ar
    29    29    30    1
    30    30    31    1
    31    31    32    1
    32    32    33    1
    33    33    34    1
    34    34    35    1
    35    34    36    1
    36    36    37    1
    37    29    38   ar
    38    38     6   ar
    39    28    10   ar
    40    37    31    1
    41    25    14   ar
    42    24    19   ar
    43     1    39    1
    44     1    40    1
    45     1    41    1
    46     2    42    1
    47     2    43    1
    48     3    44    1
    49     3    45    1
    50     4    46    1
    51     4    47    1
    52     5    48    1
    53     8    49    1
    54    11    50    1
    55    13    51    1
    56    15    52    1
    57    16    53    1
    58    17    54    1
    59    20    55    1
    60    21    56    1
    61    22    57    1
    62    23    58    1
    63    24    59    1
    64    25    60    1
    65    27    61    1
    66    30    62    1
    67    31    63    1
    68    32    64    1
    69    32    65    1
    70    33    66    1
    71    33    67    1
    72    34    68    1
    73    35    69    1
    74    36    70    1
    75    36    71    1
    76    37    72    1
    77    37    73    1
