@<TRIPOS>MOLECULE
*****
 53 56 0 0 0
SMALL
GASTEIGER

@<TRIPOS>ATOM
      1 C          -5.9314    1.7370   -1.4990 C.3     1  UNL1       -0.0288
      2 C          -4.4987    1.2932   -1.4513 C.3     1  UNL1        0.1831
      3 C          -3.6465    2.0190   -2.4751 C.3     1  UNL1       -0.0288
      4 C          -3.9671    1.5584   -0.0836 C.2     1  UNL1        0.3067
      5 N          -4.4432    2.7569    0.5995 N.pl3   1  UNL1       -0.2488
      6 N          -3.1608    0.7729    0.4489 N.2     1  UNL1       -0.0727
      7 C          -2.5217   -0.4352    0.1133 C.3     1  UNL1        0.1959
      8 C          -3.1490   -1.6003    0.9076 C.3     1  UNL1       -0.0112
      9 C          -1.1046   -0.3840    0.5387 C.ar    1  UNL1        0.0420
     10 C          -0.0093   -0.5346   -0.2639 C.ar    1  UNL1       -0.0301
     11 C           1.3050   -0.5040    0.2181 C.ar    1  UNL1        0.0330
     12 N           2.4255   -0.6681   -0.6385 N.pl3   1  UNL1       -0.2977
     13 C           3.6096   -1.2430   -0.1659 C.ar    1  UNL1        0.1490
     14 N           3.7165   -2.5917   -0.2204 N.ar    1  UNL1       -0.2380
     15 C           4.7796   -3.2438    0.2190 C.ar    1  UNL1        0.0304
     16 C           5.8734   -2.5802    0.7746 C.ar    1  UNL1       -0.0342
     17 C           5.7925   -1.2037    0.8434 C.ar    1  UNL1        0.0064
     18 C           6.8655   -0.5508    1.3948 C.ar    1  UNL1       -0.0335
     19 C           6.7814    0.8395    1.4698 C.ar    1  UNL1        0.0704
     20 C           7.8979    1.5098    2.0709 C.1     1  UNL1        0.1007
     21 N           8.7812    2.0448    2.5296 N.1     1  UNL1       -0.1908
     22 C           5.6537    1.4480    0.9949 C.ar    1  UNL1        0.0458
     23 N           4.6065    0.7821    0.4538 N.ar    1  UNL1       -0.2503
     24 C           4.6593   -0.5512    0.3705 C.ar    1  UNL1        0.1109
     25 C           1.5216   -0.3133    1.5604 C.ar    1  UNL1       -0.0378
     26 C           0.4316   -0.1577    2.3890 C.ar    1  UNL1       -0.0243
     27 C          -0.8589   -0.1914    1.8951 C.ar    1  UNL1        0.1311
     28 F          -1.8680   -0.0234    2.7853 F       1  UNL1       -0.2050
     29 C          -2.6532   -0.8424   -1.3404 C.3     1  UNL1        0.1183
     30 S          -4.3600   -0.4470   -1.7598 S.O2    1  UNL1       -0.0101
     31 O          -5.2689   -1.1730   -0.7766 O.2     1  UNL1       -0.1731
     32 O          -4.7085   -0.8589   -3.1330 O.2     1  UNL1       -0.1731
     33 H          -6.5116    1.2872   -2.3397 H       1  UNL1        0.0256
     34 H          -5.9481    2.8501   -1.5356 H       1  UNL1        0.0256
     35 H          -6.4162    1.4386   -0.5617 H       1  UNL1        0.0256
     36 H          -2.8270    1.3618   -2.7696 H       1  UNL1        0.0256
     37 H          -4.2799    2.2913   -3.3213 H       1  UNL1        0.0256
     38 H          -3.2818    2.9812   -2.0167 H       1  UNL1        0.0256
     39 H          -4.2744    2.8044    1.6208 H       1  UNL1        0.2881
     40 H          -4.9274    3.5173    0.0927 H       1  UNL1        0.2881
     41 H          -2.4534   -1.9590    1.7030 H       1  UNL1        0.0279
     42 H          -4.0538   -1.2510    1.4388 H       1  UNL1        0.0279
     43 H          -3.3521   -2.4745    0.2628 H       1  UNL1        0.0279
     44 H          -0.1716   -0.6893   -1.3170 H       1  UNL1        0.0641
     45 H           2.3661   -0.3564   -1.6269 H       1  UNL1        0.1536
     46 H           4.8548   -4.3187    0.1739 H       1  UNL1        0.0830
     47 H           6.7514   -3.0905    1.1450 H       1  UNL1        0.0639
     48 H           7.7323   -1.0918    1.7509 H       1  UNL1        0.0637
     49 H           5.6333    2.5437    1.0734 H       1  UNL1        0.0843
     50 H           2.5252   -0.2783    1.9711 H       1  UNL1        0.0637
     51 H           0.6057   -0.0058    3.4595 H       1  UNL1        0.0647
     52 H          -2.5142   -1.9142   -1.4445 H       1  UNL1        0.0550
     53 H          -2.0081   -0.3104   -2.0297 H       1  UNL1        0.0550
@<TRIPOS>BOND
     1     1     2    1
     2     2     3    1
     3     2     4    1
     4     4     5    1
     5     4     6    2
     6     6     7    1
     7     7     8    1
     8     7     9    1
     9     9    10   ar
    10    10    11   ar
    11    11    12    1
    12    12    13    1
    13    13    14   ar
    14    14    15   ar
    15    15    16   ar
    16    16    17   ar
    17    17    18   ar
    18    18    19   ar
    19    19    20    1
    20    20    21    3
    21    19    22   ar
    22    22    23   ar
    23    23    24   ar
    24    11    25   ar
    25    25    26   ar
    26    26    27   ar
    27    27    28    1
    28     7    29    1
    29    29    30    1
    30    30    31    2
    31    30    32    2
    32    30     2    1
    33    27     9   ar
    34    24    13   ar
    35    24    17   ar
    36     1    33    1
    37     1    34    1
    38     1    35    1
    39     3    36    1
    40     3    37    1
    41     3    38    1
    42     5    39    1
    43     5    40    1
    44     8    41    1
    45     8    42    1
    46     8    43    1
    47    10    44    1
    48    12    45    1
    49    15    46    1
    50    16    47    1
    51    18    48    1
    52    22    49    1
    53    25    50    1
    54    26    51    1
    55    29    52    1
    56    29    53    1
