
     RDKit          3D

 53 56  0  0  0  0  0  0  0  0999 V2000
   -5.9314    1.7370   -1.4990 C   0  0  0  0  0  0  0  0  0  0  0  0
   -4.4987    1.2932   -1.4513 C   0  0  0  0  0  0  0  0  0  0  0  0
   -3.6465    2.0190   -2.4751 C   0  0  0  0  0  0  0  0  0  0  0  0
   -3.9671    1.5584   -0.0836 C   0  0  0  0  0  0  0  0  0  0  0  0
   -4.4432    2.7569    0.5995 N   0  0  0  0  0  0  0  0  0  0  0  0
   -3.1608    0.7729    0.4489 N   0  0  0  0  0  0  0  0  0  0  0  0
   -2.5217   -0.4352    0.1133 C   0  0  2  0  0  0  0  0  0  0  0  0
   -3.1490   -1.6003    0.9076 C   0  0  0  0  0  0  0  0  0  0  0  0
   -1.1046   -0.3840    0.5387 C   0  0  0  0  0  0  0  0  0  0  0  0
   -0.0093   -0.5346   -0.2639 C   0  0  0  0  0  0  0  0  0  0  0  0
    1.3050   -0.5040    0.2181 C   0  0  0  0  0  0  0  0  0  0  0  0
    2.4255   -0.6681   -0.6385 N   0  0  0  0  0  0  0  0  0  0  0  0
    3.6096   -1.2430   -0.1659 C   0  0  0  0  0  0  0  0  0  0  0  0
    3.7165   -2.5917   -0.2204 N   0  0  0  0  0  0  0  0  0  0  0  0
    4.7796   -3.2438    0.2190 C   0  0  0  0  0  0  0  0  0  0  0  0
    5.8734   -2.5802    0.7746 C   0  0  0  0  0  0  0  0  0  0  0  0
    5.7925   -1.2037    0.8434 C   0  0  0  0  0  0  0  0  0  0  0  0
    6.8655   -0.5508    1.3948 C   0  0  0  0  0  0  0  0  0  0  0  0
    6.7814    0.8395    1.4698 C   0  0  0  0  0  0  0  0  0  0  0  0
    7.8979    1.5098    2.0709 C   0  0  0  0  0  0  0  0  0  0  0  0
    8.7812    2.0448    2.5296 N   0  0  0  0  0  0  0  0  0  0  0  0
    5.6537    1.4480    0.9949 C   0  0  0  0  0  0  0  0  0  0  0  0
    4.6065    0.7821    0.4538 N   0  0  0  0  0  0  0  0  0  0  0  0
    4.6593   -0.5512    0.3705 C   0  0  0  0  0  0  0  0  0  0  0  0
    1.5216   -0.3133    1.5604 C   0  0  0  0  0  0  0  0  0  0  0  0
    0.4316   -0.1577    2.3890 C   0  0  0  0  0  0  0  0  0  0  0  0
   -0.8589   -0.1914    1.8951 C   0  0  0  0  0  0  0  0  0  0  0  0
   -1.8680   -0.0234    2.7853 F   0  0  0  0  0  0  0  0  0  0  0  0
   -2.6532   -0.8424   -1.3404 C   0  0  0  0  0  0  0  0  0  0  0  0
   -4.3600   -0.4470   -1.7598 S   0  0  0  0  0  6  0  0  0  0  0  0
   -5.2689   -1.1730   -0.7766 O   0  0  0  0  0  0  0  0  0  0  0  0
   -4.7085   -0.8589   -3.1330 O   0  0  0  0  0  0  0  0  0  0  0  0
   -6.5116    1.2872   -2.3397 H   0  0  0  0  0  0  0  0  0  0  0  0
   -5.9481    2.8501   -1.5356 H   0  0  0  0  0  0  0  0  0  0  0  0
   -6.4162    1.4386   -0.5617 H   0  0  0  0  0  0  0  0  0  0  0  0
   -2.8270    1.3618   -2.7696 H   0  0  0  0  0  0  0  0  0  0  0  0
   -4.2799    2.2913   -3.3213 H   0  0  0  0  0  0  0  0  0  0  0  0
   -3.2818    2.9812   -2.0167 H   0  0  0  0  0  0  0  0  0  0  0  0
   -4.2744    2.8044    1.6208 H   0  0  0  0  0  0  0  0  0  0  0  0
   -4.9274    3.5173    0.0927 H   0  0  0  0  0  0  0  0  0  0  0  0
   -2.4534   -1.9590    1.7030 H   0  0  0  0  0  0  0  0  0  0  0  0
   -4.0538   -1.2510    1.4388 H   0  0  0  0  0  0  0  0  0  0  0  0
   -3.3521   -2.4745    0.2628 H   0  0  0  0  0  0  0  0  0  0  0  0
   -0.1716   -0.6893   -1.3170 H   0  0  0  0  0  0  0  0  0  0  0  0
    2.3661   -0.3564   -1.6269 H   0  0  0  0  0  0  0  0  0  0  0  0
    4.8548   -4.3187    0.1739 H   0  0  0  0  0  0  0  0  0  0  0  0
    6.7514   -3.0905    1.1450 H   0  0  0  0  0  0  0  0  0  0  0  0
    7.7323   -1.0918    1.7509 H   0  0  0  0  0  0  0  0  0  0  0  0
    5.6333    2.5437    1.0734 H   0  0  0  0  0  0  0  0  0  0  0  0
    2.5252   -0.2783    1.9711 H   0  0  0  0  0  0  0  0  0  0  0  0
    0.6057   -0.0058    3.4595 H   0  0  0  0  0  0  0  0  0  0  0  0
   -2.5142   -1.9142   -1.4445 H   0  0  0  0  0  0  0  0  0  0  0  0
   -2.0081   -0.3104   -2.0297 H   0  0  0  0  0  0  0  0  0  0  0  0
  1  2  1  0
  2  3  1  0
  2  4  1  0
  4  5  1  0
  4  6  2  0
  6  7  1  0
  7  8  1  1
  7  9  1  0
  9 10  2  0
 10 11  1  0
 11 12  1  0
 12 13  1  0
 13 14  2  0
 14 15  1  0
 15 16  2  0
 16 17  1  0
 17 18  2  0
 18 19  1  0
 19 20  1  0
 20 21  3  0
 19 22  2  0
 22 23  1  0
 23 24  2  0
 11 25  2  0
 25 26  1  0
 26 27  2  0
 27 28  1  0
  7 29  1  0
 29 30  1  0
 30 31  2  0
 30 32  2  0
 30  2  1  0
 27  9  1  0
 24 13  1  0
 24 17  1  0
  1 33  1  0
  1 34  1  0
  1 35  1  0
  3 36  1  0
  3 37  1  0
  3 38  1  0
  5 39  1  0
  5 40  1  0
  8 41  1  0
  8 42  1  0
  8 43  1  0
 10 44  1  0
 12 45  1  0
 15 46  1  0
 16 47  1  0
 18 48  1  0
 22 49  1  0
 25 50  1  0
 26 51  1  0
 29 52  1  0
 29 53  1  0
M  END
$$$$
