@<TRIPOS>MOLECULE
*****
 46 49 0 0 0
SMALL
GASTEIGER

@<TRIPOS>ATOM
      1 C           0.4082    0.1958    0.1115 C.3     1  UNL1        0.0629
      2 C          -0.2435   -1.1624    0.3949 C.3     1  UNL1        0.0273
      3 C          -1.6679   -0.7333    0.0373 C.3     1  UNL1        0.2197
      4 O          -1.4095   -0.1773   -1.1995 O.3     1  UNL1       -0.2615
      5 N          -0.3689    0.6454   -1.0225 N.3     1  UNL1       -0.1904
      6 O          -2.0814    0.2930    0.8621 O.3     1  UNL1       -0.3368
      7 C          -3.1754    0.8929    0.2140 C.3     1  UNL1        0.1133
      8 C          -3.4945    2.1894    0.9097 C.3     1  UNL1        0.0730
      9 O          -2.3825    3.0182    0.8418 O.3     1  UNL1       -0.3924
     10 C          -4.3134   -0.1019    0.3687 C.3     1  UNL1        0.1119
     11 O          -5.4481    0.4936   -0.1977 O.3     1  UNL1       -0.3865
     12 C          -3.9801   -1.3840   -0.3210 C.3     1  UNL1        0.1144
     13 O          -4.9452   -2.3159    0.1273 O.3     1  UNL1       -0.3864
     14 C          -2.6154   -1.8708    0.0217 C.3     1  UNL1        0.1387
     15 O          -2.1707   -2.8900   -0.7809 O.3     1  UNL1       -0.3837
     16 C           1.8471    0.1110   -0.1238 C.ar    1  UNL1       -0.0275
     17 C           2.7169    0.6192    0.8447 C.ar    1  UNL1       -0.0493
     18 C           4.0845    0.5751    0.6935 C.ar    1  UNL1       -0.0176
     19 C           4.8704    1.1034    1.7059 C.ar    1  UNL1       -0.0540
     20 C           6.2395    1.0456    1.5273 C.ar    1  UNL1       -0.0612
     21 C           6.7759    0.4828    0.3850 C.ar    1  UNL1       -0.0612
     22 C           5.9617   -0.0372   -0.6096 C.ar    1  UNL1       -0.0540
     23 C           4.5819    0.0124   -0.4469 C.ar    1  UNL1       -0.0179
     24 C           3.7521   -0.5029   -1.4314 C.ar    1  UNL1       -0.0537
     25 C           2.3685   -0.4443   -1.2506 C.ar    1  UNL1       -0.0564
     26 H           0.1786    0.8016    1.0153 H       1  UNL1        0.0534
     27 H           0.0426   -1.8941   -0.3859 H       1  UNL1        0.0338
     28 H          -0.1295   -1.4936    1.4220 H       1  UNL1        0.0338
     29 H          -0.6730    1.6224   -0.8056 H       1  UNL1        0.1546
     30 H          -3.0040    0.9967   -0.8704 H       1  UNL1        0.0647
     31 H          -3.7203    1.9588    1.9607 H       1  UNL1        0.0584
     32 H          -4.3719    2.6504    0.3790 H       1  UNL1        0.0584
     33 H          -2.5685    3.7156    0.1603 H       1  UNL1        0.2095
     34 H          -4.4845   -0.2992    1.4467 H       1  UNL1        0.0647
     35 H          -6.2733    0.1567    0.2083 H       1  UNL1        0.2100
     36 H          -4.1354   -1.2864   -1.4093 H       1  UNL1        0.0648
     37 H          -4.7008   -3.2312   -0.0773 H       1  UNL1        0.2100
     38 H          -2.6672   -2.2579    1.0723 H       1  UNL1        0.0675
     39 H          -2.5817   -3.7379   -0.4221 H       1  UNL1        0.2101
     40 H           2.3008    1.0658    1.7507 H       1  UNL1        0.0627
     41 H           4.4155    1.5442    2.6022 H       1  UNL1        0.0624
     42 H           6.9097    1.4471    2.2933 H       1  UNL1        0.0618
     43 H           7.8589    0.4522    0.2737 H       1  UNL1        0.0618
     44 H           6.3609   -0.4797   -1.5069 H       1  UNL1        0.0624
     45 H           4.1906   -0.9417   -2.3232 H       1  UNL1        0.0624
     46 H           1.7421   -0.8476   -2.0223 H       1  UNL1        0.0621
@<TRIPOS>BOND
     1     1     2    1
     2     2     3    1
     3     3     4    1
     4     4     5    1
     5     3     6    1
     6     6     7    1
     7     7     8    1
     8     8     9    1
     9     7    10    1
    10    10    11    1
    11    10    12    1
    12    12    13    1
    13    12    14    1
    14    14    15    1
    15     1    16    1
    16    16    17   ar
    17    17    18   ar
    18    18    19   ar
    19    19    20   ar
    20    20    21   ar
    21    21    22   ar
    22    22    23   ar
    23    23    24   ar
    24    24    25   ar
    25     5     1    1
    26    25    16   ar
    27    14     3    1
    28    23    18   ar
    29     1    26    1
    30     2    27    1
    31     2    28    1
    32     5    29    1
    33     7    30    1
    34     8    31    1
    35     8    32    1
    36     9    33    1
    37    10    34    1
    38    11    35    1
    39    12    36    1
    40    13    37    1
    41    14    38    1
    42    15    39    1
    43    17    40    1
    44    19    41    1
    45    20    42    1
    46    21    43    1
    47    22    44    1
    48    24    45    1
    49    25    46    1
