
     RDKit          3D

 46 49  0  0  0  0  0  0  0  0999 V2000
    0.4082    0.1958    0.1115 C   0  0  2  0  0  0  0  0  0  0  0  0
   -0.2435   -1.1624    0.3949 C   0  0  0  0  0  0  0  0  0  0  0  0
   -1.6679   -0.7333    0.0373 C   0  0  2  0  0  0  0  0  0  0  0  0
   -1.4095   -0.1773   -1.1995 O   0  0  0  0  0  0  0  0  0  0  0  0
   -0.3689    0.6454   -1.0225 N   0  0  0  0  0  0  0  0  0  0  0  0
   -2.0814    0.2930    0.8621 O   0  0  0  0  0  0  0  0  0  0  0  0
   -3.1754    0.8929    0.2140 C   0  0  2  0  0  0  0  0  0  0  0  0
   -3.4945    2.1894    0.9097 C   0  0  0  0  0  0  0  0  0  0  0  0
   -2.3825    3.0182    0.8418 O   0  0  0  0  0  0  0  0  0  0  0  0
   -4.3134   -0.1019    0.3687 C   0  0  1  0  0  0  0  0  0  0  0  0
   -5.4481    0.4936   -0.1977 O   0  0  0  0  0  0  0  0  0  0  0  0
   -3.9801   -1.3840   -0.3210 C   0  0  2  0  0  0  0  0  0  0  0  0
   -4.9452   -2.3159    0.1273 O   0  0  0  0  0  0  0  0  0  0  0  0
   -2.6154   -1.8708    0.0217 C   0  0  1  0  0  0  0  0  0  0  0  0
   -2.1707   -2.8900   -0.7809 O   0  0  0  0  0  0  0  0  0  0  0  0
    1.8471    0.1110   -0.1238 C   0  0  0  0  0  0  0  0  0  0  0  0
    2.7169    0.6192    0.8447 C   0  0  0  0  0  0  0  0  0  0  0  0
    4.0845    0.5751    0.6935 C   0  0  0  0  0  0  0  0  0  0  0  0
    4.8704    1.1034    1.7059 C   0  0  0  0  0  0  0  0  0  0  0  0
    6.2395    1.0456    1.5273 C   0  0  0  0  0  0  0  0  0  0  0  0
    6.7759    0.4828    0.3850 C   0  0  0  0  0  0  0  0  0  0  0  0
    5.9617   -0.0372   -0.6096 C   0  0  0  0  0  0  0  0  0  0  0  0
    4.5819    0.0124   -0.4469 C   0  0  0  0  0  0  0  0  0  0  0  0
    3.7521   -0.5029   -1.4314 C   0  0  0  0  0  0  0  0  0  0  0  0
    2.3685   -0.4443   -1.2506 C   0  0  0  0  0  0  0  0  0  0  0  0
    0.1786    0.8016    1.0153 H   0  0  0  0  0  0  0  0  0  0  0  0
    0.0426   -1.8941   -0.3859 H   0  0  0  0  0  0  0  0  0  0  0  0
   -0.1295   -1.4936    1.4220 H   0  0  0  0  0  0  0  0  0  0  0  0
   -0.6730    1.6224   -0.8056 H   0  0  0  0  0  0  0  0  0  0  0  0
   -3.0040    0.9967   -0.8704 H   0  0  0  0  0  0  0  0  0  0  0  0
   -3.7203    1.9588    1.9607 H   0  0  0  0  0  0  0  0  0  0  0  0
   -4.3719    2.6504    0.3790 H   0  0  0  0  0  0  0  0  0  0  0  0
   -2.5685    3.7156    0.1603 H   0  0  0  0  0  0  0  0  0  0  0  0
   -4.4845   -0.2992    1.4467 H   0  0  0  0  0  0  0  0  0  0  0  0
   -6.2733    0.1567    0.2083 H   0  0  0  0  0  0  0  0  0  0  0  0
   -4.1354   -1.2864   -1.4093 H   0  0  0  0  0  0  0  0  0  0  0  0
   -4.7008   -3.2312   -0.0773 H   0  0  0  0  0  0  0  0  0  0  0  0
   -2.6672   -2.2579    1.0723 H   0  0  0  0  0  0  0  0  0  0  0  0
   -2.5817   -3.7379   -0.4221 H   0  0  0  0  0  0  0  0  0  0  0  0
    2.3008    1.0658    1.7507 H   0  0  0  0  0  0  0  0  0  0  0  0
    4.4155    1.5442    2.6022 H   0  0  0  0  0  0  0  0  0  0  0  0
    6.9097    1.4471    2.2933 H   0  0  0  0  0  0  0  0  0  0  0  0
    7.8589    0.4522    0.2737 H   0  0  0  0  0  0  0  0  0  0  0  0
    6.3609   -0.4797   -1.5069 H   0  0  0  0  0  0  0  0  0  0  0  0
    4.1906   -0.9417   -2.3232 H   0  0  0  0  0  0  0  0  0  0  0  0
    1.7421   -0.8476   -2.0223 H   0  0  0  0  0  0  0  0  0  0  0  0
  1  2  1  0
  2  3  1  0
  3  4  1  6
  4  5  1  0
  3  6  1  0
  6  7  1  0
  7  8  1  0
  8  9  1  0
  7 10  1  0
 10 11  1  0
 10 12  1  0
 12 13  1  0
 12 14  1  0
 14 15  1  0
  1 16  1  0
 16 17  2  0
 17 18  1  0
 18 19  2  0
 19 20  1  0
 20 21  2  0
 21 22  1  0
 22 23  2  0
 23 24  1  0
 24 25  2  0
  5  1  1  0
 25 16  1  0
 14  3  1  0
 23 18  1  0
  1 26  1  1
  2 27  1  0
  2 28  1  0
  5 29  1  0
  7 30  1  6
  8 31  1  0
  8 32  1  0
  9 33  1  0
 10 34  1  1
 11 35  1  0
 12 36  1  6
 13 37  1  0
 14 38  1  1
 15 39  1  0
 17 40  1  0
 19 41  1  0
 20 42  1  0
 21 43  1  0
 22 44  1  0
 24 45  1  0
 25 46  1  0
M  END
$$$$
