@<TRIPOS>MOLECULE
*****
 31 32 0 0 0
SMALL
GASTEIGER

@<TRIPOS>ATOM
      1 O           1.8176   -0.7141    1.6907 O.2     1  UNL1       -0.2705
      2 C           1.0524   -0.3106    0.7445 C.2     1  UNL1        0.2411
      3 C          -0.3716   -0.5083    0.7886 C.2     1  UNL1        0.0010
      4 C          -1.2448   -0.1388   -0.1180 C.2     1  UNL1       -0.0497
      5 C          -2.6800   -0.3394   -0.0710 C.ar    1  UNL1       -0.0246
      6 C          -3.4561    0.1198   -1.1257 C.ar    1  UNL1       -0.0511
      7 C          -4.8327   -0.0454   -1.1323 C.ar    1  UNL1       -0.0196
      8 C          -5.4601   -0.6758   -0.0790 C.ar    1  UNL1        0.1169
      9 O          -6.8282   -0.8795   -0.0104 O.3     1  UNL1       -0.5068
     10 C          -4.6856   -1.1364    0.9780 C.ar    1  UNL1       -0.0196
     11 C          -3.2948   -0.9613    0.9689 C.ar    1  UNL1       -0.0511
     12 N           1.6784    0.3368   -0.3414 N.am    1  UNL1       -0.2820
     13 C           3.1166    0.5249   -0.3639 C.ar    1  UNL1        0.0347
     14 C           3.7040    1.6481    0.1662 C.ar    1  UNL1       -0.0404
     15 C           5.0734    1.8271    0.1448 C.ar    1  UNL1       -0.0590
     16 C           5.8813    0.8494   -0.4262 C.ar    1  UNL1       -0.0476
     17 C           5.3166   -0.3007   -0.9721 C.ar    1  UNL1        0.0196
     18 BR          6.4610   -1.6034   -1.7386 Br      1  UNL1       -0.0502
     19 C           3.9498   -0.4240   -0.9222 C.ar    1  UNL1       -0.0265
     20 H          -0.7834   -1.0270    1.6794 H       1  UNL1        0.0670
     21 H          -0.7934    0.3759   -0.9919 H       1  UNL1        0.0625
     22 H          -2.9789    0.6143   -1.9553 H       1  UNL1        0.0625
     23 H          -5.4562    0.3075   -1.9492 H       1  UNL1        0.0654
     24 H          -7.4760   -0.0891    0.0304 H       1  UNL1        0.2921
     25 H          -5.1355   -1.6399    1.8311 H       1  UNL1        0.0654
     26 H          -2.7176   -1.3262    1.7979 H       1  UNL1        0.0625
     27 H           1.1279    0.6846   -1.1317 H       1  UNL1        0.1551
     28 H           3.0320    2.3852    0.6020 H       1  UNL1        0.0636
     29 H           5.5156    2.7362    0.5766 H       1  UNL1        0.0618
     30 H           6.9467    1.0294   -0.4219 H       1  UNL1        0.0629
     31 H           3.5217   -1.3193   -1.3481 H       1  UNL1        0.0647
@<TRIPOS>BOND
     1     1     2    2
     2     2     3    1
     3     3     4    2
     4     4     5    1
     5     5     6   ar
     6     6     7   ar
     7     7     8   ar
     8     8     9    1
     9     8    10   ar
    10    10    11   ar
    11     2    12   am
    12    12    13    1
    13    13    14   ar
    14    14    15   ar
    15    15    16   ar
    16    16    17   ar
    17    17    18    1
    18    17    19   ar
    19    11     5   ar
    20    19    13   ar
    21     3    20    1
    22     4    21    1
    23     6    22    1
    24     7    23    1
    25     9    24    1
    26    10    25    1
    27    11    26    1
    28    12    27    1
    29    14    28    1
    30    15    29    1
    31    16    30    1
    32    19    31    1
