
     RDKit          3D

 31 32  0  0  0  0  0  0  0  0999 V2000
    1.8176   -0.7141    1.6907 O   0  0  0  0  0  0  0  0  0  0  0  0
    1.0524   -0.3106    0.7445 C   0  0  0  0  0  0  0  0  0  0  0  0
   -0.3716   -0.5083    0.7886 C   0  0  0  0  0  0  0  0  0  0  0  0
   -1.2448   -0.1388   -0.1180 C   0  0  0  0  0  0  0  0  0  0  0  0
   -2.6800   -0.3394   -0.0710 C   0  0  0  0  0  0  0  0  0  0  0  0
   -3.4561    0.1198   -1.1257 C   0  0  0  0  0  0  0  0  0  0  0  0
   -4.8327   -0.0454   -1.1323 C   0  0  0  0  0  0  0  0  0  0  0  0
   -5.4601   -0.6758   -0.0790 C   0  0  0  0  0  0  0  0  0  0  0  0
   -6.8282   -0.8795   -0.0104 O   0  0  0  0  0  0  0  0  0  0  0  0
   -4.6856   -1.1364    0.9780 C   0  0  0  0  0  0  0  0  0  0  0  0
   -3.2948   -0.9613    0.9689 C   0  0  0  0  0  0  0  0  0  0  0  0
    1.6784    0.3368   -0.3414 N   0  0  0  0  0  0  0  0  0  0  0  0
    3.1166    0.5249   -0.3639 C   0  0  0  0  0  0  0  0  0  0  0  0
    3.7040    1.6481    0.1662 C   0  0  0  0  0  0  0  0  0  0  0  0
    5.0734    1.8271    0.1448 C   0  0  0  0  0  0  0  0  0  0  0  0
    5.8813    0.8494   -0.4262 C   0  0  0  0  0  0  0  0  0  0  0  0
    5.3166   -0.3007   -0.9721 C   0  0  0  0  0  0  0  0  0  0  0  0
    6.4610   -1.6034   -1.7386 Br  0  0  0  0  0  0  0  0  0  0  0  0
    3.9498   -0.4240   -0.9222 C   0  0  0  0  0  0  0  0  0  0  0  0
   -0.7834   -1.0270    1.6794 H   0  0  0  0  0  0  0  0  0  0  0  0
   -0.7934    0.3759   -0.9919 H   0  0  0  0  0  0  0  0  0  0  0  0
   -2.9789    0.6143   -1.9553 H   0  0  0  0  0  0  0  0  0  0  0  0
   -5.4562    0.3075   -1.9492 H   0  0  0  0  0  0  0  0  0  0  0  0
   -7.4760   -0.0891    0.0304 H   0  0  0  0  0  0  0  0  0  0  0  0
   -5.1355   -1.6399    1.8311 H   0  0  0  0  0  0  0  0  0  0  0  0
   -2.7176   -1.3262    1.7979 H   0  0  0  0  0  0  0  0  0  0  0  0
    1.1279    0.6846   -1.1317 H   0  0  0  0  0  0  0  0  0  0  0  0
    3.0320    2.3852    0.6020 H   0  0  0  0  0  0  0  0  0  0  0  0
    5.5156    2.7362    0.5766 H   0  0  0  0  0  0  0  0  0  0  0  0
    6.9467    1.0294   -0.4219 H   0  0  0  0  0  0  0  0  0  0  0  0
    3.5217   -1.3193   -1.3481 H   0  0  0  0  0  0  0  0  0  0  0  0
  1  2  2  0
  2  3  1  0
  3  4  2  0
  4  5  1  0
  5  6  2  0
  6  7  1  0
  7  8  2  0
  8  9  1  0
  8 10  1  0
 10 11  2  0
  2 12  1  0
 12 13  1  0
 13 14  2  0
 14 15  1  0
 15 16  2  0
 16 17  1  0
 17 18  1  0
 17 19  2  0
 11  5  1  0
 19 13  1  0
  3 20  1  0
  4 21  1  0
  6 22  1  0
  7 23  1  0
  9 24  1  0
 10 25  1  0
 11 26  1  0
 12 27  1  0
 14 28  1  0
 15 29  1  0
 16 30  1  0
 19 31  1  0
M  END
$$$$
