
     RDKit          3D

 53 55  0  0  0  0  0  0  0  0999 V2000
   -2.2339   -2.5864   -3.5612 C   0  0  0  0  0  0  0  0  0  0  0  0
   -2.5917   -1.1398   -3.3726 C   0  0  0  0  0  0  0  0  0  0  0  0
   -2.3771   -0.7205   -1.9623 N   0  0  0  0  0  0  0  0  0  0  0  0
   -1.0360   -0.6741   -1.7090 C   0  0  0  0  0  0  0  0  0  0  0  0
   -0.4741   -0.5138   -0.3697 C   0  0  0  0  0  0  0  0  0  0  0  0
    1.0625   -0.3808   -0.4654 C   0  0  0  0  0  0  0  0  0  0  0  0
    1.6168   -0.2906    0.9255 C   0  0  0  0  0  0  0  0  0  0  0  0
    3.0282   -0.0747    0.9967 N   0  0  0  0  0  0  0  0  0  0  0  0
    4.1262   -0.9577    0.9591 C   0  0  0  0  0  0  0  0  0  0  0  0
    4.0481   -2.2059    0.7632 O   0  0  0  0  0  0  0  0  0  0  0  0
    5.3806   -0.2235    1.1778 C   0  0  0  0  0  0  0  0  0  0  0  0
    6.7114   -0.5517    1.2520 C   0  0  0  0  0  0  0  0  0  0  0  0
    7.6886    0.3995    1.4865 C   0  0  0  0  0  0  0  0  0  0  0  0
    7.3596    1.7451    1.6591 C   0  0  0  0  0  0  0  0  0  0  0  0
    6.0228    2.0658    1.5818 C   0  0  0  0  0  0  0  0  0  0  0  0
    5.0541    1.1024    1.3467 C   0  0  0  0  0  0  0  0  0  0  0  0
    3.6158    1.2300    1.2404 C   0  0  0  0  0  0  0  0  0  0  0  0
    2.9331    2.2859    1.3394 O   0  0  0  0  0  0  0  0  0  0  0  0
   -3.4720   -1.0541   -1.2068 C   0  0  0  0  0  0  0  0  0  0  0  0
   -3.9688    0.1083   -0.4089 C   0  0  0  0  0  0  0  0  0  0  0  0
   -4.8019    0.9979   -1.1240 C   0  0  0  0  0  0  0  0  0  0  0  0
   -5.2351    2.1606   -0.5357 C   0  0  0  0  0  0  0  0  0  0  0  0
   -4.8587    2.4550    0.7449 C   0  0  0  0  0  0  0  0  0  0  0  0
   -4.0546    1.5878    1.4308 C   0  0  0  0  0  0  0  0  0  0  0  0
   -3.6135    0.4222    0.8625 C   0  0  0  0  0  0  0  0  0  0  0  0
   -2.8219   -0.4177    1.5951 O   0  0  0  0  0  0  0  0  0  0  0  0
   -2.4400   -0.0946    2.9045 C   0  0  0  0  0  0  0  0  0  0  0  0
   -1.9605   -3.1162   -2.6194 H   0  0  0  0  0  0  0  0  0  0  0  0
   -3.1585   -3.1387   -3.9145 H   0  0  0  0  0  0  0  0  0  0  0  0
   -1.4925   -2.7766   -4.3518 H   0  0  0  0  0  0  0  0  0  0  0  0
   -3.6673   -1.0071   -3.5473 H   0  0  0  0  0  0  0  0  0  0  0  0
   -1.9344   -0.5211   -4.0249 H   0  0  0  0  0  0  0  0  0  0  0  0
   -0.5932    0.1822   -2.3344 H   0  0  0  0  0  0  0  0  0  0  0  0
   -0.4813   -1.5626   -2.2124 H   0  0  0  0  0  0  0  0  0  0  0  0
   -0.8013    0.4386    0.1097 H   0  0  0  0  0  0  0  0  0  0  0  0
   -0.6751   -1.3338    0.3431 H   0  0  0  0  0  0  0  0  0  0  0  0
    1.2712    0.5508   -1.0112 H   0  0  0  0  0  0  0  0  0  0  0  0
    1.5108   -1.2108   -1.0337 H   0  0  0  0  0  0  0  0  0  0  0  0
    1.0550    0.5129    1.4729 H   0  0  0  0  0  0  0  0  0  0  0  0
    1.3441   -1.2322    1.5046 H   0  0  0  0  0  0  0  0  0  0  0  0
    6.9794   -1.5806    1.1182 H   0  0  0  0  0  0  0  0  0  0  0  0
    8.7160    0.0566    1.5275 H   0  0  0  0  0  0  0  0  0  0  0  0
    8.1500    2.4683    1.8469 H   0  0  0  0  0  0  0  0  0  0  0  0
    5.7303    3.1032    1.7164 H   0  0  0  0  0  0  0  0  0  0  0  0
   -3.3709   -1.9649   -0.5540 H   0  0  0  0  0  0  0  0  0  0  0  0
   -4.3559   -1.3582   -1.8670 H   0  0  0  0  0  0  0  0  0  0  0  0
   -5.1178    0.7757   -2.1300 H   0  0  0  0  0  0  0  0  0  0  0  0
   -5.8807    2.8642   -1.0604 H   0  0  0  0  0  0  0  0  0  0  0  0
   -5.2137    3.3819    1.1858 H   0  0  0  0  0  0  0  0  0  0  0  0
   -3.7454    1.7943    2.4342 H   0  0  0  0  0  0  0  0  0  0  0  0
   -3.3329    0.0580    3.5732 H   0  0  0  0  0  0  0  0  0  0  0  0
   -1.8175    0.8432    2.9067 H   0  0  0  0  0  0  0  0  0  0  0  0
   -1.8264   -0.9015    3.3714 H   0  0  0  0  0  0  0  0  0  0  0  0
  1  2  1  0
  2  3  1  0
  3  4  1  0
  4  5  1  0
  5  6  1  0
  6  7  1  0
  7  8  1  0
  8  9  1  0
  9 10  2  0
  9 11  1  0
 11 12  2  0
 12 13  1  0
 13 14  2  0
 14 15  1  0
 15 16  2  0
 16 17  1  0
 17 18  2  0
  3 19  1  0
 19 20  1  0
 20 21  2  0
 21 22  1  0
 22 23  2  0
 23 24  1  0
 24 25  2  0
 25 26  1  0
 26 27  1  0
 17  8  1  0
 25 20  1  0
 16 11  1  0
  1 28  1  0
  1 29  1  0
  1 30  1  0
  2 31  1  0
  2 32  1  0
  4 33  1  0
  4 34  1  0
  5 35  1  0
  5 36  1  0
  6 37  1  0
  6 38  1  0
  7 39  1  0
  7 40  1  0
 12 41  1  0
 13 42  1  0
 14 43  1  0
 15 44  1  0
 19 45  1  0
 19 46  1  0
 21 47  1  0
 22 48  1  0
 23 49  1  0
 24 50  1  0
 27 51  1  0
 27 52  1  0
 27 53  1  0
M  END
$$$$
