@<TRIPOS>MOLECULE
*****
 53 55 0 0 0
SMALL
GASTEIGER

@<TRIPOS>ATOM
      1 C          -2.2339   -2.5864   -3.5612 C.3     1  UNL1       -0.0523
      2 C          -2.5917   -1.1398   -3.3726 C.3     1  UNL1       -0.0036
      3 N          -2.3771   -0.7205   -1.9623 N.3     1  UNL1       -0.2983
      4 C          -1.0360   -0.6741   -1.7090 C.3     1  UNL1       -0.0007
      5 C          -0.4741   -0.5138   -0.3697 C.3     1  UNL1       -0.0388
      6 C           1.0625   -0.3808   -0.4654 C.3     1  UNL1       -0.0355
      7 C           1.6168   -0.2906    0.9255 C.3     1  UNL1        0.0230
      8 N           3.0282   -0.0747    0.9967 N.am    1  UNL1       -0.2341
      9 C           4.1262   -0.9577    0.9591 C.2     1  UNL1        0.2538
     10 O           4.0481   -2.2059    0.7632 O.2     1  UNL1       -0.2695
     11 C           5.3806   -0.2235    1.1778 C.ar    1  UNL1        0.0494
     12 C           6.7114   -0.5517    1.2520 C.ar    1  UNL1       -0.0489
     13 C           7.6886    0.3995    1.4865 C.ar    1  UNL1       -0.0610
     14 C           7.3596    1.7451    1.6591 C.ar    1  UNL1       -0.0610
     15 C           6.0228    2.0658    1.5818 C.ar    1  UNL1       -0.0489
     16 C           5.0541    1.1024    1.3467 C.ar    1  UNL1        0.0494
     17 C           3.6158    1.2300    1.2404 C.2     1  UNL1        0.2538
     18 O           2.9331    2.2859    1.3394 O.2     1  UNL1       -0.2695
     19 C          -3.4720   -1.0541   -1.2068 C.3     1  UNL1        0.0275
     20 C          -3.9688    0.1083   -0.4089 C.ar    1  UNL1        0.0082
     21 C          -4.8019    0.9979   -1.1240 C.ar    1  UNL1       -0.0539
     22 C          -5.2351    2.1606   -0.5357 C.ar    1  UNL1       -0.0612
     23 C          -4.8587    2.4550    0.7449 C.ar    1  UNL1       -0.0583
     24 C          -4.0546    1.5878    1.4308 C.ar    1  UNL1       -0.0196
     25 C          -3.6135    0.4222    0.8625 C.ar    1  UNL1        0.1245
     26 O          -2.8219   -0.4177    1.5951 O.3     1  UNL1       -0.4948
     27 C          -2.4400   -0.0946    2.9045 C.3     1  UNL1        0.0788
     28 H          -1.9605   -3.1162   -2.6194 H       1  UNL1        0.0242
     29 H          -3.1585   -3.1387   -3.9145 H       1  UNL1        0.0242
     30 H          -1.4925   -2.7766   -4.3518 H       1  UNL1        0.0242
     31 H          -3.6673   -1.0071   -3.5473 H       1  UNL1        0.0424
     32 H          -1.9344   -0.5211   -4.0249 H       1  UNL1        0.0424
     33 H          -0.5932    0.1822   -2.3344 H       1  UNL1        0.0427
     34 H          -0.4813   -1.5626   -2.2124 H       1  UNL1        0.0427
     35 H          -0.8013    0.4386    0.1097 H       1  UNL1        0.0278
     36 H          -0.6751   -1.3338    0.3431 H       1  UNL1        0.0278
     37 H           1.2712    0.5508   -1.0112 H       1  UNL1        0.0281
     38 H           1.5108   -1.2108   -1.0337 H       1  UNL1        0.0281
     39 H           1.0550    0.5129    1.4729 H       1  UNL1        0.0470
     40 H           1.3441   -1.2322    1.5046 H       1  UNL1        0.0470
     41 H           6.9794   -1.5806    1.1182 H       1  UNL1        0.0625
     42 H           8.7160    0.0566    1.5275 H       1  UNL1        0.0618
     43 H           8.1500    2.4683    1.8469 H       1  UNL1        0.0618
     44 H           5.7303    3.1032    1.7164 H       1  UNL1        0.0625
     45 H          -3.3709   -1.9649   -0.5540 H       1  UNL1        0.0477
     46 H          -4.3559   -1.3582   -1.8670 H       1  UNL1        0.0477
     47 H          -5.1178    0.7757   -2.1300 H       1  UNL1        0.0622
     48 H          -5.8807    2.8642   -1.0604 H       1  UNL1        0.0618
     49 H          -5.2137    3.3819    1.1858 H       1  UNL1        0.0619
     50 H          -3.7454    1.7943    2.4342 H       1  UNL1        0.0654
     51 H          -3.3329    0.0580    3.5732 H       1  UNL1        0.0660
     52 H          -1.8175    0.8432    2.9067 H       1  UNL1        0.0660
     53 H          -1.8264   -0.9015    3.3714 H       1  UNL1        0.0660
@<TRIPOS>BOND
     1     1     2    1
     2     2     3    1
     3     3     4    1
     4     4     5    1
     5     5     6    1
     6     6     7    1
     7     7     8    1
     8     8     9   am
     9     9    10    2
    10     9    11    1
    11    11    12   ar
    12    12    13   ar
    13    13    14   ar
    14    14    15   ar
    15    15    16   ar
    16    16    17    1
    17    17    18    2
    18     3    19    1
    19    19    20    1
    20    20    21   ar
    21    21    22   ar
    22    22    23   ar
    23    23    24   ar
    24    24    25   ar
    25    25    26    1
    26    26    27    1
    27    17     8   am
    28    25    20   ar
    29    16    11   ar
    30     1    28    1
    31     1    29    1
    32     1    30    1
    33     2    31    1
    34     2    32    1
    35     4    33    1
    36     4    34    1
    37     5    35    1
    38     5    36    1
    39     6    37    1
    40     6    38    1
    41     7    39    1
    42     7    40    1
    43    12    41    1
    44    13    42    1
    45    14    43    1
    46    15    44    1
    47    19    45    1
    48    19    46    1
    49    21    47    1
    50    22    48    1
    51    23    49    1
    52    24    50    1
    53    27    51    1
    54    27    52    1
    55    27    53    1
