@<TRIPOS>MOLECULE
*****
 26 26 0 0 0
SMALL
GASTEIGER

@<TRIPOS>ATOM
      1 C          -1.0021   -0.8378    0.4529 C.3     1  UNL1        0.0873
      2 C          -2.2925   -1.3022    1.1196 C.3     1  UNL1       -0.0361
      3 O          -0.1918   -0.3425    1.4518 O.3     1  UNL1       -0.3431
      4 C           1.0181    0.0572    0.8426 C.3     1  UNL1        0.1875
      5 O           1.3912   -0.8528   -0.1239 O.3     1  UNL1       -0.3520
      6 C           2.6241   -1.4262    0.0799 C.3     1  UNL1        0.0395
      7 C           0.6980    1.3651    0.1488 C.3     1  UNL1        0.1341
      8 O           1.8189    2.0706   -0.2368 O.3     1  UNL1       -0.3841
      9 C          -0.1726    1.0116   -1.0421 C.3     1  UNL1        0.1140
     10 O          -0.6898    2.1806   -1.5980 O.3     1  UNL1       -0.3864
     11 C          -1.3414    0.1810   -0.5983 C.3     1  UNL1        0.1095
     12 O          -2.3988    0.9989   -0.1745 O.3     1  UNL1       -0.3866
     13 H          -0.5333   -1.7493    0.0135 H       1  UNL1        0.0621
     14 H          -2.0355   -1.9254    2.0229 H       1  UNL1        0.0255
     15 H          -2.8678   -1.9470    0.4355 H       1  UNL1        0.0255
     16 H          -2.8647   -0.4276    1.4792 H       1  UNL1        0.0255
     17 H           1.7903    0.1733    1.6339 H       1  UNL1        0.0937
     18 H           3.4100   -0.6443    0.0980 H       1  UNL1        0.0525
     19 H           2.6246   -2.0818    0.9682 H       1  UNL1        0.0525
     20 H           2.8467   -2.0530   -0.8130 H       1  UNL1        0.0525
     21 H           0.0938    2.0150    0.8012 H       1  UNL1        0.0671
     22 H           2.2726    1.5730   -0.9378 H       1  UNL1        0.2101
     23 H           0.4773    0.4944   -1.7728 H       1  UNL1        0.0648
     24 H           0.0623    2.7536   -1.8422 H       1  UNL1        0.2100
     25 H          -1.6939   -0.4074   -1.4811 H       1  UNL1        0.0646
     26 H          -3.0438    1.1229   -0.9275 H       1  UNL1        0.2100
@<TRIPOS>BOND
     1     1     2    1
     2     1     3    1
     3     3     4    1
     4     4     5    1
     5     5     6    1
     6     4     7    1
     7     7     8    1
     8     7     9    1
     9     9    10    1
    10     9    11    1
    11    11    12    1
    12    11     1    1
    13     1    13    1
    14     2    14    1
    15     2    15    1
    16     2    16    1
    17     4    17    1
    18     6    18    1
    19     6    19    1
    20     6    20    1
    21     7    21    1
    22     8    22    1
    23     9    23    1
    24    10    24    1
    25    11    25    1
    26    12    26    1
