@<TRIPOS>MOLECULE
*****
 40 42 0 0 0
SMALL
GASTEIGER

@<TRIPOS>ATOM
      1 O           5.5753    1.1903   -0.8889 O.3     1  UNL1       -0.3026
      2 P           5.2491   -0.2940   -0.1262 P.3     1  UNL1        0.4739
      3 O           6.0254   -1.5587   -0.9195 O.3     1  UNL1       -0.3026
      4 O           5.6286   -0.2375    1.3355 O.2     1  UNL1       -0.2275
      5 O           3.5578   -0.5332   -0.2287 O.3     1  UNL1       -0.2669
      6 C           2.9802    0.7158   -0.1603 C.3     1  UNL1        0.1356
      7 N           1.5309    0.5566   -0.2452 N.am    1  UNL1       -0.1990
      8 C           0.8602    0.5686   -1.4990 C.2     1  UNL1        0.3117
      9 O           1.3623    0.7069   -2.6573 O.2     1  UNL1       -0.2521
     10 N          -0.5279    0.3963   -1.2882 N.am    1  UNL1       -0.2775
     11 C          -0.7972    0.1699    0.1308 C.3     1  UNL1        0.1637
     12 C           0.5343    0.3729    0.7580 C.2     1  UNL1        0.2575
     13 O           0.9583    0.4166    1.9454 O.2     1  UNL1       -0.2719
     14 C          -1.7812    1.1571    0.5998 C.ar    1  UNL1       -0.0108
     15 C          -2.8689    1.5478   -0.1800 C.ar    1  UNL1       -0.0557
     16 C          -3.8319    2.4615    0.1909 C.ar    1  UNL1       -0.0614
     17 C          -3.7347    3.0539    1.4330 C.ar    1  UNL1       -0.0617
     18 C          -2.6916    2.7191    2.2554 C.ar    1  UNL1       -0.0614
     19 C          -1.7633    1.7978    1.8221 C.ar    1  UNL1       -0.0557
     20 C          -1.1641   -1.2434    0.3410 C.ar    1  UNL1       -0.0108
     21 C          -2.2472   -1.7607   -0.3466 C.ar    1  UNL1       -0.0557
     22 C          -2.6399   -3.0856   -0.1874 C.ar    1  UNL1       -0.0614
     23 C          -1.9796   -3.9415    0.6523 C.ar    1  UNL1       -0.0617
     24 C          -0.8970   -3.4440    1.3466 C.ar    1  UNL1       -0.0614
     25 C          -0.5365   -2.1498    1.1726 C.ar    1  UNL1       -0.0557
     26 H           5.3276    1.9373   -0.3089 H       1  UNL1        0.2220
     27 H           6.9283   -1.3053   -1.2561 H       1  UNL1        0.2220
     28 H           3.2929    1.4142   -0.9522 H       1  UNL1        0.0782
     29 H           3.2643    1.1981    0.8002 H       1  UNL1        0.0782
     30 H          -1.2815    0.4197   -2.0081 H       1  UNL1        0.1519
     31 H          -3.0211    1.1364   -1.1666 H       1  UNL1        0.0621
     32 H          -4.6571    2.7318   -0.4497 H       1  UNL1        0.0618
     33 H          -4.4561    3.7669    1.7642 H       1  UNL1        0.0618
     34 H          -2.5898    3.1767    3.2519 H       1  UNL1        0.0618
     35 H          -0.9637    1.5727    2.5138 H       1  UNL1        0.0621
     36 H          -2.8627   -1.2387   -1.0315 H       1  UNL1        0.0621
     37 H          -3.4901   -3.5335   -0.7120 H       1  UNL1        0.0618
     38 H          -2.2780   -4.9712    0.7818 H       1  UNL1        0.0618
     39 H          -0.3282   -4.0894    2.0373 H       1  UNL1        0.0618
     40 H           0.3137   -1.7983    1.7309 H       1  UNL1        0.0621
@<TRIPOS>BOND
     1     1     2    1
     2     2     3    1
     3     2     4    2
     4     2     5    1
     5     5     6    1
     6     6     7    1
     7     7     8   am
     8     8     9    2
     9     8    10   am
    10    10    11    1
    11    11    12    1
    12    12    13    2
    13    11    14    1
    14    14    15   ar
    15    15    16   ar
    16    16    17   ar
    17    17    18   ar
    18    18    19   ar
    19    11    20    1
    20    20    21   ar
    21    21    22   ar
    22    22    23   ar
    23    23    24   ar
    24    24    25   ar
    25    12     7   am
    26    19    14   ar
    27    25    20   ar
    28     1    26    1
    29     3    27    1
    30     6    28    1
    31     6    29    1
    32    10    30    1
    33    15    31    1
    34    16    32    1
    35    17    33    1
    36    18    34    1
    37    19    35    1
    38    21    36    1
    39    22    37    1
    40    23    38    1
    41    24    39    1
    42    25    40    1
