@<TRIPOS>MOLECULE
*****
 50 49 0 0 0
SMALL
GASTEIGER

@<TRIPOS>ATOM
      1 C           6.7011    1.5166    1.9816 C.3     1  UNL1       -0.0618
      2 C           6.5836    0.9357    0.5758 C.3     1  UNL1       -0.0376
      3 C           5.4781    1.5714   -0.1661 C.2     1  UNL1       -0.0879
      4 C           4.3809    1.1219   -0.7074 C.2     1  UNL1       -0.0842
      5 C           4.1710   -0.3436   -0.5602 C.3     1  UNL1       -0.0165
      6 C           4.0911   -1.0343   -1.8571 C.2     1  UNL1       -0.0839
      7 C           3.0252   -1.7295   -2.2122 C.2     1  UNL1       -0.0839
      8 C           1.7898   -1.9543   -1.4631 C.3     1  UNL1       -0.0165
      9 C           0.6717   -1.3880   -2.2837 C.2     1  UNL1       -0.0842
     10 C          -0.1226   -0.4272   -1.8743 C.2     1  UNL1       -0.0876
     11 C          -0.2187    0.3680   -0.6188 C.3     1  UNL1       -0.0348
     12 C          -1.6500    0.0684   -0.0671 C.3     1  UNL1       -0.0496
     13 C          -1.8782    0.8065    1.1899 C.3     1  UNL1       -0.0528
     14 C          -3.1611    0.5436    1.8640 C.3     1  UNL1       -0.0530
     15 C          -4.4665    0.8048    1.2524 C.3     1  UNL1       -0.0526
     16 C          -4.9149    0.0772    0.0523 C.3     1  UNL1       -0.0430
     17 C          -6.3312    0.5761   -0.2859 C.3     1  UNL1        0.0448
     18 C          -7.2906    0.3431    0.7937 C.2     1  UNL1        0.3047
     19 O          -8.1531   -0.7055    0.9715 O.3     1  UNL1       -0.4806
     20 O          -7.4726    1.1105    1.7659 O.2     1  UNL1       -0.2510
     21 H           7.7552    1.5287    2.3466 H       1  UNL1        0.0233
     22 H           6.3191    2.5374    2.0353 H       1  UNL1        0.0233
     23 H           6.1622    0.7991    2.6416 H       1  UNL1        0.0233
     24 H           6.5681   -0.1506    0.5610 H       1  UNL1        0.0305
     25 H           7.5806    1.2154    0.0921 H       1  UNL1        0.0305
     26 H           5.6856    2.6533   -0.2435 H       1  UNL1        0.0569
     27 H           3.6612    1.7358   -1.2271 H       1  UNL1        0.0572
     28 H           4.8225   -0.8359    0.1673 H       1  UNL1        0.0350
     29 H           3.1411   -0.4074   -0.0792 H       1  UNL1        0.0350
     30 H           4.9654   -0.9302   -2.4931 H       1  UNL1        0.0572
     31 H           3.0449   -2.2163   -3.2033 H       1  UNL1        0.0572
     32 H           1.7570   -1.6968   -0.4174 H       1  UNL1        0.0350
     33 H           1.5967   -3.0818   -1.4785 H       1  UNL1        0.0350
     34 H           0.5059   -1.7929   -3.2743 H       1  UNL1        0.0572
     35 H          -0.9161   -0.0701   -2.5372 H       1  UNL1        0.0569
     36 H           0.4537    0.0132    0.1805 H       1  UNL1        0.0307
     37 H          -0.1658    1.4456   -0.7863 H       1  UNL1        0.0307
     38 H          -1.7096   -1.0001    0.0356 H       1  UNL1        0.0268
     39 H          -2.2710    0.5395   -0.8622 H       1  UNL1        0.0268
     40 H          -1.0279    0.5816    1.9268 H       1  UNL1        0.0265
     41 H          -1.7594    1.9298    1.0244 H       1  UNL1        0.0265
     42 H          -3.1082   -0.5323    2.2499 H       1  UNL1        0.0265
     43 H          -3.0855    1.1032    2.8764 H       1  UNL1        0.0265
     44 H          -5.2390    0.5495    2.0654 H       1  UNL1        0.0265
     45 H          -4.6416    1.9242    1.1499 H       1  UNL1        0.0265
     46 H          -4.3762    0.1607   -0.8755 H       1  UNL1        0.0270
     47 H          -4.9663   -1.0123    0.2940 H       1  UNL1        0.0270
     48 H          -6.6042    0.0701   -1.2345 H       1  UNL1        0.0377
     49 H          -6.2583    1.6561   -0.5370 H       1  UNL1        0.0377
     50 H          -9.1230   -0.6526    1.2510 H       1  UNL1        0.2951
@<TRIPOS>BOND
     1     1     2    1
     2     2     3    1
     3     3     4    2
     4     4     5    1
     5     5     6    1
     6     6     7    2
     7     7     8    1
     8     8     9    1
     9     9    10    2
    10    10    11    1
    11    11    12    1
    12    12    13    1
    13    13    14    1
    14    14    15    1
    15    15    16    1
    16    16    17    1
    17    17    18    1
    18    18    19    1
    19    18    20    2
    20     1    21    1
    21     1    22    1
    22     1    23    1
    23     2    24    1
    24     2    25    1
    25     3    26    1
    26     4    27    1
    27     5    28    1
    28     5    29    1
    29     6    30    1
    30     7    31    1
    31     8    32    1
    32     8    33    1
    33     9    34    1
    34    10    35    1
    35    11    36    1
    36    11    37    1
    37    12    38    1
    38    12    39    1
    39    13    40    1
    40    13    41    1
    41    14    42    1
    42    14    43    1
    43    15    44    1
    44    15    45    1
    45    16    46    1
    46    16    47    1
    47    17    48    1
    48    17    49    1
    49    19    50    1
