
     RDKit          3D

 30 31  0  0  0  0  0  0  0  0999 V2000
    3.2936    1.8522   -1.0542 O   0  0  0  0  0  0  0  0  0  0  0  0
    3.4683    1.1531    0.1360 C   0  0  0  0  0  0  0  0  0  0  0  0
    2.7191   -0.1584    0.1378 C   0  0  0  0  0  0  0  0  0  0  0  0
    1.3249    0.0298   -0.0278 O   0  0  0  0  0  0  0  0  0  0  0  0
    0.5411   -1.1285   -0.0397 C   0  0  0  0  0  0  0  0  0  0  0  0
   -0.8249   -0.9421   -0.2021 C   0  0  0  0  0  0  0  0  0  0  0  0
   -1.5920   -2.0942   -0.2126 C   0  0  0  0  0  0  0  0  0  0  0  0
   -1.0809   -3.3595   -0.0750 C   0  0  0  0  0  0  0  0  0  0  0  0
    0.2692   -3.5313    0.0847 C   0  0  0  0  0  0  0  0  0  0  0  0
    1.0623   -2.4030    0.0996 C   0  0  0  0  0  0  0  0  0  0  0  0
   -1.4891    0.3525   -0.3585 C   0  0  0  0  0  0  0  0  0  0  0  0
   -1.8682    0.8996    0.8603 C   0  0  0  0  0  0  0  0  0  0  0  0
   -1.6609    0.3227    2.0878 F   0  0  0  0  0  0  0  0  0  0  0  0
   -2.5171    2.1302    0.9416 C   0  0  0  0  0  0  0  0  0  0  0  0
   -2.9002    2.6918    2.1139 F   0  0  0  0  0  0  0  0  0  0  0  0
   -2.7924    2.8298   -0.2350 C   0  0  0  0  0  0  0  0  0  0  0  0
   -3.4203    4.0245   -0.1844 F   0  0  0  0  0  0  0  0  0  0  0  0
   -2.4048    2.2599   -1.4097 C   0  0  0  0  0  0  0  0  0  0  0  0
   -1.7683    1.0574   -1.5208 C   0  0  0  0  0  0  0  0  0  0  0  0
    3.4112    2.8276   -0.9342 H   0  0  0  0  0  0  0  0  0  0  0  0
    4.5469    0.9087    0.2287 H   0  0  0  0  0  0  0  0  0  0  0  0
    3.1915    1.7161    1.0382 H   0  0  0  0  0  0  0  0  0  0  0  0
    2.8780   -0.6004    1.1596 H   0  0  0  0  0  0  0  0  0  0  0  0
    3.1321   -0.8747   -0.6131 H   0  0  0  0  0  0  0  0  0  0  0  0
   -2.6804   -2.0739   -0.3337 H   0  0  0  0  0  0  0  0  0  0  0  0
   -1.6996   -4.2518   -0.0858 H   0  0  0  0  0  0  0  0  0  0  0  0
    0.7713   -4.4797    0.2010 H   0  0  0  0  0  0  0  0  0  0  0  0
    2.1314   -2.4895    0.2229 H   0  0  0  0  0  0  0  0  0  0  0  0
   -2.6059    2.7808   -2.3365 H   0  0  0  0  0  0  0  0  0  0  0  0
   -1.4358    0.5502   -2.4032 H   0  0  0  0  0  0  0  0  0  0  0  0
  1  2  1  0
  2  3  1  0
  3  4  1  0
  4  5  1  0
  5  6  2  0
  6  7  1  0
  7  8  2  0
  8  9  1  0
  9 10  2  0
  6 11  1  0
 11 12  2  0
 12 13  1  0
 12 14  1  0
 14 15  1  0
 14 16  2  0
 16 17  1  0
 16 18  1  0
 18 19  2  0
 10  5  1  0
 19 11  1  0
  1 20  1  0
  2 21  1  0
  2 22  1  0
  3 23  1  0
  3 24  1  0
  7 25  1  0
  8 26  1  0
  9 27  1  0
 10 28  1  0
 18 29  1  0
 19 30  1  0
M  END
$$$$
