@<TRIPOS>MOLECULE
*****
 30 31 0 0 0
SMALL
GASTEIGER

@<TRIPOS>ATOM
      1 O           3.2936    1.8522   -1.0542 O.3     1  UNL1       -0.3917
      2 C           3.4683    1.1531    0.1360 C.3     1  UNL1        0.0783
      3 C           2.7191   -0.1584    0.1378 C.3     1  UNL1        0.1126
      4 O           1.3249    0.0298   -0.0278 O.3     1  UNL1       -0.4891
      5 C           0.5411   -1.1285   -0.0397 C.ar    1  UNL1        0.1284
      6 C          -0.8249   -0.9421   -0.2021 C.ar    1  UNL1        0.0266
      7 C          -1.5920   -2.0942   -0.2126 C.ar    1  UNL1       -0.0504
      8 C          -1.0809   -3.3595   -0.0750 C.ar    1  UNL1       -0.0610
      9 C           0.2692   -3.5313    0.0847 C.ar    1  UNL1       -0.0583
     10 C           1.0623   -2.4030    0.0996 C.ar    1  UNL1       -0.0193
     11 C          -1.4891    0.3525   -0.3585 C.ar    1  UNL1        0.0238
     12 C          -1.8682    0.8996    0.8603 C.ar    1  UNL1        0.1690
     13 F          -1.6609    0.3227    2.0878 F       1  UNL1       -0.2017
     14 C          -2.5171    2.1302    0.9416 C.ar    1  UNL1        0.1939
     15 F          -2.9002    2.6918    2.1139 F       1  UNL1       -0.1994
     16 C          -2.7924    2.8298   -0.2350 C.ar    1  UNL1        0.1613
     17 F          -3.4203    4.0245   -0.1844 F       1  UNL1       -0.2024
     18 C          -2.4048    2.2599   -1.4097 C.ar    1  UNL1       -0.0228
     19 C          -1.7683    1.0574   -1.5208 C.ar    1  UNL1       -0.0483
     20 H           3.4112    2.8276   -0.9342 H       1  UNL1        0.2095
     21 H           4.5469    0.9087    0.2287 H       1  UNL1        0.0591
     22 H           3.1915    1.7161    1.0382 H       1  UNL1        0.0591
     23 H           2.8780   -0.6004    1.1596 H       1  UNL1        0.0720
     24 H           3.1321   -0.8747   -0.6131 H       1  UNL1        0.0720
     25 H          -2.6804   -2.0739   -0.3337 H       1  UNL1        0.0625
     26 H          -1.6996   -4.2518   -0.0858 H       1  UNL1        0.0618
     27 H           0.7713   -4.4797    0.2010 H       1  UNL1        0.0619
     28 H           2.1314   -2.4895    0.2229 H       1  UNL1        0.0654
     29 H          -2.6059    2.7808   -2.3365 H       1  UNL1        0.0647
     30 H          -1.4358    0.5502   -2.4032 H       1  UNL1        0.0625
@<TRIPOS>BOND
     1     1     2    1
     2     2     3    1
     3     3     4    1
     4     4     5    1
     5     5     6   ar
     6     6     7   ar
     7     7     8   ar
     8     8     9   ar
     9     9    10   ar
    10     6    11    1
    11    11    12   ar
    12    12    13    1
    13    12    14   ar
    14    14    15    1
    15    14    16   ar
    16    16    17    1
    17    16    18   ar
    18    18    19   ar
    19    10     5   ar
    20    19    11   ar
    21     1    20    1
    22     2    21    1
    23     2    22    1
    24     3    23    1
    25     3    24    1
    26     7    25    1
    27     8    26    1
    28     9    27    1
    29    10    28    1
    30    18    29    1
    31    19    30    1
