
     RDKit          3D

 30 30  0  0  0  0  0  0  0  0999 V2000
   -1.0353   -0.8924   -0.3005 C   0  0  1  0  0  0  0  0  0  0  0  0
   -1.5089   -1.9257   -1.2915 C   0  0  0  0  0  0  0  0  0  0  0  0
   -2.7970   -2.3468   -0.9284 O   0  0  0  0  0  0  0  0  0  0  0  0
    0.2553   -0.4404   -0.6255 O   0  0  0  0  0  0  0  0  0  0  0  0
    0.7453    0.3251    0.4288 C   0  0  1  0  0  0  0  0  0  0  0  0
    2.1502    0.6172    0.2040 N   0  0  0  0  0  0  0  0  0  0  0  0
    2.9630   -0.3391   -0.0370 C   0  0  0  0  0  0  0  0  0  0  0  0
    4.4022   -0.0488   -0.2682 C   0  0  0  0  0  0  0  0  0  0  0  0
    2.5152   -1.6609   -0.0866 O   0  0  0  0  0  0  0  0  0  0  0  0
   -0.0590    1.6080    0.5352 C   0  0  2  0  0  0  0  0  0  0  0  0
    0.4364    2.4365    1.5104 O   0  0  0  0  0  0  0  0  0  0  0  0
   -1.4927    1.1807    0.8647 C   0  0  1  0  0  0  0  0  0  0  0  0
   -2.3251    2.2503    1.0862 O   0  0  0  0  0  0  0  0  0  0  0  0
   -1.9289    0.3303   -0.3231 C   0  0  2  0  0  0  0  0  0  0  0  0
   -3.2698    0.0504   -0.3058 O   0  0  0  0  0  0  0  0  0  0  0  0
   -1.0125   -1.2953    0.7176 H   0  0  0  0  0  0  0  0  0  0  0  0
   -1.5907   -1.4754   -2.2990 H   0  0  0  0  0  0  0  0  0  0  0  0
   -0.8240   -2.7746   -1.3056 H   0  0  0  0  0  0  0  0  0  0  0  0
   -2.8457   -2.2705    0.0663 H   0  0  0  0  0  0  0  0  0  0  0  0
    0.5701   -0.2430    1.3607 H   0  0  0  0  0  0  0  0  0  0  0  0
    4.5624    1.0289   -0.4071 H   0  0  0  0  0  0  0  0  0  0  0  0
    4.7302   -0.5904   -1.1877 H   0  0  0  0  0  0  0  0  0  0  0  0
    4.9965   -0.4487    0.5822 H   0  0  0  0  0  0  0  0  0  0  0  0
    1.6895   -1.9414    0.4483 H   0  0  0  0  0  0  0  0  0  0  0  0
   -0.1332    2.0853   -0.4805 H   0  0  0  0  0  0  0  0  0  0  0  0
    0.5520    3.3449    1.1093 H   0  0  0  0  0  0  0  0  0  0  0  0
   -1.4516    0.5431    1.7833 H   0  0  0  0  0  0  0  0  0  0  0  0
   -3.0691    1.9305    1.6494 H   0  0  0  0  0  0  0  0  0  0  0  0
   -1.6478    0.9287   -1.2336 H   0  0  0  0  0  0  0  0  0  0  0  0
   -3.5770    0.0334   -1.2662 H   0  0  0  0  0  0  0  0  0  0  0  0
  1  2  1  0
  2  3  1  0
  1  4  1  0
  4  5  1  0
  5  6  1  0
  6  7  2  3
  7  8  1  0
  7  9  1  0
  5 10  1  0
 10 11  1  0
 10 12  1  0
 12 13  1  0
 12 14  1  0
 14 15  1  0
 14  1  1  0
  1 16  1  1
  2 17  1  0
  2 18  1  0
  3 19  1  0
  5 20  1  1
  8 21  1  0
  8 22  1  0
  8 23  1  0
  9 24  1  0
 10 25  1  6
 11 26  1  0
 12 27  1  1
 13 28  1  0
 14 29  1  6
 15 30  1  0
M  END
$$$$
