@<TRIPOS>MOLECULE
*****
 58 63 0 0 0
SMALL
GASTEIGER

@<TRIPOS>ATOM
      1 C          -2.1054   -2.3371   -2.0960 C.3     1  UNL1       -0.0349
      2 C          -2.8627   -2.2044   -0.7664 C.3     1  UNL1        0.1110
      3 C          -3.3835   -0.7977   -0.6355 C.2     1  UNL1        0.2407
      4 O          -4.1047   -0.3104   -1.5573 O.2     1  UNL1       -0.2731
      5 N          -3.1087    0.0207    0.4734 N.am    1  UNL1       -0.2825
      6 C          -3.5870    1.3498    0.6128 C.ar    1  UNL1        0.0519
      7 C          -4.8004    1.5948    1.2147 C.ar    1  UNL1       -0.0348
      8 C          -5.2853    2.9012    1.3583 C.ar    1  UNL1       -0.0055
      9 C          -4.5449    3.9668    0.8937 C.ar    1  UNL1        0.2133
     10 F          -4.9894    5.2637    1.0141 F       1  UNL1       -0.1839
     11 N          -3.3631    3.7037    0.3095 N.ar    1  UNL1       -0.2258
     12 C          -2.8785    2.4396    0.1626 C.ar    1  UNL1        0.0518
     13 C          -4.0334   -3.1318   -0.7979 C.3     1  UNL1       -0.0217
     14 C          -3.9149   -3.9884    0.4153 C.3     1  UNL1       -0.0347
     15 C          -2.7114   -3.5033    1.1534 C.3     1  UNL1        0.0160
     16 N          -2.0308   -2.5229    0.3445 N.pl3   1  UNL1       -0.2844
     17 C          -0.7501   -1.9942    0.6429 C.ar    1  UNL1        0.2385
     18 N          -0.2369   -1.0628   -0.1673 N.ar    1  UNL1       -0.1959
     19 C           0.9857   -0.4824    0.0199 C.ar    1  UNL1        0.1533
     20 N           1.4071    0.4822   -0.8951 N.pl3   1  UNL1       -0.2812
     21 C           2.6005    1.2072   -0.9381 C.ar    1  UNL1        0.1459
     22 C           3.8016    0.9555   -1.5809 C.ar    1  UNL1        0.0011
     23 C           4.6436    1.9937   -1.3021 C.ar    1  UNL1        0.0410
     24 C           6.0308    2.1386   -1.7830 C.3     1  UNL1        0.0009
     25 C           6.9987    2.8354   -0.8702 C.3     1  UNL1       -0.0442
     26 C           6.5019    3.5367   -2.0966 C.3     1  UNL1       -0.0442
     27 N           3.9696    2.8481   -0.5129 N.ar    1  UNL1       -0.2795
     28 N           2.7630    2.3962   -0.2903 N.ar    1  UNL1       -0.1584
     29 C           1.6800   -0.9198    1.1167 C.ar    1  UNL1        0.1055
     30 C           2.9165   -0.5590    1.6007 C.ar    1  UNL1       -0.0315
     31 C           3.1741   -1.2997    2.7561 C.ar    1  UNL1       -0.0415
     32 C           2.0694   -2.1013    2.9432 C.ar    1  UNL1        0.0300
     33 N           1.1794   -1.8698    1.9600 N.ar    1  UNL1       -0.2334
     34 N          -0.0053   -2.3709    1.6994 N.ar    1  UNL1       -0.1301
     35 H          -1.3893   -1.5039   -2.2020 H       1  UNL1        0.0255
     36 H          -2.8861   -2.2088   -2.8805 H       1  UNL1        0.0255
     37 H          -1.6852   -3.3411   -2.1632 H       1  UNL1        0.0255
     38 H          -2.5212   -0.3420    1.2612 H       1  UNL1        0.1549
     39 H          -5.3871    0.7759    1.5814 H       1  UNL1        0.0638
     40 H          -6.2398    3.1032    1.8311 H       1  UNL1        0.0663
     41 H          -1.9126    2.2569   -0.3173 H       1  UNL1        0.0849
     42 H          -4.9943   -2.5584   -0.8344 H       1  UNL1        0.0291
     43 H          -4.0202   -3.8025   -1.7022 H       1  UNL1        0.0291
     44 H          -3.8029   -5.0678    0.1833 H       1  UNL1        0.0281
     45 H          -4.8573   -3.9069    1.0271 H       1  UNL1        0.0281
     46 H          -3.0813   -3.0506    2.1194 H       1  UNL1        0.0465
     47 H          -2.0374   -4.3226    1.4794 H       1  UNL1        0.0465
     48 H           0.7337    0.7219   -1.6937 H       1  UNL1        0.1551
     49 H           4.0016    0.0890   -2.1835 H       1  UNL1        0.0670
     50 H           6.4273    1.3224   -2.4236 H       1  UNL1        0.0364
     51 H           6.6329    3.1752    0.1197 H       1  UNL1        0.0272
     52 H           8.0526    2.4924   -0.8775 H       1  UNL1        0.0272
     53 H           7.2250    3.6632   -2.9239 H       1  UNL1        0.0272
     54 H           5.7989    4.3825   -1.9560 H       1  UNL1        0.0272
     55 H           4.2992    3.7682   -0.0947 H       1  UNL1        0.1886
     56 H           3.5664    0.1736    1.1536 H       1  UNL1        0.0640
     57 H           4.0739   -1.2050    3.3255 H       1  UNL1        0.0633
     58 H           1.9777   -2.7928    3.7688 H       1  UNL1        0.0830
@<TRIPOS>BOND
     1     2     1    1
     2     2     3    1
     3     3     4    2
     4     3     5   am
     5     5     6    1
     6     6     7   ar
     7     7     8   ar
     8     8     9   ar
     9     9    10    1
    10     9    11   ar
    11    11    12   ar
    12     2    13    1
    13    13    14    1
    14    14    15    1
    15    15    16    1
    16    16    17    1
    17    17    18   ar
    18    18    19   ar
    19    19    20    1
    20    20    21    1
    21    21    22   ar
    22    22    23   ar
    23    23    24    1
    24    24    25    1
    25    25    26    1
    26    23    27   ar
    27    27    28   ar
    28    19    29   ar
    29    29    30   ar
    30    30    31   ar
    31    31    32   ar
    32    32    33   ar
    33    33    34   ar
    34    16     2    1
    35    34    17   ar
    36    12     6   ar
    37    28    21   ar
    38    33    29   ar
    39    26    24    1
    40     1    35    1
    41     1    36    1
    42     1    37    1
    43     5    38    1
    44     7    39    1
    45     8    40    1
    46    12    41    1
    47    13    42    1
    48    13    43    1
    49    14    44    1
    50    14    45    1
    51    15    46    1
    52    15    47    1
    53    20    48    1
    54    22    49    1
    55    24    50    1
    56    25    51    1
    57    25    52    1
    58    26    53    1
    59    26    54    1
    60    27    55    1
    61    30    56    1
    62    31    57    1
    63    32    58    1
