
     RDKit          3D

 58 63  0  0  0  0  0  0  0  0999 V2000
   -2.1054   -2.3371   -2.0960 C   0  0  0  0  0  0  0  0  0  0  0  0
   -2.8627   -2.2044   -0.7664 C   0  0  1  0  0  0  0  0  0  0  0  0
   -3.3835   -0.7977   -0.6355 C   0  0  0  0  0  0  0  0  0  0  0  0
   -4.1047   -0.3104   -1.5573 O   0  0  0  0  0  0  0  0  0  0  0  0
   -3.1087    0.0207    0.4734 N   0  0  0  0  0  0  0  0  0  0  0  0
   -3.5870    1.3498    0.6128 C   0  0  0  0  0  0  0  0  0  0  0  0
   -4.8004    1.5948    1.2147 C   0  0  0  0  0  0  0  0  0  0  0  0
   -5.2853    2.9012    1.3583 C   0  0  0  0  0  0  0  0  0  0  0  0
   -4.5449    3.9668    0.8937 C   0  0  0  0  0  0  0  0  0  0  0  0
   -4.9894    5.2637    1.0141 F   0  0  0  0  0  0  0  0  0  0  0  0
   -3.3631    3.7037    0.3095 N   0  0  0  0  0  0  0  0  0  0  0  0
   -2.8785    2.4396    0.1626 C   0  0  0  0  0  0  0  0  0  0  0  0
   -4.0334   -3.1318   -0.7979 C   0  0  0  0  0  0  0  0  0  0  0  0
   -3.9149   -3.9884    0.4153 C   0  0  0  0  0  0  0  0  0  0  0  0
   -2.7114   -3.5033    1.1534 C   0  0  0  0  0  0  0  0  0  0  0  0
   -2.0308   -2.5229    0.3445 N   0  0  0  0  0  0  0  0  0  0  0  0
   -0.7501   -1.9942    0.6429 C   0  0  0  0  0  0  0  0  0  0  0  0
   -0.2369   -1.0628   -0.1673 N   0  0  0  0  0  0  0  0  0  0  0  0
    0.9857   -0.4824    0.0199 C   0  0  0  0  0  0  0  0  0  0  0  0
    1.4071    0.4822   -0.8951 N   0  0  0  0  0  0  0  0  0  0  0  0
    2.6005    1.2072   -0.9381 C   0  0  0  0  0  0  0  0  0  0  0  0
    3.8016    0.9555   -1.5809 C   0  0  0  0  0  0  0  0  0  0  0  0
    4.6436    1.9937   -1.3021 C   0  0  0  0  0  0  0  0  0  0  0  0
    6.0308    2.1386   -1.7830 C   0  0  0  0  0  0  0  0  0  0  0  0
    6.9987    2.8354   -0.8702 C   0  0  0  0  0  0  0  0  0  0  0  0
    6.5019    3.5367   -2.0966 C   0  0  0  0  0  0  0  0  0  0  0  0
    3.9696    2.8481   -0.5129 N   0  0  0  0  0  0  0  0  0  0  0  0
    2.7630    2.3962   -0.2903 N   0  0  0  0  0  0  0  0  0  0  0  0
    1.6800   -0.9198    1.1167 C   0  0  0  0  0  0  0  0  0  0  0  0
    2.9165   -0.5590    1.6007 C   0  0  0  0  0  0  0  0  0  0  0  0
    3.1741   -1.2997    2.7561 C   0  0  0  0  0  0  0  0  0  0  0  0
    2.0694   -2.1013    2.9432 C   0  0  0  0  0  0  0  0  0  0  0  0
    1.1794   -1.8698    1.9600 N   0  0  0  0  0  0  0  0  0  0  0  0
   -0.0053   -2.3709    1.6994 N   0  0  0  0  0  0  0  0  0  0  0  0
   -1.3893   -1.5039   -2.2020 H   0  0  0  0  0  0  0  0  0  0  0  0
   -2.8861   -2.2088   -2.8805 H   0  0  0  0  0  0  0  0  0  0  0  0
   -1.6852   -3.3411   -2.1632 H   0  0  0  0  0  0  0  0  0  0  0  0
   -2.5212   -0.3420    1.2612 H   0  0  0  0  0  0  0  0  0  0  0  0
   -5.3871    0.7759    1.5814 H   0  0  0  0  0  0  0  0  0  0  0  0
   -6.2398    3.1032    1.8311 H   0  0  0  0  0  0  0  0  0  0  0  0
   -1.9126    2.2569   -0.3173 H   0  0  0  0  0  0  0  0  0  0  0  0
   -4.9943   -2.5584   -0.8344 H   0  0  0  0  0  0  0  0  0  0  0  0
   -4.0202   -3.8025   -1.7022 H   0  0  0  0  0  0  0  0  0  0  0  0
   -3.8029   -5.0678    0.1833 H   0  0  0  0  0  0  0  0  0  0  0  0
   -4.8573   -3.9069    1.0271 H   0  0  0  0  0  0  0  0  0  0  0  0
   -3.0813   -3.0506    2.1194 H   0  0  0  0  0  0  0  0  0  0  0  0
   -2.0374   -4.3226    1.4794 H   0  0  0  0  0  0  0  0  0  0  0  0
    0.7337    0.7219   -1.6937 H   0  0  0  0  0  0  0  0  0  0  0  0
    4.0016    0.0890   -2.1835 H   0  0  0  0  0  0  0  0  0  0  0  0
    6.4273    1.3224   -2.4236 H   0  0  0  0  0  0  0  0  0  0  0  0
    6.6329    3.1752    0.1197 H   0  0  0  0  0  0  0  0  0  0  0  0
    8.0526    2.4924   -0.8775 H   0  0  0  0  0  0  0  0  0  0  0  0
    7.2250    3.6632   -2.9239 H   0  0  0  0  0  0  0  0  0  0  0  0
    5.7989    4.3825   -1.9560 H   0  0  0  0  0  0  0  0  0  0  0  0
    4.2992    3.7682   -0.0947 H   0  0  0  0  0  0  0  0  0  0  0  0
    3.5664    0.1736    1.1536 H   0  0  0  0  0  0  0  0  0  0  0  0
    4.0739   -1.2050    3.3255 H   0  0  0  0  0  0  0  0  0  0  0  0
    1.9777   -2.7928    3.7688 H   0  0  0  0  0  0  0  0  0  0  0  0
  2  1  1  6
  2  3  1  0
  3  4  2  0
  3  5  1  0
  5  6  1  0
  6  7  2  0
  7  8  1  0
  8  9  2  0
  9 10  1  0
  9 11  1  0
 11 12  2  0
  2 13  1  0
 13 14  1  0
 14 15  1  0
 15 16  1  0
 16 17  1  0
 17 18  1  0
 18 19  2  0
 19 20  1  0
 20 21  1  0
 21 22  1  0
 22 23  2  0
 23 24  1  0
 24 25  1  0
 25 26  1  0
 23 27  1  0
 27 28  1  0
 19 29  1  0
 29 30  2  0
 30 31  1  0
 31 32  2  0
 32 33  1  0
 33 34  1  0
 16  2  1  0
 34 17  2  0
 12  6  1  0
 28 21  2  0
 33 29  1  0
 26 24  1  0
  1 35  1  0
  1 36  1  0
  1 37  1  0
  5 38  1  0
  7 39  1  0
  8 40  1  0
 12 41  1  0
 13 42  1  0
 13 43  1  0
 14 44  1  0
 14 45  1  0
 15 46  1  0
 15 47  1  0
 20 48  1  0
 22 49  1  0
 24 50  1  0
 25 51  1  0
 25 52  1  0
 26 53  1  0
 26 54  1  0
 27 55  1  0
 30 56  1  0
 31 57  1  0
 32 58  1  0
M  END
$$$$
