@<TRIPOS>MOLECULE
*****
 117 122 0 0 0
SMALL
GASTEIGER

@<TRIPOS>ATOM
      1 C          -2.6476   -0.1472    0.3963 C.3     1  UNL1        0.0580
      2 C          -2.5402    1.2442    0.8519 C.3     1  UNL1        0.1404
      3 O          -3.5448    2.0359    0.2580 O.3     1  UNL1       -0.4545
      4 C          -4.4602    2.7358    0.9790 C.2     1  UNL1        0.3395
      5 O          -4.6227    2.8450    2.2020 O.2     1  UNL1       -0.2449
      6 C          -5.4500    3.5131    0.2216 C.ar    1  UNL1        0.0590
      7 C          -5.4608    3.5602   -1.1542 C.ar    1  UNL1       -0.0478
      8 C          -6.3028    4.2235   -1.9915 C.ar    1  UNL1       -0.0610
      9 C          -7.2950    4.9589   -1.3507 C.ar    1  UNL1       -0.0617
     10 C          -7.3809    4.9850    0.0230 C.ar    1  UNL1       -0.0610
     11 C          -6.4795    4.2785    0.7902 C.ar    1  UNL1       -0.0478
     12 C          -1.1793    1.9209    0.8241 C.3     1  UNL1        0.1156
     13 O          -1.5100    3.2730    0.9222 O.3     1  UNL1       -0.3839
     14 C          -0.3097    1.6075   -0.3240 C.3     1  UNL1        0.0215
     15 C           1.0709    1.0573   -0.0353 C.3     1  UNL1        0.1271
     16 O           1.5106    0.3033   -1.1833 O.3     1  UNL1       -0.4550
     17 C           2.5873    0.6179   -1.9565 C.2     1  UNL1        0.3388
     18 O           3.2323    1.6481   -1.6300 O.2     1  UNL1       -0.2478
     19 C           2.9275   -0.2661   -3.1264 C.3     1  UNL1        0.1741
     20 O           2.0871   -1.3711   -3.1311 O.3     1  UNL1       -0.3786
     21 C           4.3498   -0.7343   -2.9131 C.3     1  UNL1        0.0878
     22 N           4.5327   -1.4246   -1.6548 N.am    1  UNL1       -0.2712
     23 C           5.3919   -0.8441   -0.6983 C.2     1  UNL1        0.4013
     24 O           5.9951    0.2533   -0.9161 O.2     1  UNL1       -0.2264
     25 O           5.8154   -1.1867    0.5828 O.3     1  UNL1       -0.4447
     26 C           6.7072   -0.3850    1.3188 C.3     1  UNL1        0.1068
     27 C           6.1996    1.0080    1.5860 C.3     1  UNL1       -0.0253
     28 C           6.9262   -1.0706    2.6473 C.3     1  UNL1       -0.0253
     29 C           8.0581   -0.2397    0.6461 C.3     1  UNL1       -0.0253
     30 C           4.7915   -1.6221   -4.0317 C.ar    1  UNL1       -0.0241
     31 C           5.5831   -1.3191   -5.1248 C.ar    1  UNL1       -0.0567
     32 C           5.8688   -2.2965   -6.0514 C.ar    1  UNL1       -0.0614
     33 C           5.3817   -3.5771   -5.9138 C.ar    1  UNL1       -0.0617
     34 C           4.5935   -3.8723   -4.8223 C.ar    1  UNL1       -0.0614
     35 C           4.2913   -2.9074   -3.8761 C.ar    1  UNL1       -0.0567
     36 C           1.0815    0.0900    1.0863 C.2     1  UNL1       -0.0299
     37 C           1.9272   -1.1044    1.3502 C.3     1  UNL1       -0.0400
     38 C           0.1648    0.3274    2.0126 C.2     1  UNL1       -0.0231
     39 C          -0.1882   -0.8679    2.8020 C.3     1  UNL1        0.1387
     40 O          -0.2634   -0.6421    4.1698 O.3     1  UNL1       -0.3679
     41 C           0.3897   -1.6747    4.8287 C.3     1  UNL1        0.0378
     42 C          -1.5869   -1.1949    2.3051 C.2     1  UNL1        0.1747
     43 O          -1.8648   -2.0662    3.1116 O.2     1  UNL1       -0.2936
     44 C          -2.8755   -1.1673    1.4777 C.3     1  UNL1        0.0653
     45 C          -3.9313   -0.7848    2.4900 C.3     1  UNL1       -0.0498
     46 C          -3.0236   -2.5680    0.9865 C.3     1  UNL1        0.0734
     47 C          -2.8994   -2.7584   -0.4888 C.3     1  UNL1        0.0046
     48 C          -3.5869   -1.7100   -1.3127 C.3     1  UNL1        0.1035
     49 O          -4.9383   -1.7784   -1.2569 O.3     1  UNL1       -0.3684
     50 C          -5.0016   -0.6065   -0.5773 C.3     1  UNL1        0.0909
     51 C          -3.6021   -0.3527   -0.7857 C.3     1  UNL1        0.1696
     52 O          -3.2571    0.5197   -1.8524 O.3     1  UNL1       -0.4528
     53 C          -3.9214    0.5669   -3.0395 C.2     1  UNL1        0.3046
     54 C          -3.4768    1.5185   -4.0944 C.3     1  UNL1        0.0333
     55 O          -4.8957   -0.1524   -3.2978 O.2     1  UNL1       -0.2511
     56 O          -4.2351   -3.0399    1.4841 O.3     1  UNL1       -0.3787
     57 C          -4.2062   -4.1084    2.3138 C.3     1  UNL1        0.0368
     58 C          -0.4165    1.7092    2.1446 C.3     1  UNL1        0.0217
     59 C           0.7251    2.6544    2.3188 C.3     1  UNL1       -0.0532
     60 C          -1.3086    1.8935    3.3211 C.3     1  UNL1       -0.0532
     61 H          -1.6588   -0.4924   -0.0767 H       1  UNL1        0.0388
     62 H          -2.7714    1.3241    1.9273 H       1  UNL1        0.0768
     63 H          -4.6733    2.9768   -1.6386 H       1  UNL1        0.0626
     64 H          -6.2364    4.2026   -3.0541 H       1  UNL1        0.0618
     65 H          -8.0316    5.5335   -1.8848 H       1  UNL1        0.0618
     66 H          -8.1181    5.5277    0.6030 H       1  UNL1        0.0618
     67 H          -6.5236    4.2797    1.8912 H       1  UNL1        0.0626
     68 H          -1.0978    3.7809    1.6233 H       1  UNL1        0.2104
     69 H          -0.0990    2.5941   -0.8434 H       1  UNL1        0.0334
     70 H          -0.7147    0.9817   -1.1172 H       1  UNL1        0.0334
     71 H           1.8279    1.8607    0.0436 H       1  UNL1        0.0783
     72 H           2.8301    0.3279   -4.0585 H       1  UNL1        0.0733
     73 H           2.0238   -1.7416   -2.2130 H       1  UNL1        0.2106
     74 H           4.9632    0.1909   -2.8718 H       1  UNL1        0.0581
     75 H           4.1526   -2.3122   -1.2642 H       1  UNL1        0.1527
     76 H           6.6975    1.3426    2.5398 H       1  UNL1        0.0268
     77 H           5.1105    1.0197    1.8339 H       1  UNL1        0.0268
     78 H           6.4532    1.7494    0.8253 H       1  UNL1        0.0268
     79 H           7.9673   -0.8354    2.9998 H       1  UNL1        0.0268
     80 H           6.2580   -0.7020    3.4416 H       1  UNL1        0.0268
     81 H           6.8892   -2.1882    2.5258 H       1  UNL1        0.0268
     82 H           8.3416   -1.1045    0.0394 H       1  UNL1        0.0268
     83 H           8.8182   -0.1178    1.4431 H       1  UNL1        0.0268
     84 H           8.0697    0.7214    0.0702 H       1  UNL1        0.0268
     85 H           5.9037   -0.2872   -5.1214 H       1  UNL1        0.0621
     86 H           6.4983   -1.9635   -6.8753 H       1  UNL1        0.0618
     87 H           5.6615   -4.2692   -6.6903 H       1  UNL1        0.0618
     88 H           4.2565   -4.9173   -4.8068 H       1  UNL1        0.0618
     89 H           3.6663   -3.3212   -3.1004 H       1  UNL1        0.0621
     90 H           2.8289   -0.9522    0.6806 H       1  UNL1        0.0276
     91 H           1.4895   -2.0492    0.9678 H       1  UNL1        0.0276
     92 H           2.3313   -1.1310    2.3563 H       1  UNL1        0.0276
     93 H           0.3757   -1.7714    2.6247 H       1  UNL1        0.0723
     94 H          -0.0690   -2.6699    4.5950 H       1  UNL1        0.0524
     95 H           0.3215   -1.5727    5.9332 H       1  UNL1        0.0524
     96 H           1.4321   -1.7091    4.4724 H       1  UNL1        0.0524
     97 H          -3.5313   -0.6928    3.5462 H       1  UNL1        0.0240
     98 H          -4.7054   -1.5991    2.6286 H       1  UNL1        0.0240
     99 H          -4.4027    0.1912    2.3310 H       1  UNL1        0.0240
    100 H          -2.2683   -3.2278    1.4538 H       1  UNL1        0.0606
    101 H          -1.8241   -2.7199   -0.7642 H       1  UNL1        0.0317
    102 H          -3.2128   -3.7585   -0.8349 H       1  UNL1        0.0317
    103 H          -3.2929   -1.8265   -2.4152 H       1  UNL1        0.0638
    104 H          -5.3725   -0.8416    0.4426 H       1  UNL1        0.0601
    105 H          -5.7487    0.1466   -0.9629 H       1  UNL1        0.0601
    106 H          -2.7576    2.2267   -3.6659 H       1  UNL1        0.0342
    107 H          -4.3906    2.0079   -4.5052 H       1  UNL1        0.0342
    108 H          -3.0502    0.9062   -4.9164 H       1  UNL1        0.0342
    109 H          -5.2914   -4.3210    2.5824 H       1  UNL1        0.0524
    110 H          -3.8840   -5.0634    1.8002 H       1  UNL1        0.0524
    111 H          -3.7273   -3.9961    3.2929 H       1  UNL1        0.0524
    112 H           1.7137    2.1140    2.4192 H       1  UNL1        0.0239
    113 H           0.8769    3.4118    1.5605 H       1  UNL1        0.0239
    114 H           0.6920    3.2344    3.2920 H       1  UNL1        0.0239
    115 H          -0.7056    2.2392    4.2153 H       1  UNL1        0.0239
    116 H          -1.9839    2.7519    3.1251 H       1  UNL1        0.0239
    117 H          -1.8350    1.0029    3.6923 H       1  UNL1        0.0239
@<TRIPOS>BOND
     1     1     2    1
     2     2     3    1
     3     3     4    1
     4     4     5    2
     5     4     6    1
     6     6     7   ar
     7     7     8   ar
     8     8     9   ar
     9     9    10   ar
    10    10    11   ar
    11     2    12    1
    12    12    13    1
    13    12    14    1
    14    14    15    1
    15    15    16    1
    16    16    17    1
    17    17    18    2
    18    17    19    1
    19    19    20    1
    20    19    21    1
    21    21    22    1
    22    22    23   am
    23    23    24    2
    24    23    25    1
    25    25    26    1
    26    26    27    1
    27    26    28    1
    28    26    29    1
    29    21    30    1
    30    30    31   ar
    31    31    32   ar
    32    32    33   ar
    33    33    34   ar
    34    34    35   ar
    35    15    36    1
    36    36    37    1
    37    36    38    2
    38    38    39    1
    39    39    40    1
    40    40    41    1
    41    39    42    1
    42    42    43    2
    43    42    44    1
    44    44    45    1
    45    44    46    1
    46    46    47    1
    47    47    48    1
    48    48    49    1
    49    49    50    1
    50    50    51    1
    51    51    52    1
    52    52    53    1
    53    53    54    1
    54    53    55    2
    55    46    56    1
    56    56    57    1
    57    38    58    1
    58    58    59    1
    59    58    60    1
    60    44     1    1
    61    51    48    1
    62    51     1    1
    63    11     6   ar
    64    58    12    1
    65    35    30   ar
    66     1    61    1
    67     2    62    1
    68     7    63    1
    69     8    64    1
    70     9    65    1
    71    10    66    1
    72    11    67    1
    73    13    68    1
    74    14    69    1
    75    14    70    1
    76    15    71    1
    77    19    72    1
    78    20    73    1
    79    21    74    1
    80    22    75    1
    81    27    76    1
    82    27    77    1
    83    27    78    1
    84    28    79    1
    85    28    80    1
    86    28    81    1
    87    29    82    1
    88    29    83    1
    89    29    84    1
    90    31    85    1
    91    32    86    1
    92    33    87    1
    93    34    88    1
    94    35    89    1
    95    37    90    1
    96    37    91    1
    97    37    92    1
    98    39    93    1
    99    41    94    1
   100    41    95    1
   101    41    96    1
   102    45    97    1
   103    45    98    1
   104    45    99    1
   105    46   100    1
   106    47   101    1
   107    47   102    1
   108    48   103    1
   109    50   104    1
   110    50   105    1
   111    54   106    1
   112    54   107    1
   113    54   108    1
   114    57   109    1
   115    57   110    1
   116    57   111    1
   117    59   112    1
   118    59   113    1
   119    59   114    1
   120    60   115    1
   121    60   116    1
   122    60   117    1
