@<TRIPOS>MOLECULE
*****
 53 55 0 0 0
SMALL
GASTEIGER

@<TRIPOS>ATOM
      1 O           2.3768    3.2428    4.6294 O.2     1  UNL1       -0.2492
      2 C           2.3476    2.2153    3.8885 C.2     1  UNL1        0.3236
      3 O           3.2797    1.2376    4.1792 O.3     1  UNL1       -0.4795
      4 C           1.3659    2.0709    2.7740 C.3     1  UNL1        0.1261
      5 C           2.0984    2.1020    1.4556 C.3     1  UNL1       -0.0166
      6 C           3.1147    1.0091    1.3053 C.3     1  UNL1       -0.0040
      7 S           2.2909   -0.5934    1.4455 S.3     1  UNL1       -0.1560
      8 C           1.1817   -0.7930    0.0156 C.3     1  UNL1        0.0188
      9 C           2.0812   -0.8772   -1.1849 C.ar    1  UNL1       -0.0376
     10 C           2.4507    0.2137   -1.9183 C.ar    1  UNL1       -0.0578
     11 C           3.2890    0.0275   -2.9986 C.ar    1  UNL1       -0.0615
     12 C           3.7529   -1.2266   -3.3439 C.ar    1  UNL1       -0.0617
     13 C           3.3707   -2.3172   -2.5936 C.ar    1  UNL1       -0.0615
     14 C           2.5298   -2.1342   -1.5091 C.ar    1  UNL1       -0.0578
     15 N           0.4570    3.2109    2.7529 N.3     1  UNL1       -0.1761
     16 S          -1.1546    2.7464    3.0203 S.O2    1  UNL1        0.0591
     17 O          -1.9956    4.0063    3.0395 O.2     1  UNL1       -0.1530
     18 O          -1.3143    2.1557    4.4140 O.2     1  UNL1       -0.1530
     19 C          -1.7564    1.6596    1.7902 C.ar    1  UNL1        0.1053
     20 C          -2.3728    2.1556    0.6411 C.ar    1  UNL1       -0.0348
     21 C          -2.8643    1.3219   -0.3499 C.ar    1  UNL1       -0.0522
     22 C          -2.7616   -0.0452   -0.2366 C.ar    1  UNL1       -0.0178
     23 C          -3.2873   -0.9314   -1.2952 C.ar    1  UNL1       -0.0178
     24 C          -4.3956   -0.5237   -2.0062 C.ar    1  UNL1       -0.0530
     25 C          -4.9358   -1.2981   -3.0048 C.ar    1  UNL1       -0.0472
     26 C          -4.3306   -2.5106   -3.2799 C.ar    1  UNL1        0.0179
     27 BR         -5.0906   -3.5882   -4.6752 Br      1  UNL1       -0.0503
     28 C          -3.2148   -2.9357   -2.5741 C.ar    1  UNL1       -0.0472
     29 C          -2.7111   -2.1320   -1.5883 C.ar    1  UNL1       -0.0530
     30 C          -2.1559   -0.5460    0.8916 C.ar    1  UNL1       -0.0522
     31 C          -1.6659    0.2874    1.8799 C.ar    1  UNL1       -0.0348
     32 H           4.2539    1.4659    4.4045 H       1  UNL1        0.2951
     33 H           0.8350    1.1267    2.9471 H       1  UNL1        0.0593
     34 H           1.3506    2.0340    0.6377 H       1  UNL1        0.0294
     35 H           2.5740    3.1240    1.3991 H       1  UNL1        0.0294
     36 H           3.9504    1.0891    2.0143 H       1  UNL1        0.0377
     37 H           3.5450    1.1423    0.2612 H       1  UNL1        0.0377
     38 H           0.5059    0.0902   -0.0551 H       1  UNL1        0.0425
     39 H           0.6390   -1.7453    0.1628 H       1  UNL1        0.0425
     40 H           2.0744    1.1854   -1.6291 H       1  UNL1        0.0621
     41 H           3.5954    0.8675   -3.5937 H       1  UNL1        0.0618
     42 H           4.4182   -1.3575   -4.2045 H       1  UNL1        0.0618
     43 H           3.7464   -3.2914   -2.8816 H       1  UNL1        0.0618
     44 H           2.2440   -3.0137   -0.9342 H       1  UNL1        0.0621
     45 H           0.5951    3.8313    1.9498 H       1  UNL1        0.1489
     46 H          -2.4501    3.2349    0.5582 H       1  UNL1        0.0637
     47 H          -3.3430    1.7356   -1.2386 H       1  UNL1        0.0624
     48 H          -4.8420    0.4466   -1.7523 H       1  UNL1        0.0624
     49 H          -5.8205   -0.9744   -3.5737 H       1  UNL1        0.0629
     50 H          -2.7644   -3.8796   -2.8071 H       1  UNL1        0.0629
     51 H          -1.8288   -2.4127   -0.9930 H       1  UNL1        0.0624
     52 H          -2.0725   -1.6356    0.9844 H       1  UNL1        0.0624
     53 H          -1.1854   -0.1245    2.7798 H       1  UNL1        0.0637
@<TRIPOS>BOND
     1     1     2    2
     2     2     3    1
     3     2     4    1
     4     4     5    1
     5     5     6    1
     6     6     7    1
     7     7     8    1
     8     8     9    1
     9     9    10   ar
    10    10    11   ar
    11    11    12   ar
    12    12    13   ar
    13    13    14   ar
    14     4    15    1
    15    15    16    1
    16    16    17    2
    17    16    18    2
    18    16    19    1
    19    19    20   ar
    20    20    21   ar
    21    21    22   ar
    22    22    23    1
    23    23    24   ar
    24    24    25   ar
    25    25    26   ar
    26    26    27    1
    27    26    28   ar
    28    28    29   ar
    29    22    30   ar
    30    30    31   ar
    31    14     9   ar
    32    31    19   ar
    33    29    23   ar
    34     3    32    1
    35     4    33    1
    36     5    34    1
    37     5    35    1
    38     6    36    1
    39     6    37    1
    40     8    38    1
    41     8    39    1
    42    10    40    1
    43    11    41    1
    44    12    42    1
    45    13    43    1
    46    14    44    1
    47    15    45    1
    48    20    46    1
    49    21    47    1
    50    24    48    1
    51    25    49    1
    52    28    50    1
    53    29    51    1
    54    30    52    1
    55    31    53    1
