
     RDKit          3D

 53 55  0  0  0  0  0  0  0  0999 V2000
    2.3768    3.2428    4.6294 O   0  0  0  0  0  0  0  0  0  0  0  0
    2.3476    2.2153    3.8885 C   0  0  0  0  0  0  0  0  0  0  0  0
    3.2797    1.2376    4.1792 O   0  0  0  0  0  0  0  0  0  0  0  0
    1.3659    2.0709    2.7740 C   0  0  0  0  0  0  0  0  0  0  0  0
    2.0984    2.1020    1.4556 C   0  0  0  0  0  0  0  0  0  0  0  0
    3.1147    1.0091    1.3053 C   0  0  0  0  0  0  0  0  0  0  0  0
    2.2909   -0.5934    1.4455 S   0  0  0  0  0  0  0  0  0  0  0  0
    1.1817   -0.7930    0.0156 C   0  0  0  0  0  0  0  0  0  0  0  0
    2.0812   -0.8772   -1.1849 C   0  0  0  0  0  0  0  0  0  0  0  0
    2.4507    0.2137   -1.9183 C   0  0  0  0  0  0  0  0  0  0  0  0
    3.2890    0.0275   -2.9986 C   0  0  0  0  0  0  0  0  0  0  0  0
    3.7529   -1.2266   -3.3439 C   0  0  0  0  0  0  0  0  0  0  0  0
    3.3707   -2.3172   -2.5936 C   0  0  0  0  0  0  0  0  0  0  0  0
    2.5298   -2.1342   -1.5091 C   0  0  0  0  0  0  0  0  0  0  0  0
    0.4570    3.2109    2.7529 N   0  0  0  0  0  0  0  0  0  0  0  0
   -1.1546    2.7464    3.0203 S   0  0  0  0  0  6  0  0  0  0  0  0
   -1.9956    4.0063    3.0395 O   0  0  0  0  0  0  0  0  0  0  0  0
   -1.3143    2.1557    4.4140 O   0  0  0  0  0  0  0  0  0  0  0  0
   -1.7564    1.6596    1.7902 C   0  0  0  0  0  0  0  0  0  0  0  0
   -2.3728    2.1556    0.6411 C   0  0  0  0  0  0  0  0  0  0  0  0
   -2.8643    1.3219   -0.3499 C   0  0  0  0  0  0  0  0  0  0  0  0
   -2.7616   -0.0452   -0.2366 C   0  0  0  0  0  0  0  0  0  0  0  0
   -3.2873   -0.9314   -1.2952 C   0  0  0  0  0  0  0  0  0  0  0  0
   -4.3956   -0.5237   -2.0062 C   0  0  0  0  0  0  0  0  0  0  0  0
   -4.9358   -1.2981   -3.0048 C   0  0  0  0  0  0  0  0  0  0  0  0
   -4.3306   -2.5106   -3.2799 C   0  0  0  0  0  0  0  0  0  0  0  0
   -5.0906   -3.5882   -4.6752 Br  0  0  0  0  0  0  0  0  0  0  0  0
   -3.2148   -2.9357   -2.5741 C   0  0  0  0  0  0  0  0  0  0  0  0
   -2.7111   -2.1320   -1.5883 C   0  0  0  0  0  0  0  0  0  0  0  0
   -2.1559   -0.5460    0.8916 C   0  0  0  0  0  0  0  0  0  0  0  0
   -1.6659    0.2874    1.8799 C   0  0  0  0  0  0  0  0  0  0  0  0
    4.2539    1.4659    4.4045 H   0  0  0  0  0  0  0  0  0  0  0  0
    0.8350    1.1267    2.9471 H   0  0  0  0  0  0  0  0  0  0  0  0
    1.3506    2.0340    0.6377 H   0  0  0  0  0  0  0  0  0  0  0  0
    2.5740    3.1240    1.3991 H   0  0  0  0  0  0  0  0  0  0  0  0
    3.9504    1.0891    2.0143 H   0  0  0  0  0  0  0  0  0  0  0  0
    3.5450    1.1423    0.2612 H   0  0  0  0  0  0  0  0  0  0  0  0
    0.5059    0.0902   -0.0551 H   0  0  0  0  0  0  0  0  0  0  0  0
    0.6390   -1.7453    0.1628 H   0  0  0  0  0  0  0  0  0  0  0  0
    2.0744    1.1854   -1.6291 H   0  0  0  0  0  0  0  0  0  0  0  0
    3.5954    0.8675   -3.5937 H   0  0  0  0  0  0  0  0  0  0  0  0
    4.4182   -1.3575   -4.2045 H   0  0  0  0  0  0  0  0  0  0  0  0
    3.7464   -3.2914   -2.8816 H   0  0  0  0  0  0  0  0  0  0  0  0
    2.2440   -3.0137   -0.9342 H   0  0  0  0  0  0  0  0  0  0  0  0
    0.5951    3.8313    1.9498 H   0  0  0  0  0  0  0  0  0  0  0  0
   -2.4501    3.2349    0.5582 H   0  0  0  0  0  0  0  0  0  0  0  0
   -3.3430    1.7356   -1.2386 H   0  0  0  0  0  0  0  0  0  0  0  0
   -4.8420    0.4466   -1.7523 H   0  0  0  0  0  0  0  0  0  0  0  0
   -5.8205   -0.9744   -3.5737 H   0  0  0  0  0  0  0  0  0  0  0  0
   -2.7644   -3.8796   -2.8071 H   0  0  0  0  0  0  0  0  0  0  0  0
   -1.8288   -2.4127   -0.9930 H   0  0  0  0  0  0  0  0  0  0  0  0
   -2.0725   -1.6356    0.9844 H   0  0  0  0  0  0  0  0  0  0  0  0
   -1.1854   -0.1245    2.7798 H   0  0  0  0  0  0  0  0  0  0  0  0
  1  2  2  0
  2  3  1  0
  2  4  1  0
  4  5  1  0
  5  6  1  0
  6  7  1  0
  7  8  1  0
  8  9  1  0
  9 10  2  0
 10 11  1  0
 11 12  2  0
 12 13  1  0
 13 14  2  0
  4 15  1  0
 15 16  1  0
 16 17  2  0
 16 18  2  0
 16 19  1  0
 19 20  2  0
 20 21  1  0
 21 22  2  0
 22 23  1  0
 23 24  2  0
 24 25  1  0
 25 26  2  0
 26 27  1  0
 26 28  1  0
 28 29  2  0
 22 30  1  0
 30 31  2  0
 14  9  1  0
 31 19  1  0
 29 23  1  0
  3 32  1  0
  4 33  1  0
  5 34  1  0
  5 35  1  0
  6 36  1  0
  6 37  1  0
  8 38  1  0
  8 39  1  0
 10 40  1  0
 11 41  1  0
 12 42  1  0
 13 43  1  0
 14 44  1  0
 15 45  1  0
 20 46  1  0
 21 47  1  0
 24 48  1  0
 25 49  1  0
 28 50  1  0
 29 51  1  0
 30 52  1  0
 31 53  1  0
M  END
$$$$
