@<TRIPOS>MOLECULE
*****
 77 81 0 0 0
SMALL
GASTEIGER

@<TRIPOS>ATOM
      1 C          -3.4691    2.7113   -3.9490 C.3     1  UNL1       -0.0470
      2 C          -4.3656    1.5280   -3.6761 C.3     1  UNL1        0.0219
      3 N          -4.9311    1.5818   -2.3420 N.ar    1  UNL1       -0.3303
      4 C          -6.1057    2.1767   -1.9999 C.ar    1  UNL1        0.0971
      5 N          -6.2372    1.9867   -0.6717 N.ar    1  UNL1       -0.2339
      6 C          -5.1975    1.3019   -0.1793 C.ar    1  UNL1        0.1103
      7 C          -4.9018    0.8781    1.1102 C.ar    1  UNL1        0.0644
      8 N          -5.7868    1.1646    2.1844 N.am    1  UNL1       -0.2694
      9 C          -7.0333    1.8982    2.0578 C.3     1  UNL1        0.0203
     10 C          -7.5108    2.1938    3.4397 C.3     1  UNL1       -0.0285
     11 C          -6.3829    1.8260    4.3834 C.3     1  UNL1        0.0259
     12 C          -5.6470    0.8118    3.5453 C.2     1  UNL1        0.2199
     13 O          -5.0233   -0.1702    3.9965 O.2     1  UNL1       -0.2753
     14 C          -3.7262    0.1830    1.2667 C.ar    1  UNL1       -0.0260
     15 C          -2.8527   -0.1011    0.2165 C.ar    1  UNL1        0.0405
     16 C          -1.6158   -0.8571    0.4974 C.2     1  UNL1        0.2445
     17 O          -1.3810   -1.2324    1.6592 O.2     1  UNL1       -0.2702
     18 N          -0.7064   -1.1545   -0.5324 N.am    1  UNL1       -0.3057
     19 C           0.5174   -1.9192   -0.1784 C.3     1  UNL1        0.0545
     20 C           0.4261   -3.1709   -1.0273 C.3     1  UNL1       -0.0067
     21 C           1.5030   -4.1348   -0.8989 C.ar    1  UNL1       -0.0455
     22 C           1.4209   -5.0679    0.1427 C.ar    1  UNL1       -0.0585
     23 C           2.3823   -6.0406    0.3172 C.ar    1  UNL1       -0.0615
     24 C           3.4573   -6.1291   -0.5266 C.ar    1  UNL1       -0.0617
     25 C           3.5635   -5.2328   -1.5509 C.ar    1  UNL1       -0.0615
     26 C           2.5985   -4.2655   -1.7166 C.ar    1  UNL1       -0.0585
     27 C           1.6513   -1.0058   -0.5452 C.3     1  UNL1        0.0862
     28 O           1.6461   -0.7765   -1.8941 O.3     1  UNL1       -0.3887
     29 C           2.9591   -1.2726    0.0987 C.3     1  UNL1        0.0240
     30 N           3.7966   -0.0919   -0.1260 N.3     1  UNL1       -0.3095
     31 C           5.1074   -0.3236    0.5011 C.3     1  UNL1        0.0213
     32 C           5.9805    0.8421    0.2986 C.ar    1  UNL1       -0.0330
     33 C           6.7839    0.8983   -0.8146 C.ar    1  UNL1       -0.0573
     34 C           7.5983    2.0004   -0.9903 C.ar    1  UNL1       -0.0609
     35 C           7.5756    3.0063   -0.0404 C.ar    1  UNL1       -0.0501
     36 C           6.7854    2.9731    1.0746 C.ar    1  UNL1        0.0551
     37 C           6.7698    4.0679    2.0955 C.3     1  UNL1        0.4174
     38 F           7.5652    3.7099    3.1588 F       1  UNL1       -0.1659
     39 F           5.4693    4.1498    2.5747 F       1  UNL1       -0.1659
     40 F           7.1462    5.2561    1.5467 F       1  UNL1       -0.1659
     41 C           5.9733    1.8689    1.2450 C.ar    1  UNL1       -0.0457
     42 C          -3.1976    0.3409   -1.0249 C.ar    1  UNL1       -0.0238
     43 C          -4.3679    1.0459   -1.2465 C.ar    1  UNL1        0.0712
     44 H          -4.0575    3.5772   -4.3543 H       1  UNL1        0.0247
     45 H          -2.9145    2.9862   -3.0335 H       1  UNL1        0.0247
     46 H          -2.7008    2.4747   -4.7207 H       1  UNL1        0.0247
     47 H          -3.7549    0.5876   -3.7681 H       1  UNL1        0.0489
     48 H          -5.1481    1.4862   -4.4593 H       1  UNL1        0.0489
     49 H          -6.8038    2.6983   -2.6414 H       1  UNL1        0.1029
     50 H          -6.7627    2.8687    1.5490 H       1  UNL1        0.0469
     51 H          -7.7661    1.3882    1.4249 H       1  UNL1        0.0469
     52 H          -7.8082    3.2393    3.6054 H       1  UNL1        0.0285
     53 H          -8.3521    1.4838    3.6915 H       1  UNL1        0.0285
     54 H          -6.7255    1.4068    5.3278 H       1  UNL1        0.0359
     55 H          -5.6666    2.6764    4.5015 H       1  UNL1        0.0359
     56 H          -3.4694   -0.1601    2.2636 H       1  UNL1        0.0644
     57 H          -0.8389   -0.8729   -1.5193 H       1  UNL1        0.1494
     58 H           0.4621   -2.1238    0.8862 H       1  UNL1        0.0527
     59 H          -0.5339   -3.7241   -0.7891 H       1  UNL1        0.0332
     60 H           0.2786   -2.8694   -2.1121 H       1  UNL1        0.0332
     61 H           0.6010   -5.0629    0.8510 H       1  UNL1        0.0620
     62 H           2.2941   -6.7563    1.1382 H       1  UNL1        0.0618
     63 H           4.2055   -6.8993   -0.3769 H       1  UNL1        0.0618
     64 H           4.4109   -5.2683   -2.2517 H       1  UNL1        0.0618
     65 H           2.7079   -3.5688   -2.5365 H       1  UNL1        0.0620
     66 H           1.3150    0.0274   -0.1041 H       1  UNL1        0.0624
     67 H           1.7871    0.1454   -2.1709 H       1  UNL1        0.2099
     68 H           3.5301   -2.1301   -0.2144 H       1  UNL1        0.0450
     69 H           2.8547   -1.3276    1.2167 H       1  UNL1        0.0450
     70 H           4.0101    0.0146   -1.1540 H       1  UNL1        0.1223
     71 H           5.5859   -1.2172    0.0470 H       1  UNL1        0.0473
     72 H           4.9869   -0.5226    1.5884 H       1  UNL1        0.0473
     73 H           6.7973    0.1088   -1.5540 H       1  UNL1        0.0621
     74 H           8.2378    2.0583   -1.8644 H       1  UNL1        0.0618
     75 H           8.2232    3.8719   -0.1903 H       1  UNL1        0.0623
     76 H           5.3319    1.8035    2.1149 H       1  UNL1        0.0626
     77 H          -2.5537    0.1455   -1.8707 H       1  UNL1        0.0646
@<TRIPOS>BOND
     1     1     2    1
     2     2     3    1
     3     3     4   ar
     4     4     5   ar
     5     5     6   ar
     6     6     7   ar
     7     7     8    1
     8     8     9    1
     9     9    10    1
    10    10    11    1
    11    11    12    1
    12    12    13    2
    13     7    14   ar
    14    14    15   ar
    15    15    16    1
    16    16    17    2
    17    16    18   am
    18    18    19    1
    19    19    20    1
    20    20    21    1
    21    21    22   ar
    22    22    23   ar
    23    23    24   ar
    24    24    25   ar
    25    25    26   ar
    26    19    27    1
    27    27    28    1
    28    27    29    1
    29    29    30    1
    30    30    31    1
    31    31    32    1
    32    32    33   ar
    33    33    34   ar
    34    34    35   ar
    35    35    36   ar
    36    36    37    1
    37    37    38    1
    38    37    39    1
    39    37    40    1
    40    36    41   ar
    41    15    42   ar
    42    42    43   ar
    43    43     3   ar
    44    43     6   ar
    45    12     8   am
    46    26    21   ar
    47    41    32   ar
    48     1    44    1
    49     1    45    1
    50     1    46    1
    51     2    47    1
    52     2    48    1
    53     4    49    1
    54     9    50    1
    55     9    51    1
    56    10    52    1
    57    10    53    1
    58    11    54    1
    59    11    55    1
    60    14    56    1
    61    18    57    1
    62    19    58    1
    63    20    59    1
    64    20    60    1
    65    22    61    1
    66    23    62    1
    67    24    63    1
    68    25    64    1
    69    26    65    1
    70    27    66    1
    71    28    67    1
    72    29    68    1
    73    29    69    1
    74    30    70    1
    75    31    71    1
    76    31    72    1
    77    33    73    1
    78    34    74    1
    79    35    75    1
    80    41    76    1
    81    42    77    1
