
     RDKit          3D

 77 81  0  0  0  0  0  0  0  0999 V2000
   -3.4691    2.7113   -3.9490 C   0  0  0  0  0  0  0  0  0  0  0  0
   -4.3656    1.5280   -3.6761 C   0  0  0  0  0  0  0  0  0  0  0  0
   -4.9311    1.5818   -2.3420 N   0  0  0  0  0  0  0  0  0  0  0  0
   -6.1057    2.1767   -1.9999 C   0  0  0  0  0  0  0  0  0  0  0  0
   -6.2372    1.9867   -0.6717 N   0  0  0  0  0  0  0  0  0  0  0  0
   -5.1975    1.3019   -0.1793 C   0  0  0  0  0  0  0  0  0  0  0  0
   -4.9018    0.8781    1.1102 C   0  0  0  0  0  0  0  0  0  0  0  0
   -5.7868    1.1646    2.1844 N   0  0  0  0  0  0  0  0  0  0  0  0
   -7.0333    1.8982    2.0578 C   0  0  0  0  0  0  0  0  0  0  0  0
   -7.5108    2.1938    3.4397 C   0  0  0  0  0  0  0  0  0  0  0  0
   -6.3829    1.8260    4.3834 C   0  0  0  0  0  0  0  0  0  0  0  0
   -5.6470    0.8118    3.5453 C   0  0  0  0  0  0  0  0  0  0  0  0
   -5.0233   -0.1702    3.9965 O   0  0  0  0  0  0  0  0  0  0  0  0
   -3.7262    0.1830    1.2667 C   0  0  0  0  0  0  0  0  0  0  0  0
   -2.8527   -0.1011    0.2165 C   0  0  0  0  0  0  0  0  0  0  0  0
   -1.6158   -0.8571    0.4974 C   0  0  0  0  0  0  0  0  0  0  0  0
   -1.3810   -1.2324    1.6592 O   0  0  0  0  0  0  0  0  0  0  0  0
   -0.7064   -1.1545   -0.5324 N   0  0  0  0  0  0  0  0  0  0  0  0
    0.5174   -1.9192   -0.1784 C   0  0  1  0  0  0  0  0  0  0  0  0
    0.4261   -3.1709   -1.0273 C   0  0  0  0  0  0  0  0  0  0  0  0
    1.5030   -4.1348   -0.8989 C   0  0  0  0  0  0  0  0  0  0  0  0
    1.4209   -5.0679    0.1427 C   0  0  0  0  0  0  0  0  0  0  0  0
    2.3823   -6.0406    0.3172 C   0  0  0  0  0  0  0  0  0  0  0  0
    3.4573   -6.1291   -0.5266 C   0  0  0  0  0  0  0  0  0  0  0  0
    3.5635   -5.2328   -1.5509 C   0  0  0  0  0  0  0  0  0  0  0  0
    2.5985   -4.2655   -1.7166 C   0  0  0  0  0  0  0  0  0  0  0  0
    1.6513   -1.0058   -0.5452 C   0  0  2  0  0  0  0  0  0  0  0  0
    1.6461   -0.7765   -1.8941 O   0  0  0  0  0  0  0  0  0  0  0  0
    2.9591   -1.2726    0.0987 C   0  0  0  0  0  0  0  0  0  0  0  0
    3.7966   -0.0919   -0.1260 N   0  0  0  0  0  0  0  0  0  0  0  0
    5.1074   -0.3236    0.5011 C   0  0  0  0  0  0  0  0  0  0  0  0
    5.9805    0.8421    0.2986 C   0  0  0  0  0  0  0  0  0  0  0  0
    6.7839    0.8983   -0.8146 C   0  0  0  0  0  0  0  0  0  0  0  0
    7.5983    2.0004   -0.9903 C   0  0  0  0  0  0  0  0  0  0  0  0
    7.5756    3.0063   -0.0404 C   0  0  0  0  0  0  0  0  0  0  0  0
    6.7854    2.9731    1.0746 C   0  0  0  0  0  0  0  0  0  0  0  0
    6.7698    4.0679    2.0955 C   0  0  0  0  0  0  0  0  0  0  0  0
    7.5652    3.7099    3.1588 F   0  0  0  0  0  0  0  0  0  0  0  0
    5.4693    4.1498    2.5747 F   0  0  0  0  0  0  0  0  0  0  0  0
    7.1462    5.2561    1.5467 F   0  0  0  0  0  0  0  0  0  0  0  0
    5.9733    1.8689    1.2450 C   0  0  0  0  0  0  0  0  0  0  0  0
   -3.1976    0.3409   -1.0249 C   0  0  0  0  0  0  0  0  0  0  0  0
   -4.3679    1.0459   -1.2465 C   0  0  0  0  0  0  0  0  0  0  0  0
   -4.0575    3.5772   -4.3543 H   0  0  0  0  0  0  0  0  0  0  0  0
   -2.9145    2.9862   -3.0335 H   0  0  0  0  0  0  0  0  0  0  0  0
   -2.7008    2.4747   -4.7207 H   0  0  0  0  0  0  0  0  0  0  0  0
   -3.7549    0.5876   -3.7681 H   0  0  0  0  0  0  0  0  0  0  0  0
   -5.1481    1.4862   -4.4593 H   0  0  0  0  0  0  0  0  0  0  0  0
   -6.8038    2.6983   -2.6414 H   0  0  0  0  0  0  0  0  0  0  0  0
   -6.7627    2.8687    1.5490 H   0  0  0  0  0  0  0  0  0  0  0  0
   -7.7661    1.3882    1.4249 H   0  0  0  0  0  0  0  0  0  0  0  0
   -7.8082    3.2393    3.6054 H   0  0  0  0  0  0  0  0  0  0  0  0
   -8.3521    1.4838    3.6915 H   0  0  0  0  0  0  0  0  0  0  0  0
   -6.7255    1.4068    5.3278 H   0  0  0  0  0  0  0  0  0  0  0  0
   -5.6666    2.6764    4.5015 H   0  0  0  0  0  0  0  0  0  0  0  0
   -3.4694   -0.1601    2.2636 H   0  0  0  0  0  0  0  0  0  0  0  0
   -0.8389   -0.8729   -1.5193 H   0  0  0  0  0  0  0  0  0  0  0  0
    0.4621   -2.1238    0.8862 H   0  0  0  0  0  0  0  0  0  0  0  0
   -0.5339   -3.7241   -0.7891 H   0  0  0  0  0  0  0  0  0  0  0  0
    0.2786   -2.8694   -2.1121 H   0  0  0  0  0  0  0  0  0  0  0  0
    0.6010   -5.0629    0.8510 H   0  0  0  0  0  0  0  0  0  0  0  0
    2.2941   -6.7563    1.1382 H   0  0  0  0  0  0  0  0  0  0  0  0
    4.2055   -6.8993   -0.3769 H   0  0  0  0  0  0  0  0  0  0  0  0
    4.4109   -5.2683   -2.2517 H   0  0  0  0  0  0  0  0  0  0  0  0
    2.7079   -3.5688   -2.5365 H   0  0  0  0  0  0  0  0  0  0  0  0
    1.3150    0.0274   -0.1041 H   0  0  0  0  0  0  0  0  0  0  0  0
    1.7871    0.1454   -2.1709 H   0  0  0  0  0  0  0  0  0  0  0  0
    3.5301   -2.1301   -0.2144 H   0  0  0  0  0  0  0  0  0  0  0  0
    2.8547   -1.3276    1.2167 H   0  0  0  0  0  0  0  0  0  0  0  0
    4.0101    0.0146   -1.1540 H   0  0  0  0  0  0  0  0  0  0  0  0
    5.5859   -1.2172    0.0470 H   0  0  0  0  0  0  0  0  0  0  0  0
    4.9869   -0.5226    1.5884 H   0  0  0  0  0  0  0  0  0  0  0  0
    6.7973    0.1088   -1.5540 H   0  0  0  0  0  0  0  0  0  0  0  0
    8.2378    2.0583   -1.8644 H   0  0  0  0  0  0  0  0  0  0  0  0
    8.2232    3.8719   -0.1903 H   0  0  0  0  0  0  0  0  0  0  0  0
    5.3319    1.8035    2.1149 H   0  0  0  0  0  0  0  0  0  0  0  0
   -2.5537    0.1455   -1.8707 H   0  0  0  0  0  0  0  0  0  0  0  0
  1  2  1  0
  2  3  1  0
  3  4  1  0
  4  5  2  0
  5  6  1  0
  6  7  2  0
  7  8  1  0
  8  9  1  0
  9 10  1  0
 10 11  1  0
 11 12  1  0
 12 13  2  0
  7 14  1  0
 14 15  2  0
 15 16  1  0
 16 17  2  0
 16 18  1  0
 18 19  1  0
 19 20  1  0
 20 21  1  0
 21 22  2  0
 22 23  1  0
 23 24  2  0
 24 25  1  0
 25 26  2  0
 19 27  1  0
 27 28  1  0
 27 29  1  0
 29 30  1  0
 30 31  1  0
 31 32  1  0
 32 33  2  0
 33 34  1  0
 34 35  2  0
 35 36  1  0
 36 37  1  0
 37 38  1  0
 37 39  1  0
 37 40  1  0
 36 41  2  0
 15 42  1  0
 42 43  2  0
 43  3  1  0
 43  6  1  0
 12  8  1  0
 26 21  1  0
 41 32  1  0
  1 44  1  0
  1 45  1  0
  1 46  1  0
  2 47  1  0
  2 48  1  0
  4 49  1  0
  9 50  1  0
  9 51  1  0
 10 52  1  0
 10 53  1  0
 11 54  1  0
 11 55  1  0
 14 56  1  0
 18 57  1  0
 19 58  1  1
 20 59  1  0
 20 60  1  0
 22 61  1  0
 23 62  1  0
 24 63  1  0
 25 64  1  0
 26 65  1  0
 27 66  1  1
 28 67  1  0
 29 68  1  0
 29 69  1  0
 30 70  1  0
 31 71  1  0
 31 72  1  0
 33 73  1  0
 34 74  1  0
 35 75  1  0
 41 76  1  0
 42 77  1  0
M  END
$$$$
