
     RDKit          3D

 48 50  0  0  0  0  0  0  0  0999 V2000
   -7.4046    0.7544    1.3704 N   0  0  0  0  0  0  0  0  0  0  0  0
   -6.3431    0.9492    0.4254 C   0  0  0  0  0  0  0  0  0  0  0  0
   -5.0780    0.6026    0.7756 N   0  0  0  0  0  0  0  0  0  0  0  0
   -4.0510    0.7753   -0.0983 C   0  0  0  0  0  0  0  0  0  0  0  0
   -4.3854    1.3118   -1.3261 C   0  0  0  0  0  0  0  0  0  0  0  0
   -3.2491    1.3922   -2.0108 N   0  0  0  0  0  0  0  0  0  0  0  0
   -2.2256    0.9301   -1.2638 C   0  0  0  0  0  0  0  0  0  0  0  0
   -2.7134    0.5430   -0.0702 N   0  0  0  0  0  0  0  0  0  0  0  0
   -2.1165   -0.0304    1.1409 C   0  0  2  0  0  0  0  0  0  0  0  0
   -0.7696    0.2153    1.1500 O   0  0  0  0  0  0  0  0  0  0  0  0
   -0.1074   -0.9860    0.9274 C   0  0  2  0  0  0  0  0  0  0  0  0
    1.1529   -0.6993    0.1622 C   0  0  0  0  0  0  0  0  0  0  0  0
    1.9166   -1.8221   -0.1301 O   0  0  0  0  0  0  0  0  0  0  0  0
    3.2701   -1.2669   -0.9832 P   0  0  0  0  0  0  0  0  0  0  0  0
    3.8449   -2.4351   -2.0579 O   0  0  0  0  0  0  0  0  0  0  0  0
    2.8926   -0.0200   -1.7357 O   0  0  0  0  0  0  0  0  0  0  0  0
    4.4721   -0.9989    0.1630 O   0  0  0  0  0  0  0  0  0  0  0  0
    5.0108    0.5784    0.2350 P   0  0  0  0  0  0  0  0  0  0  0  0
    5.0555    1.3641   -1.2388 O   0  0  0  0  0  0  0  0  0  0  0  0
    4.1488    1.4285    1.1706 O   0  0  0  0  0  0  0  0  0  0  0  0
    6.5434    0.5253    0.9943 O   0  0  0  0  0  0  0  0  0  0  0  0
    7.7375    1.1864    0.0261 P   0  0  0  0  0  0  0  0  0  0  0  0
    7.7644    0.4150   -1.4778 O   0  0  0  0  0  0  0  0  0  0  0  0
    7.5683    2.8557   -0.0961 O   0  0  0  0  0  0  0  0  0  0  0  0
    9.0627    0.8919    0.6867 O   0  0  0  0  0  0  0  0  0  0  0  0
   -1.0650   -1.9080    0.2434 C   0  0  1  0  0  0  0  0  0  0  0  0
   -0.7981   -3.2411    0.4242 O   0  0  0  0  0  0  0  0  0  0  0  0
   -2.3355   -1.5282    1.0192 C   0  0  1  0  0  0  0  0  0  0  0  0
   -2.2062   -2.1055    2.2802 O   0  0  0  0  0  0  0  0  0  0  0  0
   -5.6647    1.6708   -1.7022 C   0  0  0  0  0  0  0  0  0  0  0  0
   -5.8996    2.1600   -2.8513 O   0  0  0  0  0  0  0  0  0  0  0  0
   -6.6515    1.4752   -0.7867 N   0  0  0  0  0  0  0  0  0  0  0  0
   -7.8979    1.6810    1.5277 H   0  0  0  0  0  0  0  0  0  0  0  0
   -7.4964   -0.2359    1.7218 H   0  0  0  0  0  0  0  0  0  0  0  0
   -1.1562    0.8190   -1.4316 H   0  0  0  0  0  0  0  0  0  0  0  0
   -2.6015    0.3852    2.0389 H   0  0  0  0  0  0  0  0  0  0  0  0
    0.1139   -1.3944    1.9343 H   0  0  0  0  0  0  0  0  0  0  0  0
    0.9925   -0.1303   -0.7524 H   0  0  0  0  0  0  0  0  0  0  0  0
    1.7925   -0.0915    0.8542 H   0  0  0  0  0  0  0  0  0  0  0  0
    3.4839   -2.3444   -2.9723 H   0  0  0  0  0  0  0  0  0  0  0  0
    5.9045    1.8302   -1.4260 H   0  0  0  0  0  0  0  0  0  0  0  0
    7.1762   -0.3930   -1.5096 H   0  0  0  0  0  0  0  0  0  0  0  0
    6.8849    3.1410    0.5802 H   0  0  0  0  0  0  0  0  0  0  0  0
   -1.1898   -1.6125   -0.8242 H   0  0  0  0  0  0  0  0  0  0  0  0
   -1.0254   -3.7659   -0.3720 H   0  0  0  0  0  0  0  0  0  0  0  0
   -3.2427   -1.8078    0.4842 H   0  0  0  0  0  0  0  0  0  0  0  0
   -1.4828   -2.7936    2.3065 H   0  0  0  0  0  0  0  0  0  0  0  0
   -7.6319    1.7292   -1.0209 H   0  0  0  0  0  0  0  0  0  0  0  0
  1  2  1  0
  2  3  2  0
  3  4  1  0
  4  5  2  0
  5  6  1  0
  6  7  2  0
  7  8  1  0
  8  9  1  0
  9 10  1  0
 10 11  1  0
 11 12  1  0
 12 13  1  0
 13 14  1  0
 14 15  1  0
 14 16  2  0
 14 17  1  0
 17 18  1  0
 18 19  1  0
 18 20  2  0
 18 21  1  0
 21 22  1  0
 22 23  1  0
 22 24  1  0
 22 25  2  0
 11 26  1  0
 26 27  1  0
 26 28  1  0
 28 29  1  0
  5 30  1  0
 30 31  2  0
 30 32  1  0
 32  2  1  0
  8  4  1  0
 28  9  1  0
  1 33  1  0
  1 34  1  0
  7 35  1  0
  9 36  1  1
 11 37  1  1
 12 38  1  0
 12 39  1  0
 15 40  1  0
 19 41  1  0
 23 42  1  0
 24 43  1  0
 26 44  1  6
 27 45  1  0
 28 46  1  6
 29 47  1  0
 32 48  1  0
M  END
$$$$
