
     RDKit          3D

 68 71  0  0  0  0  0  0  0  0999 V2000
   -4.2774    4.8530   -1.0686 C   0  0  0  0  0  0  0  0  0  0  0  0
   -5.0277    3.7097   -0.7114 O   0  0  0  0  0  0  0  0  0  0  0  0
   -4.3652    2.6926   -0.0373 C   0  0  0  0  0  0  0  0  0  0  0  0
   -3.0339    2.7890    0.2768 C   0  0  0  0  0  0  0  0  0  0  0  0
   -2.4077    1.7591    0.9433 C   0  0  0  0  0  0  0  0  0  0  0  0
   -3.0395    0.6046    1.3285 C   0  0  0  0  0  0  0  0  0  0  0  0
   -2.3716   -0.5220    1.9668 C   0  0  0  0  0  0  0  0  0  0  0  0
   -0.9951   -0.8501    1.4538 C   0  0  0  0  0  0  0  0  0  0  0  0
   -0.8034   -1.1292    0.0365 C   0  0  0  0  0  0  0  0  0  0  0  0
    0.5968   -1.4581   -0.2451 N   0  0  0  0  0  0  0  0  0  0  0  0
    1.0714   -2.6575    0.3430 C   0  0  1  0  0  0  0  0  0  0  0  0
    2.3077   -3.0650   -0.5197 C   0  0  0  0  0  0  0  0  0  0  0  0
    3.3580   -2.0250   -0.4807 C   0  0  0  0  0  0  0  0  0  0  0  0
    4.3420   -2.1443    0.5111 C   0  0  0  0  0  0  0  0  0  0  0  0
    5.3580   -1.2502    0.6689 C   0  0  0  0  0  0  0  0  0  0  0  0
    5.4276   -0.1785   -0.1803 C   0  0  0  0  0  0  0  0  0  0  0  0
    4.4844   -0.0191   -1.1703 C   0  0  0  0  0  0  0  0  0  0  0  0
    3.4556   -0.9537   -1.3063 C   0  0  0  0  0  0  0  0  0  0  0  0
    4.7664    1.0695   -1.8399 O   0  0  0  0  0  0  0  0  0  0  0  0
    5.8295    1.6631   -1.3811 C   0  0  0  0  0  0  0  0  0  0  0  0
    6.5217    2.8152   -1.7319 C   0  0  0  0  0  0  0  0  0  0  0  0
    7.6410    3.1485   -1.0014 C   0  0  0  0  0  0  0  0  0  0  0  0
    8.0889    2.3694    0.0655 C   0  0  0  0  0  0  0  0  0  0  0  0
    7.3931    1.2132    0.4165 C   0  0  0  0  0  0  0  0  0  0  0  0
    6.2883    0.9063   -0.3227 C   0  0  0  0  0  0  0  0  0  0  0  0
    1.6897   -2.3745    1.6645 C   0  0  0  0  0  0  0  0  0  0  0  0
    1.9797   -3.3328    2.4655 O   0  0  0  0  0  0  0  0  0  0  0  0
    2.0038   -1.1196    2.1355 O   0  0  0  0  0  0  0  0  0  0  0  0
   -1.9257   -2.2357   -0.7831 P   0  0  0  0  0  5  0  0  0  0  0  0
   -1.1199   -2.9682   -1.8778 O   0  0  0  0  0  0  0  0  0  0  0  0
   -2.6996   -3.3204    0.2125 O   0  0  0  0  0  0  0  0  0  0  0  0
   -3.0655   -1.3402   -1.6712 O   0  0  0  0  0  0  0  0  0  0  0  0
   -4.3975    0.4908    1.0179 C   0  0  0  0  0  0  0  0  0  0  0  0
   -5.1746   -0.5905    1.3402 O   0  0  0  0  0  0  0  0  0  0  0  0
   -5.5059   -1.7489    0.7109 C   0  0  0  0  0  0  0  0  0  0  0  0
   -5.0419    1.5393    0.3369 C   0  0  0  0  0  0  0  0  0  0  0  0
   -6.3782    1.4869    0.0019 O   0  0  0  0  0  0  0  0  0  0  0  0
   -6.7392    0.9501   -1.2535 C   0  0  0  0  0  0  0  0  0  0  0  0
   -4.9139    5.6385   -1.5344 H   0  0  0  0  0  0  0  0  0  0  0  0
   -3.8051    5.2292   -0.1388 H   0  0  0  0  0  0  0  0  0  0  0  0
   -3.4332    4.5616   -1.7487 H   0  0  0  0  0  0  0  0  0  0  0  0
   -2.4846    3.6797   -0.0040 H   0  0  0  0  0  0  0  0  0  0  0  0
   -1.3711    1.8739    1.1681 H   0  0  0  0  0  0  0  0  0  0  0  0
   -2.2520   -0.2853    3.0483 H   0  0  0  0  0  0  0  0  0  0  0  0
   -2.9522   -1.4685    1.9237 H   0  0  0  0  0  0  0  0  0  0  0  0
   -0.2955    0.0172    1.7582 H   0  0  0  0  0  0  0  0  0  0  0  0
   -0.6438   -1.6999    2.0737 H   0  0  0  0  0  0  0  0  0  0  0  0
   -0.9070   -0.1226   -0.5052 H   0  0  0  0  0  0  0  0  0  0  0  0
    0.7045   -1.5737   -1.3001 H   0  0  0  0  0  0  0  0  0  0  0  0
    0.3737   -3.4727    0.4572 H   0  0  0  0  0  0  0  0  0  0  0  0
    1.9593   -3.1609   -1.5636 H   0  0  0  0  0  0  0  0  0  0  0  0
    2.7560   -4.0010   -0.1234 H   0  0  0  0  0  0  0  0  0  0  0  0
    4.3235   -2.9810    1.1894 H   0  0  0  0  0  0  0  0  0  0  0  0
    6.1216   -1.3570    1.4488 H   0  0  0  0  0  0  0  0  0  0  0  0
    2.7223   -0.8186   -2.1049 H   0  0  0  0  0  0  0  0  0  0  0  0
    6.1967    3.4338   -2.5475 H   0  0  0  0  0  0  0  0  0  0  0  0
    8.1703    4.0294   -1.2709 H   0  0  0  0  0  0  0  0  0  0  0  0
    8.9511    2.5980    0.6514 H   0  0  0  0  0  0  0  0  0  0  0  0
    7.7095    0.5749    1.2440 H   0  0  0  0  0  0  0  0  0  0  0  0
    1.8581   -0.8154    3.0780 H   0  0  0  0  0  0  0  0  0  0  0  0
   -2.8881   -4.1356   -0.3269 H   0  0  0  0  0  0  0  0  0  0  0  0
   -2.5742   -0.4947   -1.9169 H   0  0  0  0  0  0  0  0  0  0  0  0
   -6.6379   -1.8879    0.8492 H   0  0  0  0  0  0  0  0  0  0  0  0
   -5.0964   -2.6580    1.2452 H   0  0  0  0  0  0  0  0  0  0  0  0
   -5.3282   -1.8533   -0.3550 H   0  0  0  0  0  0  0  0  0  0  0  0
   -7.2729   -0.0209   -1.1161 H   0  0  0  0  0  0  0  0  0  0  0  0
   -7.3632    1.6605   -1.8445 H   0  0  0  0  0  0  0  0  0  0  0  0
   -5.8613    0.7335   -1.9095 H   0  0  0  0  0  0  0  0  0  0  0  0
  1  2  1  0
  2  3  1  0
  3  4  2  0
  4  5  1  0
  5  6  2  0
  6  7  1  0
  7  8  1  0
  8  9  1  0
  9 10  1  0
 10 11  1  0
 11 12  1  0
 12 13  1  0
 13 14  2  0
 14 15  1  0
 15 16  2  0
 16 17  1  0
 17 18  2  0
 17 19  1  0
 19 20  1  0
 20 21  2  0
 21 22  1  0
 22 23  2  0
 23 24  1  0
 24 25  2  0
 11 26  1  0
 26 27  2  0
 26 28  1  0
  9 29  1  0
 29 30  2  0
 29 31  1  0
 29 32  1  0
  6 33  1  0
 33 34  1  0
 34 35  1  0
 33 36  2  0
 36 37  1  0
 37 38  1  0
 36  3  1  0
 18 13  1  0
 25 20  1  0
 25 16  1  0
  1 39  1  0
  1 40  1  0
  1 41  1  0
  4 42  1  0
  5 43  1  0
  7 44  1  0
  7 45  1  0
  8 46  1  0
  8 47  1  0
  9 48  1  0
 10 49  1  0
 11 50  1  1
 12 51  1  0
 12 52  1  0
 14 53  1  0
 15 54  1  0
 18 55  1  0
 21 56  1  0
 22 57  1  0
 23 58  1  0
 24 59  1  0
 28 60  1  0
 31 61  1  0
 32 62  1  0
 35 63  1  0
 35 64  1  0
 35 65  1  0
 38 66  1  0
 38 67  1  0
 38 68  1  0
M  END
$$$$
