@<TRIPOS>MOLECULE
*****
 68 71 0 0 0
SMALL
GASTEIGER

@<TRIPOS>ATOM
      1 C          -4.2774    4.8530   -1.0686 C.3     1  UNL1        0.0790
      2 O          -5.0277    3.7097   -0.7114 O.3     1  UNL1       -0.4913
      3 C          -4.3652    2.6926   -0.0373 C.ar    1  UNL1        0.1652
      4 C          -3.0339    2.7890    0.2768 C.ar    1  UNL1       -0.0158
      5 C          -2.4077    1.7591    0.9433 C.ar    1  UNL1       -0.0514
      6 C          -3.0395    0.6046    1.3285 C.ar    1  UNL1       -0.0018
      7 C          -2.3716   -0.5220    1.9668 C.3     1  UNL1       -0.0221
      8 C          -0.9951   -0.8501    1.4538 C.3     1  UNL1       -0.0222
      9 C          -0.8034   -1.1292    0.0365 C.3     1  UNL1        0.1110
     10 N           0.5968   -1.4581   -0.2451 N.3     1  UNL1       -0.2910
     11 CA          1.0714   -2.6575    0.3430 C.3     1  UNL1        0.1103
     12 C           2.3077   -3.0650   -0.5197 C.3     1  UNL1       -0.0017
     13 C           3.3580   -2.0250   -0.4807 C.ar    1  UNL1       -0.0418
     14 C           4.3420   -2.1443    0.5111 C.ar    1  UNL1       -0.0577
     15 C           5.3580   -1.2502    0.6689 C.ar    1  UNL1       -0.0501
     16 C           5.4276   -0.1785   -0.1803 C.ar    1  UNL1        0.0279
     17 C           4.4844   -0.0191   -1.1703 C.ar    1  UNL1        0.1365
     18 C           3.4556   -0.9537   -1.3063 C.ar    1  UNL1       -0.0155
     19 O           4.7664    1.0695   -1.8399 O.2     1  UNL1       -0.4548
     20 C           5.8295    1.6631   -1.3811 C.ar    1  UNL1        0.1362
     21 C           6.5217    2.8152   -1.7319 C.ar    1  UNL1       -0.0187
     22 C           7.6410    3.1485   -1.0014 C.ar    1  UNL1       -0.0582
     23 C           8.0889    2.3694    0.0655 C.ar    1  UNL1       -0.0610
     24 C           7.3931    1.2132    0.4165 C.ar    1  UNL1       -0.0504
     25 C           6.2883    0.9063   -0.3227 C.ar    1  UNL1        0.0279
     26 C           1.6897   -2.3745    1.6645 C.2     1  UNL1        0.3223
     27 O           1.9797   -3.3328    2.4655 O.2     1  UNL1       -0.2492
     28 OXT         2.0038   -1.1196    2.1355 O.3     1  UNL1       -0.4795
     29 P          -1.9257   -2.2357   -0.7831 P.3     1  UNL1        0.3445
     30 O          -1.1199   -2.9682   -1.8778 O.2     1  UNL1       -0.2572
     31 O          -2.6996   -3.3204    0.2125 O.3     1  UNL1       -0.3230
     32 O          -3.0655   -1.3402   -1.6712 O.3     1  UNL1       -0.3230
     33 C          -4.3975    0.4908    1.0179 C.ar    1  UNL1        0.1683
     34 O          -5.1746   -0.5905    1.3402 O.3     1  UNL1       -0.4910
     35 C          -5.5059   -1.7489    0.7109 C.3     1  UNL1        0.0790
     36 C          -5.0419    1.5393    0.3369 C.ar    1  UNL1        0.2038
     37 O          -6.3782    1.4869    0.0019 O.3     1  UNL1       -0.4885
     38 C          -6.7392    0.9501   -1.2535 C.3     1  UNL1        0.0791
     39 H          -4.9139    5.6385   -1.5344 H       1  UNL1        0.0660
     40 H          -3.8051    5.2292   -0.1388 H       1  UNL1        0.0660
     41 H          -3.4332    4.5616   -1.7487 H       1  UNL1        0.0660
     42 H          -2.4846    3.6797   -0.0040 H       1  UNL1        0.0655
     43 H          -1.3711    1.8739    1.1681 H       1  UNL1        0.0623
     44 H          -2.2520   -0.2853    3.0483 H       1  UNL1        0.0315
     45 H          -2.9522   -1.4685    1.9237 H       1  UNL1        0.0315
     46 H          -0.2955    0.0172    1.7582 H       1  UNL1        0.0289
     47 H          -0.6438   -1.6999    2.0737 H       1  UNL1        0.0289
     48 H          -0.9070   -0.1226   -0.5052 H       1  UNL1        0.0586
     49 H           0.7045   -1.5737   -1.3001 H       1  UNL1        0.1235
     50 HA          0.3737   -3.4727    0.4572 H       1  UNL1        0.0579
     51 H           1.9593   -3.1609   -1.5636 H       1  UNL1        0.0334
     52 H           2.7560   -4.0010   -0.1234 H       1  UNL1        0.0334
     53 H           4.3235   -2.9810    1.1894 H       1  UNL1        0.0621
     54 H           6.1216   -1.3570    1.4488 H       1  UNL1        0.0625
     55 H           2.7223   -0.8186   -2.1049 H       1  UNL1        0.0657
     56 H           6.1967    3.4338   -2.5475 H       1  UNL1        0.0654
     57 H           8.1703    4.0294   -1.2709 H       1  UNL1        0.0619
     58 H           8.9511    2.5980    0.6514 H       1  UNL1        0.0618
     59 H           7.7095    0.5749    1.2440 H       1  UNL1        0.0625
     60 HXT         1.8581   -0.8154    3.0780 H       1  UNL1        0.2951
     61 H          -2.8881   -4.1356   -0.3269 H       1  UNL1        0.2198
     62 H          -2.5742   -0.4947   -1.9169 H       1  UNL1        0.2198
     63 H          -6.6379   -1.8879    0.8492 H       1  UNL1        0.0660
     64 H          -5.0964   -2.6580    1.2452 H       1  UNL1        0.0660
     65 H          -5.3282   -1.8533   -0.3550 H       1  UNL1        0.0660
     66 H          -7.2729   -0.0209   -1.1161 H       1  UNL1        0.0660
     67 H          -7.3632    1.6605   -1.8445 H       1  UNL1        0.0660
     68 H          -5.8613    0.7335   -1.9095 H       1  UNL1        0.0660
@<TRIPOS>BOND
     1     1     2    1
     2     2     3    1
     3     3     4   ar
     4     4     5   ar
     5     5     6   ar
     6     6     7    1
     7     7     8    1
     8     8     9    1
     9     9    10    1
    10    10    11    1
    11    11    12    1
    12    12    13    1
    13    13    14   ar
    14    14    15   ar
    15    15    16   ar
    16    16    17   ar
    17    17    18   ar
    18    17    19   ar
    19    19    20   ar
    20    20    21   ar
    21    21    22   ar
    22    22    23   ar
    23    23    24   ar
    24    24    25   ar
    25    11    26    1
    26    26    27    2
    27    26    28    1
    28     9    29    1
    29    29    30    2
    30    29    31    1
    31    29    32    1
    32     6    33   ar
    33    33    34    1
    34    34    35    1
    35    33    36   ar
    36    36    37    1
    37    37    38    1
    38    36     3   ar
    39    18    13   ar
    40    25    20   ar
    41    25    16   ar
    42     1    39    1
    43     1    40    1
    44     1    41    1
    45     4    42    1
    46     5    43    1
    47     7    44    1
    48     7    45    1
    49     8    46    1
    50     8    47    1
    51     9    48    1
    52    10    49    1
    53    11    50    1
    54    12    51    1
    55    12    52    1
    56    14    53    1
    57    15    54    1
    58    18    55    1
    59    21    56    1
    60    22    57    1
    61    23    58    1
    62    24    59    1
    63    28    60    1
    64    31    61    1
    65    32    62    1
    66    35    63    1
    67    35    64    1
    68    35    65    1
    69    38    66    1
    70    38    67    1
    71    38    68    1
