@<TRIPOS>MOLECULE
*****
 26 28 0 0 0
SMALL
GASTEIGER

@<TRIPOS>ATOM
      1 C          -2.8047   -0.7636   -0.4567 C.3     1  UNL1        0.0634
      2 C          -1.7097   -1.3908    0.3751 C.3     1  UNL1        0.0371
      3 N          -0.6401   -0.3947    0.4689 N.pl3   1  UNL1       -0.3090
      4 C          -1.0660    0.6773    1.3082 C.3     1  UNL1        0.0371
      5 C          -2.4804    1.0547    0.8867 C.3     1  UNL1        0.0634
      6 O          -2.6886    0.6387   -0.4300 O.3     1  UNL1       -0.3767
      7 C           0.5883   -0.5548   -0.2019 C.ar    1  UNL1        0.1524
      8 C           1.6369    0.3500   -0.1520 C.ar    1  UNL1        0.1474
      9 N           1.7522    1.5129    0.4893 N.ar    1  UNL1       -0.2308
     10 C           2.9526    2.0734    0.2624 C.ar    1  UNL1        0.0957
     11 N           3.6033    1.2210   -0.5519 N.ar    1  UNL1       -0.3292
     12 C           2.8084    0.1628   -0.8124 C.ar    1  UNL1        0.1627
     13 N           2.9348   -0.9698   -1.5487 N.ar    1  UNL1       -0.2162
     14 C           1.9181   -1.8706   -1.6112 C.ar    1  UNL1        0.1205
     15 N           0.7733   -1.6430   -0.9391 N.ar    1  UNL1       -0.2184
     16 H          -2.7540   -1.0713   -1.5216 H       1  UNL1        0.0575
     17 H          -3.8027   -1.0531   -0.0285 H       1  UNL1        0.0575
     18 H          -2.0841   -1.6652    1.3711 H       1  UNL1        0.0487
     19 H          -1.3186   -2.3231   -0.0898 H       1  UNL1        0.0487
     20 H          -1.1319    0.2619    2.3554 H       1  UNL1        0.0487
     21 H          -0.4947    1.6021    1.2674 H       1  UNL1        0.0487
     22 H          -2.6889    2.1346    0.9995 H       1  UNL1        0.0575
     23 H          -3.2312    0.5070    1.5000 H       1  UNL1        0.0575
     24 H           3.3661    3.0086    0.6279 H       1  UNL1        0.1027
     25 H           4.5637    1.2759   -0.9687 H       1  UNL1        0.1682
     26 H           1.9977   -2.7812   -2.1929 H       1  UNL1        0.1048
@<TRIPOS>BOND
     1     1     2    1
     2     2     3    1
     3     3     4    1
     4     4     5    1
     5     5     6    1
     6     3     7    1
     7     7     8   ar
     8     8     9   ar
     9     9    10   ar
    10    10    11   ar
    11    11    12   ar
    12    12    13   ar
    13    13    14   ar
    14    14    15   ar
    15     6     1    1
    16    15     7   ar
    17    12     8   ar
    18     1    16    1
    19     1    17    1
    20     2    18    1
    21     2    19    1
    22     4    20    1
    23     4    21    1
    24     5    22    1
    25     5    23    1
    26    10    24    1
    27    11    25    1
    28    14    26    1
