@<TRIPOS>MOLECULE
*****
 40 40 0 0 0
SMALL
GASTEIGER

@<TRIPOS>ATOM
      1 C           0.2098   -0.3273    0.3520 C.3     1  UNL1        0.1114
      2 O          -0.1792   -1.5968    0.0442 O.3     1  UNL1       -0.3321
      3 C          -1.4999   -1.8094   -0.2300 C.3     1  UNL1        0.2704
      4 O          -1.8368   -1.5530   -1.5622 O.3     1  UNL1       -0.3561
      5 C          -2.4665   -1.1676    0.7415 C.3     1  UNL1        0.0403
      6 C          -1.9374    0.1301    1.3172 C.3     1  UNL1        0.0815
      7 O          -2.9149    1.0424    1.6287 O.3     1  UNL1       -0.3897
      8 C          -0.9456    0.6475    0.2689 C.3     1  UNL1        0.0779
      9 N          -0.5579    1.9946    0.5081 N.am    1  UNL1       -0.3076
     10 C          -0.8467    3.0236   -0.4581 C.2     1  UNL1        0.2103
     11 C          -0.5117    4.4720   -0.3617 C.3     1  UNL1        0.0122
     12 O          -1.4581    2.6534   -1.5156 O.2     1  UNL1       -0.2761
     13 C          -1.7347   -3.2912   -0.0721 C.2     1  UNL1        0.3651
     14 O          -2.1545   -4.3966   -0.8001 O.3     1  UNL1       -0.4769
     15 O          -1.4477   -3.5935    1.1180 O.2     1  UNL1       -0.2449
     16 C           1.4509    0.1580   -0.3514 C.3     1  UNL1        0.1111
     17 O           1.2957    0.1525   -1.7454 O.3     1  UNL1       -0.3865
     18 C           2.5777   -0.7458    0.0799 C.3     1  UNL1        0.1065
     19 O           2.7024   -0.7150    1.4715 O.3     1  UNL1       -0.3869
     20 C           3.9142   -0.3416   -0.4877 C.3     1  UNL1        0.0727
     21 O           3.9599   -0.3213   -1.8649 O.3     1  UNL1       -0.3924
     22 H           0.4875   -0.3420    1.4466 H       1  UNL1        0.0643
     23 H          -1.5857   -2.2808   -2.1721 H       1  UNL1        0.2133
     24 H          -2.8086   -1.8606    1.5398 H       1  UNL1        0.0349
     25 H          -3.4039   -0.8730    0.1880 H       1  UNL1        0.0349
     26 H          -1.3278   -0.1654    2.2204 H       1  UNL1        0.0614
     27 H          -2.6086    1.4928    2.4793 H       1  UNL1        0.2099
     28 H          -1.4496    0.5836   -0.6965 H       1  UNL1        0.0550
     29 H          -0.0577    2.3417    1.3560 H       1  UNL1        0.1491
     30 H          -1.3601    5.0640    0.0125 H       1  UNL1        0.0322
     31 H          -0.2742    4.8358   -1.3926 H       1  UNL1        0.0322
     32 H           0.3992    4.6279    0.2528 H       1  UNL1        0.0322
     33 H          -2.9000   -4.9604   -0.3670 H       1  UNL1        0.2952
     34 H           1.5965    1.2177   -0.0634 H       1  UNL1        0.0646
     35 H           1.6139   -0.7094   -2.0870 H       1  UNL1        0.2100
     36 H           2.3128   -1.7630   -0.2357 H       1  UNL1        0.0643
     37 H           2.7986    0.2193    1.7928 H       1  UNL1        0.2100
     38 H           4.2900    0.5790   -0.0300 H       1  UNL1        0.0584
     39 H           4.6258   -1.1467   -0.1579 H       1  UNL1        0.0584
     40 H           4.0331   -1.2757   -2.1668 H       1  UNL1        0.2095
@<TRIPOS>BOND
     1     1     2    1
     2     2     3    1
     3     3     4    1
     4     3     5    1
     5     5     6    1
     6     6     7    1
     7     6     8    1
     8     8     9    1
     9     9    10   am
    10    10    11    1
    11    10    12    2
    12     3    13    1
    13    13    14    1
    14    13    15    2
    15     1    16    1
    16    16    17    1
    17    16    18    1
    18    18    19    1
    19    18    20    1
    20    20    21    1
    21     8     1    1
    22     1    22    1
    23     4    23    1
    24     5    24    1
    25     5    25    1
    26     6    26    1
    27     7    27    1
    28     8    28    1
    29     9    29    1
    30    11    30    1
    31    11    31    1
    32    11    32    1
    33    14    33    1
    34    16    34    1
    35    17    35    1
    36    18    36    1
    37    19    37    1
    38    20    38    1
    39    20    39    1
    40    21    40    1
