@<TRIPOS>MOLECULE
*****
 62 67 0 0 0
SMALL
GASTEIGER

@<TRIPOS>ATOM
      1 O          -4.0374   -0.2100   -1.6135 O.2     1  UNL1       -0.2444
      2 C          -2.9547    0.3292   -1.2674 C.ar    1  UNL1        0.3519
      3 N          -2.6563    1.6293   -1.4271 N.ar    1  UNL1       -0.2064
      4 C          -3.5622    2.6094   -2.0340 C.3     1  UNL1        0.0888
      5 C          -4.4082    3.2130   -0.9535 C.ar    1  UNL1        0.0627
      6 C          -3.9730    4.3312   -0.3121 C.ar    1  UNL1       -0.0386
      7 C          -4.7455    4.8890    0.6800 C.ar    1  UNL1       -0.0586
      8 C          -5.9467    4.2797    0.9854 C.ar    1  UNL1       -0.0436
      9 C          -6.3453    3.1548    0.3135 C.ar    1  UNL1        0.0279
     10 N          -5.5679    2.6497   -0.6377 N.ar    1  UNL1       -0.2580
     11 N          -1.4403    1.8326   -0.9492 N.ar    1  UNL1       -0.1478
     12 C          -0.9632    0.6570   -0.4835 C.ar    1  UNL1        0.1696
     13 C           0.3584    0.4779    0.1247 C.ar    1  UNL1        0.0243
     14 C           0.5281   -0.2801    1.2719 C.ar    1  UNL1       -0.0327
     15 C           1.7807   -0.4359    1.8280 C.ar    1  UNL1        0.0304
     16 N           2.8369    0.1474    1.2572 N.ar    1  UNL1       -0.2405
     17 C           2.7059    0.8903    0.1420 C.ar    1  UNL1        0.1195
     18 N           3.8647    1.5047   -0.4472 N.pl3   1  UNL1       -0.3261
     19 C           5.1766    1.3110    0.1795 C.3     1  UNL1        0.0261
     20 C           5.4610   -0.1685    0.1852 C.3     1  UNL1       -0.0109
     21 C           6.5220   -0.4123   -0.8790 C.3     1  UNL1        0.0493
     22 O           7.7116    0.2143   -0.5474 O.3     1  UNL1       -0.3796
     23 C           7.5921    1.5865   -0.4302 C.3     1  UNL1        0.0493
     24 C           6.1772    2.0772   -0.6190 C.3     1  UNL1       -0.0109
     25 C           1.4711    1.0661   -0.4384 C.ar    1  UNL1       -0.0112
     26 N          -1.9205   -0.2675   -0.6903 N.ar    1  UNL1       -0.2435
     27 C          -1.8284   -1.6455   -0.3453 C.ar    1  UNL1        0.0535
     28 C          -0.7625   -2.4394   -0.7184 C.ar    1  UNL1       -0.0370
     29 C          -0.6754   -3.7738   -0.3831 C.ar    1  UNL1       -0.0521
     30 C          -1.6820   -4.3782    0.3596 C.ar    1  UNL1       -0.0178
     31 C          -1.6297   -5.7041    0.7121 C.ar    1  UNL1       -0.0540
     32 C          -2.6488   -6.2619    1.4484 C.ar    1  UNL1       -0.0612
     33 C          -3.7099   -5.4604    1.8167 C.ar    1  UNL1       -0.0612
     34 C          -3.7650   -4.1288    1.4641 C.ar    1  UNL1       -0.0540
     35 C          -2.7442   -3.5672    0.7257 C.ar    1  UNL1       -0.0159
     36 C          -2.8330   -2.2349    0.3920 C.ar    1  UNL1       -0.0299
     37 H          -4.2523    2.1336   -2.7454 H       1  UNL1        0.0576
     38 H          -2.9987    3.3911   -2.5895 H       1  UNL1        0.0576
     39 H          -3.0153    4.8153   -0.5570 H       1  UNL1        0.0636
     40 H          -4.4369    5.7807    1.2176 H       1  UNL1        0.0619
     41 H          -6.5767    4.6915    1.7584 H       1  UNL1        0.0633
     42 H          -7.2882    2.6634    0.5422 H       1  UNL1        0.0829
     43 H          -0.3581   -0.7391    1.7067 H       1  UNL1        0.0640
     44 H           1.9142   -1.0382    2.7393 H       1  UNL1        0.0830
     45 H           3.7474    2.0746   -1.3071 H       1  UNL1        0.1477
     46 H           5.0819    1.6813    1.2197 H       1  UNL1        0.0499
     47 H           4.5619   -0.7716   -0.1107 H       1  UNL1        0.0305
     48 H           5.7891   -0.5545    1.1564 H       1  UNL1        0.0305
     49 H           6.1144   -0.0836   -1.8480 H       1  UNL1        0.0560
     50 H           6.7223   -1.5078   -0.8665 H       1  UNL1        0.0560
     51 H           8.1996    2.0376   -1.2431 H       1  UNL1        0.0560
     52 H           8.0115    1.9801    0.5180 H       1  UNL1        0.0560
     53 H           6.1636    3.1384   -0.2604 H       1  UNL1        0.0305
     54 H           5.9084    2.1440   -1.7049 H       1  UNL1        0.0305
     55 H           1.3420    1.6659   -1.3450 H       1  UNL1        0.0659
     56 H           0.0413   -1.9847   -1.3034 H       1  UNL1        0.0638
     57 H           0.1660   -4.3932   -0.6798 H       1  UNL1        0.0624
     58 H          -0.7895   -6.3068    0.4113 H       1  UNL1        0.0624
     59 H          -2.6410   -7.3208    1.7492 H       1  UNL1        0.0618
     60 H          -4.5328   -5.8687    2.3991 H       1  UNL1        0.0618
     61 H          -4.5925   -3.5077    1.7524 H       1  UNL1        0.0624
     62 H          -3.6678   -1.6025    0.6812 H       1  UNL1        0.0644
@<TRIPOS>BOND
     1     1     2    2
     2     2     3   ar
     3     3     4    1
     4     4     5    1
     5     5     6   ar
     6     6     7   ar
     7     7     8   ar
     8     8     9   ar
     9     9    10   ar
    10     3    11   ar
    11    11    12   ar
    12    12    13    1
    13    13    14   ar
    14    14    15   ar
    15    15    16   ar
    16    16    17   ar
    17    17    18    1
    18    18    19    1
    19    19    20    1
    20    20    21    1
    21    21    22    1
    22    22    23    1
    23    23    24    1
    24    17    25   ar
    25    12    26   ar
    26    26    27    1
    27    27    28   ar
    28    28    29   ar
    29    29    30   ar
    30    30    31   ar
    31    31    32   ar
    32    32    33   ar
    33    33    34   ar
    34    34    35   ar
    35    35    36   ar
    36    26     2   ar
    37    36    27   ar
    38    10     5   ar
    39    25    13   ar
    40    35    30   ar
    41    24    19    1
    42     4    37    1
    43     4    38    1
    44     6    39    1
    45     7    40    1
    46     8    41    1
    47     9    42    1
    48    14    43    1
    49    15    44    1
    50    18    45    1
    51    19    46    1
    52    20    47    1
    53    20    48    1
    54    21    49    1
    55    21    50    1
    56    23    51    1
    57    23    52    1
    58    24    53    1
    59    24    54    1
    60    25    55    1
    61    28    56    1
    62    29    57    1
    63    31    58    1
    64    32    59    1
    65    33    60    1
    66    34    61    1
    67    36    62    1
