@<TRIPOS>MOLECULE
*****
 55 58 0 0 0
SMALL
GASTEIGER

@<TRIPOS>ATOM
      1 C           3.1949    3.0551    0.9267 C.3     1  UNL1        0.0788
      2 O           2.8777    1.6868    0.7793 O.3     1  UNL1       -0.4944
      3 C           3.8546    0.7379    0.9587 C.ar    1  UNL1        0.1322
      4 C           5.1611    1.1283    1.2869 C.ar    1  UNL1       -0.0192
      5 C           6.1821    0.2382    1.4797 C.ar    1  UNL1       -0.0583
      6 C           5.8711   -1.0954    1.3357 C.ar    1  UNL1       -0.0608
      7 C           4.6104   -1.5288    1.0160 C.ar    1  UNL1       -0.0461
      8 C           3.5683   -0.5967    0.8204 C.ar    1  UNL1        0.0786
      9 C           2.2458   -1.1177    0.4820 C.2     1  UNL1        0.2518
     10 O           2.1724   -2.3914    0.3965 O.2     1  UNL1       -0.2697
     11 N           1.0734   -0.4291    0.2435 N.am    1  UNL1       -0.2798
     12 C          -0.2268   -0.9066   -0.0849 C.ar    1  UNL1        0.0570
     13 C          -0.5377   -2.2360   -0.1342 C.ar    1  UNL1       -0.0130
     14 C          -1.7951   -2.7245   -0.4499 C.ar    1  UNL1        0.0714
     15 C          -2.7938   -1.8360   -0.7307 C.ar    1  UNL1        0.0714
     16 C          -2.5213   -0.4924   -0.6918 C.ar    1  UNL1       -0.0132
     17 C          -1.2539   -0.0183   -0.3737 C.ar    1  UNL1        0.0533
     18 N          -0.9908    1.3683   -0.3612 N.pl3   1  UNL1       -0.3284
     19 C          -0.1236    2.0849   -1.2702 C.3     1  UNL1        0.0122
     20 C          -0.9282    3.1567   -2.0132 C.3     1  UNL1       -0.0372
     21 C          -1.6950    4.0108   -1.0229 C.3     1  UNL1       -0.0502
     22 C          -2.5373    3.2254   -0.0787 C.3     1  UNL1       -0.0372
     23 C          -1.6598    2.2164    0.6439 C.3     1  UNL1        0.0122
     24 N          -3.8860   -2.5861   -0.9969 N.ar    1  UNL1       -0.2950
     25 C          -5.1858   -2.0892   -1.3467 C.3     1  UNL1        0.0167
     26 C          -3.5784   -3.8920   -0.8860 C.ar    1  UNL1        0.3297
     27 O          -4.3977   -4.8531   -1.0763 O.2     1  UNL1       -0.2463
     28 N          -2.2914   -3.9726   -0.5494 N.ar    1  UNL1       -0.2950
     29 C          -1.5461   -5.1947   -0.3267 C.3     1  UNL1        0.0167
     30 H           4.0485    3.3496    0.2576 H       1  UNL1        0.0660
     31 H           3.5204    3.2541    1.9810 H       1  UNL1        0.0660
     32 H           2.3396    3.6640    0.6407 H       1  UNL1        0.0660
     33 H           5.3754    2.1803    1.3932 H       1  UNL1        0.0654
     34 H           7.1751    0.5853    1.7318 H       1  UNL1        0.0619
     35 H           6.6380   -1.8408    1.4764 H       1  UNL1        0.0618
     36 H           4.3972   -2.5789    0.9100 H       1  UNL1        0.0626
     37 H           1.1298    0.6302    0.3234 H       1  UNL1        0.1552
     38 H           0.2029   -2.9966    0.0813 H       1  UNL1        0.0658
     39 H          -3.3145    0.2126   -0.9147 H       1  UNL1        0.0658
     40 H           0.6255    2.6342   -0.6850 H       1  UNL1        0.0464
     41 H           0.3771    1.4537   -1.9951 H       1  UNL1        0.0464
     42 H          -1.6130    2.7375   -2.7580 H       1  UNL1        0.0280
     43 H          -0.2129    3.8229   -2.5333 H       1  UNL1        0.0280
     44 H          -2.3628    4.6688   -1.6305 H       1  UNL1        0.0266
     45 H          -1.0216    4.6590   -0.4303 H       1  UNL1        0.0266
     46 H          -2.9432    3.8966    0.6791 H       1  UNL1        0.0280
     47 H          -3.3523    2.6701   -0.5766 H       1  UNL1        0.0280
     48 H          -2.3155    1.6192    1.2865 H       1  UNL1        0.0464
     49 H          -0.9037    2.7056    1.2786 H       1  UNL1        0.0464
     50 H          -5.9634   -2.8514   -1.1304 H       1  UNL1        0.0457
     51 H          -5.4159   -1.2321   -0.6557 H       1  UNL1        0.0457
     52 H          -5.2916   -1.8106   -2.4106 H       1  UNL1        0.0457
     53 H          -2.2119   -6.0588   -0.1892 H       1  UNL1        0.0457
     54 H          -0.8516   -5.3191   -1.1909 H       1  UNL1        0.0457
     55 H          -0.9187   -5.0033    0.5926 H       1  UNL1        0.0457
@<TRIPOS>BOND
     1     1     2    1
     2     2     3    1
     3     3     4   ar
     4     4     5   ar
     5     5     6   ar
     6     6     7   ar
     7     7     8   ar
     8     8     9    1
     9     9    10    2
    10     9    11   am
    11    11    12    1
    12    12    13   ar
    13    13    14   ar
    14    14    15   ar
    15    15    16   ar
    16    16    17   ar
    17    17    18    1
    18    18    19    1
    19    19    20    1
    20    20    21    1
    21    21    22    1
    22    22    23    1
    23    15    24   ar
    24    24    25    1
    25    24    26   ar
    26    26    27    2
    27    26    28   ar
    28    28    29    1
    29     8     3   ar
    30    17    12   ar
    31    23    18    1
    32    28    14   ar
    33     1    30    1
    34     1    31    1
    35     1    32    1
    36     4    33    1
    37     5    34    1
    38     6    35    1
    39     7    36    1
    40    11    37    1
    41    13    38    1
    42    16    39    1
    43    19    40    1
    44    19    41    1
    45    20    42    1
    46    20    43    1
    47    21    44    1
    48    21    45    1
    49    22    46    1
    50    22    47    1
    51    23    48    1
    52    23    49    1
    53    25    50    1
    54    25    51    1
    55    25    52    1
    56    29    53    1
    57    29    54    1
    58    29    55    1
