@<TRIPOS>MOLECULE
*****
 58 62 0 0 0
SMALL
GASTEIGER

@<TRIPOS>ATOM
      1 C           8.0645   -2.1670    1.2295 C.3     1  UNL1        0.0128
      2 N           6.7918   -1.9882    0.5348 N.ar    1  UNL1       -0.3379
      3 C           6.0455   -3.0094    0.0654 C.ar    1  UNL1        0.0980
      4 N           4.9351   -2.5437   -0.5221 N.ar    1  UNL1       -0.2163
      5 C           4.9772   -1.1938   -0.4222 C.ar    1  UNL1        0.2114
      6 S           3.7446   -0.1408   -1.0461 S.O2    1  UNL1        0.0795
      7 O           4.1565    1.2893   -0.8235 O.2     1  UNL1       -0.1513
      8 O           3.5590   -0.3180   -2.5317 O.2     1  UNL1       -0.1513
      9 N           2.2387   -0.4936   -0.2828 N.3     1  UNL1       -0.1745
     10 C           1.8650    0.6827    0.4792 C.3     1  UNL1        0.0243
     11 C           1.1367    1.5629   -0.5120 C.3     1  UNL1       -0.0146
     12 C           0.6091    0.6463   -1.5573 C.3     1  UNL1       -0.0146
     13 C           1.1991   -0.6890   -1.2674 C.3     1  UNL1        0.0243
     14 C          -0.3431    1.3081   -0.5969 C.3     1  UNL1       -0.0048
     15 C          -0.9240    0.4351    0.4531 C.3     1  UNL1        0.0182
     16 N          -2.3351    0.2131    0.2657 N.am    1  UNL1       -0.3108
     17 C          -3.0332   -0.6409    1.2036 C.2     1  UNL1        0.2446
     18 O          -2.3666   -1.1371    2.1519 O.2     1  UNL1       -0.2702
     19 C          -4.4339   -0.9345    1.0875 C.ar    1  UNL1        0.0483
     20 C          -5.3920   -0.2879    1.8677 C.ar    1  UNL1       -0.0491
     21 C          -6.7295   -0.6087    1.7569 C.ar    1  UNL1       -0.0610
     22 C          -7.1783   -1.5695    0.8814 C.ar    1  UNL1       -0.0612
     23 C          -6.2476   -2.2096    0.1099 C.ar    1  UNL1       -0.0494
     24 C          -4.8885   -1.8954    0.2114 C.ar    1  UNL1        0.0669
     25 C          -3.9293   -2.6209   -0.6592 C.3     1  UNL1        0.4181
     26 F          -3.2538   -1.8010   -1.5094 F       1  UNL1       -0.1659
     27 F          -3.0429   -3.3735    0.1297 F       1  UNL1       -0.1659
     28 F          -4.5998   -3.5541   -1.4240 F       1  UNL1       -0.1659
     29 C          -1.1220    2.4800   -1.1070 C.3     1  UNL1       -0.0425
     30 C          -1.0951    3.7310   -0.3180 C.3     1  UNL1       -0.0405
     31 C          -1.6289    3.7891    1.1023 C.3     1  UNL1       -0.0499
     32 C          -0.1831    3.9543    0.8550 C.3     1  UNL1       -0.0499
     33 C           6.1328   -0.8820    0.2337 C.ar    1  UNL1        0.0507
     34 H           8.3306   -1.1932    1.6506 H       1  UNL1        0.0456
     35 H           8.8121   -2.4353    0.4253 H       1  UNL1        0.0456
     36 H           8.0180   -2.9904    1.9753 H       1  UNL1        0.0456
     37 H           6.2859   -4.0633    0.1378 H       1  UNL1        0.1029
     38 H           1.1991    0.4708    1.3248 H       1  UNL1        0.0447
     39 H           2.7541    1.2470    0.8370 H       1  UNL1        0.0447
     40 H           1.5971    2.4720   -0.8871 H       1  UNL1        0.0323
     41 H           0.5448    0.9981   -2.6206 H       1  UNL1        0.0323
     42 H           0.4914   -1.4908   -1.0343 H       1  UNL1        0.0447
     43 H           1.7116   -1.0273   -2.2157 H       1  UNL1        0.0447
     44 H          -0.7896    0.8371    1.4876 H       1  UNL1        0.0468
     45 H          -0.4092   -0.5589    0.4866 H       1  UNL1        0.0468
     46 H          -2.9304    0.6035   -0.4813 H       1  UNL1        0.1490
     47 H          -5.0163    0.4579    2.5419 H       1  UNL1        0.0625
     48 H          -7.4431   -0.0834    2.3888 H       1  UNL1        0.0618
     49 H          -8.2305   -1.8264    0.7989 H       1  UNL1        0.0618
     50 H          -6.5415   -2.9804   -0.5981 H       1  UNL1        0.0623
     51 H          -0.7588    2.7493   -2.1452 H       1  UNL1        0.0274
     52 H          -2.1800    2.1971   -1.2586 H       1  UNL1        0.0274
     53 H          -1.3422    4.6589   -0.9386 H       1  UNL1        0.0301
     54 H          -1.9661    2.8926    1.6098 H       1  UNL1        0.0268
     55 H          -2.1575    4.7398    1.3938 H       1  UNL1        0.0268
     56 H           0.2950    4.9858    0.8783 H       1  UNL1        0.0268
     57 H           0.5389    3.1822    1.0863 H       1  UNL1        0.0268
     58 H           6.4576    0.1237    0.4708 H       1  UNL1        0.0845
@<TRIPOS>BOND
     1     1     2    1
     2     2     3   ar
     3     3     4   ar
     4     4     5   ar
     5     5     6    1
     6     6     7    2
     7     6     8    2
     8     6     9    1
     9     9    10    1
    10    10    11    1
    11    11    12    1
    12    12    13    1
    13    12    14    1
    14    14    15    1
    15    15    16    1
    16    16    17   am
    17    17    18    2
    18    17    19    1
    19    19    20   ar
    20    20    21   ar
    21    21    22   ar
    22    22    23   ar
    23    23    24   ar
    24    24    25    1
    25    25    26    1
    26    25    27    1
    27    25    28    1
    28    14    29    1
    29    29    30    1
    30    30    31    1
    31    31    32    1
    32     5    33   ar
    33    33     2   ar
    34    13     9    1
    35    24    19   ar
    36    32    30    1
    37    14    11    1
    38     1    34    1
    39     1    35    1
    40     1    36    1
    41     3    37    1
    42    10    38    1
    43    10    39    1
    44    11    40    1
    45    12    41    1
    46    13    42    1
    47    13    43    1
    48    15    44    1
    49    15    45    1
    50    16    46    1
    51    20    47    1
    52    21    48    1
    53    22    49    1
    54    23    50    1
    55    29    51    1
    56    29    52    1
    57    30    53    1
    58    31    54    1
    59    31    55    1
    60    32    56    1
    61    32    57    1
    62    33    58    1
