
     RDKit          3D

 73 77  0  0  0  0  0  0  0  0999 V2000
   -7.4369    0.1098    5.3358 C   0  0  0  0  0  0  0  0  0  0  0  0
   -6.7166   -0.2289    4.1551 O   0  0  0  0  0  0  0  0  0  0  0  0
   -5.8830    0.6571    3.5089 C   0  0  0  0  0  0  0  0  0  0  0  0
   -5.7765    1.8127    4.0149 O   0  0  0  0  0  0  0  0  0  0  0  0
   -5.1311    0.3467    2.2996 C   0  0  0  0  0  0  0  0  0  0  0  0
   -4.3063    1.2771    1.6974 C   0  0  0  0  0  0  0  0  0  0  0  0
   -3.6012    0.9782    0.5560 C   0  0  0  0  0  0  0  0  0  0  0  0
   -3.7011   -0.3007   -0.0393 C   0  0  0  0  0  0  0  0  0  0  0  0
   -4.5148   -1.2373    0.5413 C   0  0  0  0  0  0  0  0  0  0  0  0
   -5.2167   -0.8896    1.7078 C   0  0  0  0  0  0  0  0  0  0  0  0
   -4.4998   -2.4408   -0.2229 N   0  0  0  0  0  0  0  0  0  0  0  0
   -3.6441   -2.2425   -1.3265 C   0  0  0  0  0  0  0  0  0  0  0  0
   -3.4376   -3.1040   -2.2532 O   0  0  0  0  0  0  0  0  0  0  0  0
   -3.0568   -0.8978   -1.2052 C   0  0  0  0  0  0  0  0  0  0  0  0
   -3.0419   -0.1066   -2.4293 C   0  0  0  0  0  0  0  0  0  0  0  0
   -1.9147    0.3269   -2.8722 N   0  0  0  0  0  0  0  0  0  0  0  0
   -0.6656    0.0921   -2.2526 C   0  0  0  0  0  0  0  0  0  0  0  0
   -0.1087    1.0520   -1.3942 C   0  0  0  0  0  0  0  0  0  0  0  0
    1.1262    0.8303   -0.7995 C   0  0  0  0  0  0  0  0  0  0  0  0
    1.8312   -0.3097   -1.0251 C   0  0  0  0  0  0  0  0  0  0  0  0
    3.1239   -0.5883   -0.4445 N   0  0  0  0  0  0  0  0  0  0  0  0
    3.1165   -1.3372    0.7699 C   0  0  0  0  0  0  0  0  0  0  0  0
    4.2587   -0.1739   -1.1150 C   0  0  0  0  0  0  0  0  0  0  0  0
    4.0474    0.2888   -2.3210 O   0  0  0  0  0  0  0  0  0  0  0  0
    5.6560   -0.1691   -0.7065 C   0  0  0  0  0  0  0  0  0  0  0  0
    5.8416   -0.5615    0.6526 N   0  0  0  0  0  0  0  0  0  0  0  0
    7.2366   -0.9275    0.9183 C   0  0  0  0  0  0  0  0  0  0  0  0
    8.1599    0.2399    0.8065 C   0  0  0  0  0  0  0  0  0  0  0  0
    7.8221    1.2726    1.7728 N   0  0  0  0  0  0  0  0  0  0  0  0
    8.0670    0.7849    3.0976 C   0  0  0  0  0  0  0  0  0  0  0  0
    6.4588    1.6217    1.5690 C   0  0  0  0  0  0  0  0  0  0  0  0
    5.4632    0.5126    1.5654 C   0  0  0  0  0  0  0  0  0  0  0  0
    1.3139   -1.2715   -1.8608 C   0  0  0  0  0  0  0  0  0  0  0  0
    0.0700   -1.0497   -2.4605 C   0  0  0  0  0  0  0  0  0  0  0  0
   -4.2241    0.2529   -3.2092 C   0  0  0  0  0  0  0  0  0  0  0  0
   -4.1160    1.0193   -4.3598 C   0  0  0  0  0  0  0  0  0  0  0  0
   -5.1852    1.3743   -5.1213 C   0  0  0  0  0  0  0  0  0  0  0  0
   -6.4581    0.9798   -4.7777 C   0  0  0  0  0  0  0  0  0  0  0  0
   -6.6131    0.2192   -3.6455 C   0  0  0  0  0  0  0  0  0  0  0  0
   -5.5055   -0.1336   -2.8794 C   0  0  0  0  0  0  0  0  0  0  0  0
   -7.1430    1.1238    5.6999 H   0  0  0  0  0  0  0  0  0  0  0  0
   -7.1261   -0.6162    6.1150 H   0  0  0  0  0  0  0  0  0  0  0  0
   -8.5268   -0.0010    5.1907 H   0  0  0  0  0  0  0  0  0  0  0  0
   -4.2164    2.2670    2.1430 H   0  0  0  0  0  0  0  0  0  0  0  0
   -2.9442    1.6841    0.0569 H   0  0  0  0  0  0  0  0  0  0  0  0
   -5.8564   -1.6494    2.1531 H   0  0  0  0  0  0  0  0  0  0  0  0
   -5.0488   -3.3016    0.0308 H   0  0  0  0  0  0  0  0  0  0  0  0
   -1.9832   -1.1070   -0.8594 H   0  0  0  0  0  0  0  0  0  0  0  0
   -0.6527    1.9677   -1.2005 H   0  0  0  0  0  0  0  0  0  0  0  0
    1.5557    1.5827   -0.1306 H   0  0  0  0  0  0  0  0  0  0  0  0
    2.2789   -2.0993    0.7060 H   0  0  0  0  0  0  0  0  0  0  0  0
    2.8797   -0.7270    1.6757 H   0  0  0  0  0  0  0  0  0  0  0  0
    4.0012   -1.9294    0.9940 H   0  0  0  0  0  0  0  0  0  0  0  0
    6.0720    0.8836   -0.7948 H   0  0  0  0  0  0  0  0  0  0  0  0
    6.2528   -0.8447   -1.3750 H   0  0  0  0  0  0  0  0  0  0  0  0
    7.2901   -1.4324    1.8999 H   0  0  0  0  0  0  0  0  0  0  0  0
    7.5116   -1.6743    0.1496 H   0  0  0  0  0  0  0  0  0  0  0  0
    8.0259    0.6923   -0.2026 H   0  0  0  0  0  0  0  0  0  0  0  0
    9.1945   -0.0954    0.9296 H   0  0  0  0  0  0  0  0  0  0  0  0
    7.1553    0.6562    3.7063 H   0  0  0  0  0  0  0  0  0  0  0  0
    8.5528   -0.2321    3.0621 H   0  0  0  0  0  0  0  0  0  0  0  0
    8.8221    1.4425    3.5962 H   0  0  0  0  0  0  0  0  0  0  0  0
    6.1273    2.3232    2.3977 H   0  0  0  0  0  0  0  0  0  0  0  0
    6.3287    2.2405    0.6499 H   0  0  0  0  0  0  0  0  0  0  0  0
    4.5109    0.9631    1.1858 H   0  0  0  0  0  0  0  0  0  0  0  0
    5.3232    0.0797    2.5766 H   0  0  0  0  0  0  0  0  0  0  0  0
    1.8491   -2.1980   -2.0647 H   0  0  0  0  0  0  0  0  0  0  0  0
   -0.2852   -1.8417   -3.1072 H   0  0  0  0  0  0  0  0  0  0  0  0
   -3.1280    1.3393   -4.6467 H   0  0  0  0  0  0  0  0  0  0  0  0
   -5.0361    1.9863   -6.0263 H   0  0  0  0  0  0  0  0  0  0  0  0
   -7.2980    1.2696   -5.3917 H   0  0  0  0  0  0  0  0  0  0  0  0
   -7.6195   -0.1035   -3.3583 H   0  0  0  0  0  0  0  0  0  0  0  0
   -5.7050   -0.7274   -2.0092 H   0  0  0  0  0  0  0  0  0  0  0  0
  1  2  1  0
  2  3  1  0
  3  4  2  0
  3  5  1  0
  5  6  2  0
  6  7  1  0
  7  8  2  0
  8  9  1  0
  9 10  2  0
  9 11  1  0
 11 12  1  0
 12 13  2  0
 12 14  1  0
 14 15  1  0
 15 16  2  3
 16 17  1  0
 17 18  2  0
 18 19  1  0
 19 20  2  0
 20 21  1  0
 21 22  1  0
 21 23  1  0
 23 24  2  0
 23 25  1  0
 25 26  1  0
 26 27  1  0
 27 28  1  0
 28 29  1  0
 29 30  1  0
 29 31  1  0
 31 32  1  0
 20 33  1  0
 33 34  2  0
 15 35  1  0
 35 36  2  0
 36 37  1  0
 37 38  2  0
 38 39  1  0
 39 40  2  0
 10  5  1  0
 34 17  1  0
 40 35  1  0
 14  8  1  0
 32 26  1  0
  1 41  1  0
  1 42  1  0
  1 43  1  0
  6 44  1  0
  7 45  1  0
 10 46  1  0
 11 47  1  0
 14 48  1  0
 18 49  1  0
 19 50  1  0
 22 51  1  0
 22 52  1  0
 22 53  1  0
 25 54  1  0
 25 55  1  0
 27 56  1  0
 27 57  1  0
 28 58  1  0
 28 59  1  0
 30 60  1  0
 30 61  1  0
 30 62  1  0
 31 63  1  0
 31 64  1  0
 32 65  1  0
 32 66  1  0
 33 67  1  0
 34 68  1  0
 36 69  1  0
 37 70  1  0
 38 71  1  0
 39 72  1  0
 40 73  1  0
M  END
$$$$
