@<TRIPOS>MOLECULE
*****
 73 77 0 0 0
SMALL
GASTEIGER

@<TRIPOS>ATOM
      1 C          -7.4369    0.1098    5.3358 C.3     1  UNL1        0.0820
      2 O          -6.7166   -0.2289    4.1551 O.3     1  UNL1       -0.4644
      3 C          -5.8830    0.6571    3.5089 C.2     1  UNL1        0.3390
      4 O          -5.7765    1.8127    4.0149 O.2     1  UNL1       -0.2450
      5 C          -5.1311    0.3467    2.2996 C.ar    1  UNL1        0.0608
      6 C          -4.3063    1.2771    1.6974 C.ar    1  UNL1       -0.0474
      7 C          -3.6012    0.9782    0.5560 C.ar    1  UNL1       -0.0549
      8 C          -3.7011   -0.3007   -0.0393 C.ar    1  UNL1       -0.0084
      9 C          -4.5148   -1.2373    0.5413 C.ar    1  UNL1        0.0385
     10 C          -5.2167   -0.8896    1.7078 C.ar    1  UNL1       -0.0262
     11 N          -4.4998   -2.4408   -0.2229 N.am    1  UNL1       -0.2844
     12 C          -3.6441   -2.2425   -1.3265 C.2     1  UNL1        0.2306
     13 O          -3.4376   -3.1040   -2.2532 O.2     1  UNL1       -0.2744
     14 C          -3.0568   -0.8978   -1.2052 C.3     1  UNL1        0.1051
     15 C          -3.0419   -0.1066   -2.4293 C.2     1  UNL1        0.0653
     16 N          -1.9147    0.3269   -2.8722 N.2     1  UNL1       -0.2505
     17 C          -0.6656    0.0921   -2.2526 C.ar    1  UNL1        0.0643
     18 C          -0.1087    1.0520   -1.3942 C.ar    1  UNL1       -0.0346
     19 C           1.1262    0.8303   -0.7995 C.ar    1  UNL1       -0.0383
     20 C           1.8312   -0.3097   -1.0251 C.ar    1  UNL1        0.0361
     21 N           3.1239   -0.5883   -0.4445 N.am    1  UNL1       -0.2734
     22 C           3.1165   -1.3372    0.7699 C.3     1  UNL1        0.0083
     23 C           4.2587   -0.1739   -1.1150 C.2     1  UNL1        0.2336
     24 O           4.0474    0.2888   -2.3210 O.2     1  UNL1       -0.2739
     25 C           5.6560   -0.1691   -0.7065 C.3     1  UNL1        0.0763
     26 N           5.8416   -0.5615    0.6526 N.3     1  UNL1       -0.2916
     27 C           7.2366   -0.9275    0.9183 C.3     1  UNL1        0.0122
     28 C           8.1599    0.2399    0.8065 C.3     1  UNL1        0.0114
     29 N           7.8221    1.2726    1.7728 N.3     1  UNL1       -0.3029
     30 C           8.0670    0.7849    3.0976 C.3     1  UNL1       -0.0127
     31 C           6.4588    1.6217    1.5690 C.3     1  UNL1        0.0114
     32 C           5.4632    0.5126    1.5654 C.3     1  UNL1        0.0122
     33 C           1.3139   -1.2715   -1.8608 C.ar    1  UNL1       -0.0383
     34 C           0.0700   -1.0497   -2.4605 C.ar    1  UNL1       -0.0346
     35 C          -4.2241    0.2529   -3.2092 C.ar    1  UNL1       -0.0027
     36 C          -4.1160    1.0193   -4.3598 C.ar    1  UNL1       -0.0528
     37 C          -5.1852    1.3743   -5.1213 C.ar    1  UNL1       -0.0611
     38 C          -6.4581    0.9798   -4.7777 C.ar    1  UNL1       -0.0617
     39 C          -6.6131    0.2192   -3.6455 C.ar    1  UNL1       -0.0611
     40 C          -5.5055   -0.1336   -2.8794 C.ar    1  UNL1       -0.0528
     41 H          -7.1430    1.1238    5.6999 H       1  UNL1        0.0661
     42 H          -7.1261   -0.6162    6.1150 H       1  UNL1        0.0661
     43 H          -8.5268   -0.0010    5.1907 H       1  UNL1        0.0661
     44 H          -4.2164    2.2670    2.1430 H       1  UNL1        0.0626
     45 H          -2.9442    1.6841    0.0569 H       1  UNL1        0.0621
     46 H          -5.8564   -1.6494    2.1531 H       1  UNL1        0.0644
     47 H          -5.0488   -3.3016    0.0308 H       1  UNL1        0.1548
     48 H          -1.9832   -1.1070   -0.8594 H       1  UNL1        0.0508
     49 H          -0.6527    1.9677   -1.2005 H       1  UNL1        0.0639
     50 H           1.5557    1.5827   -0.1306 H       1  UNL1        0.0637
     51 H           2.2789   -2.0993    0.7060 H       1  UNL1        0.0433
     52 H           2.8797   -0.7270    1.6757 H       1  UNL1        0.0433
     53 H           4.0012   -1.9294    0.9940 H       1  UNL1        0.0433
     54 H           6.0720    0.8836   -0.7948 H       1  UNL1        0.0522
     55 H           6.2528   -0.8447   -1.3750 H       1  UNL1        0.0522
     56 H           7.2901   -1.4324    1.8999 H       1  UNL1        0.0439
     57 H           7.5116   -1.6743    0.1496 H       1  UNL1        0.0439
     58 H           8.0259    0.6923   -0.2026 H       1  UNL1        0.0439
     59 H           9.1945   -0.0954    0.9296 H       1  UNL1        0.0439
     60 H           7.1553    0.6562    3.7063 H       1  UNL1        0.0391
     61 H           8.5528   -0.2321    3.0621 H       1  UNL1        0.0391
     62 H           8.8221    1.4425    3.5962 H       1  UNL1        0.0391
     63 H           6.1273    2.3232    2.3977 H       1  UNL1        0.0439
     64 H           6.3287    2.2405    0.6499 H       1  UNL1        0.0439
     65 H           4.5109    0.9631    1.1858 H       1  UNL1        0.0439
     66 H           5.3232    0.0797    2.5766 H       1  UNL1        0.0439
     67 H           1.8491   -2.1980   -2.0647 H       1  UNL1        0.0637
     68 H          -0.2852   -1.8417   -3.1072 H       1  UNL1        0.0639
     69 H          -3.1280    1.3393   -4.6467 H       1  UNL1        0.0624
     70 H          -5.0361    1.9863   -6.0263 H       1  UNL1        0.0618
     71 H          -7.2980    1.2696   -5.3917 H       1  UNL1        0.0618
     72 H          -7.6195   -0.1035   -3.3583 H       1  UNL1        0.0618
     73 H          -5.7050   -0.7274   -2.0092 H       1  UNL1        0.0624
@<TRIPOS>BOND
     1     1     2    1
     2     2     3    1
     3     3     4    2
     4     3     5    1
     5     5     6   ar
     6     6     7   ar
     7     7     8   ar
     8     8     9   ar
     9     9    10   ar
    10     9    11    1
    11    11    12   am
    12    12    13    2
    13    12    14    1
    14    14    15    1
    15    15    16    2
    16    16    17    1
    17    17    18   ar
    18    18    19   ar
    19    19    20   ar
    20    20    21    1
    21    21    22    1
    22    21    23   am
    23    23    24    2
    24    23    25    1
    25    25    26    1
    26    26    27    1
    27    27    28    1
    28    28    29    1
    29    29    30    1
    30    29    31    1
    31    31    32    1
    32    20    33   ar
    33    33    34   ar
    34    15    35    1
    35    35    36   ar
    36    36    37   ar
    37    37    38   ar
    38    38    39   ar
    39    39    40   ar
    40    10     5   ar
    41    34    17   ar
    42    40    35   ar
    43    14     8    1
    44    32    26    1
    45     1    41    1
    46     1    42    1
    47     1    43    1
    48     6    44    1
    49     7    45    1
    50    10    46    1
    51    11    47    1
    52    14    48    1
    53    18    49    1
    54    19    50    1
    55    22    51    1
    56    22    52    1
    57    22    53    1
    58    25    54    1
    59    25    55    1
    60    27    56    1
    61    27    57    1
    62    28    58    1
    63    28    59    1
    64    30    60    1
    65    30    61    1
    66    30    62    1
    67    31    63    1
    68    31    64    1
    69    32    65    1
    70    32    66    1
    71    33    67    1
    72    34    68    1
    73    36    69    1
    74    37    70    1
    75    38    71    1
    76    39    72    1
    77    40    73    1
