@<TRIPOS>MOLECULE
*****
 55 58 0 0 0
SMALL
GASTEIGER

@<TRIPOS>ATOM
      1 C          -8.1115    0.6283    1.1048 C.3     1  UNL1       -0.0127
      2 N          -6.7243    0.3242    0.8510 N.3     1  UNL1       -0.3029
      3 C          -6.5255   -0.5967   -0.2226 C.3     1  UNL1        0.0114
      4 C          -5.0397   -0.9140   -0.2648 C.3     1  UNL1        0.0118
      5 N          -4.2536    0.2441   -0.5877 N.3     1  UNL1       -0.2982
      6 C          -2.8901    0.1012   -0.1128 C.3     1  UNL1        0.0171
      7 C          -2.2720   -1.0127   -0.9716 C.3     1  UNL1        0.0388
      8 N          -0.9072   -1.1796   -0.5161 N.ar    1  UNL1       -0.3136
      9 C          -0.5562   -2.0319    0.4601 C.ar    1  UNL1        0.0984
     10 N           0.7543   -1.9462    0.6332 N.ar    1  UNL1       -0.2306
     11 C           1.2672   -1.0413   -0.2249 C.ar    1  UNL1        0.1475
     12 C           2.5610   -0.5808   -0.4535 C.ar    1  UNL1        0.1513
     13 N           3.6679   -1.0703    0.2939 N.pl3   1  UNL1       -0.3244
     14 C           4.9990   -0.5803    0.0287 C.3     1  UNL1        0.0220
     15 C           6.0585   -1.1962    0.9231 C.3     1  UNL1       -0.0345
     16 C           7.3867   -0.9566    0.2474 C.3     1  UNL1       -0.0514
     17 C           7.5672    0.5154    0.0214 C.3     1  UNL1       -0.0529
     18 C           6.4653    1.3672    0.5526 C.3     1  UNL1       -0.0514
     19 C           5.1000    0.9343    0.0534 C.3     1  UNL1       -0.0345
     20 N           2.6976    0.3483   -1.4132 N.ar    1  UNL1       -0.2014
     21 C           1.6749    0.8405   -2.1423 C.ar    1  UNL1        0.2356
     22 N           0.4306    0.3654   -1.8881 N.ar    1  UNL1       -0.1987
     23 C           0.1993   -0.5621   -0.9491 C.ar    1  UNL1        0.1667
     24 C           1.9176    1.8420   -3.1573 C.1     1  UNL1        0.1400
     25 N           2.1268    2.6513   -3.9734 N.1     1  UNL1       -0.1876
     26 C          -4.8625    1.4977   -0.2869 C.3     1  UNL1        0.0118
     27 C          -5.9017    1.4855    0.7810 C.3     1  UNL1        0.0114
     28 H          -8.1913    1.3121    1.9561 H       1  UNL1        0.0391
     29 H          -8.5792   -0.3493    1.4180 H       1  UNL1        0.0391
     30 H          -8.6828    0.9293    0.2023 H       1  UNL1        0.0391
     31 H          -6.8356   -0.2084   -1.2191 H       1  UNL1        0.0439
     32 H          -7.0563   -1.5273    0.0042 H       1  UNL1        0.0439
     33 H          -4.7583   -1.3347    0.7242 H       1  UNL1        0.0439
     34 H          -4.8766   -1.7235   -1.0229 H       1  UNL1        0.0439
     35 H          -2.8229   -0.2167    0.9289 H       1  UNL1        0.0444
     36 H          -2.3518    1.0501   -0.2699 H       1  UNL1        0.0444
     37 H          -2.2504   -0.6597   -2.0308 H       1  UNL1        0.0505
     38 H          -2.8215   -1.9478   -0.8528 H       1  UNL1        0.0505
     39 H          -1.1821   -2.6936    1.0379 H       1  UNL1        0.1029
     40 H           3.4981   -1.7820    1.0287 H       1  UNL1        0.1478
     41 H           5.2488   -0.8796   -1.0109 H       1  UNL1        0.0498
     42 H           6.0565   -0.7087    1.9306 H       1  UNL1        0.0283
     43 H           5.8887   -2.2808    0.9710 H       1  UNL1        0.0283
     44 H           8.2317   -1.3782    0.8321 H       1  UNL1        0.0266
     45 H           7.3250   -1.4312   -0.7648 H       1  UNL1        0.0266
     46 H           8.4976    0.8228    0.5886 H       1  UNL1        0.0265
     47 H           7.8282    0.7525   -1.0374 H       1  UNL1        0.0265
     48 H           6.4504    1.4731    1.6391 H       1  UNL1        0.0266
     49 H           6.6306    2.3962    0.1317 H       1  UNL1        0.0266
     50 H           4.3552    1.2965    0.7884 H       1  UNL1        0.0283
     51 H           4.8694    1.4009   -0.9260 H       1  UNL1        0.0283
     52 H          -5.2015    1.9548   -1.2384 H       1  UNL1        0.0439
     53 H          -4.0314    2.1644    0.0924 H       1  UNL1        0.0439
     54 H          -5.4686    1.7454    1.7906 H       1  UNL1        0.0439
     55 H          -6.5994    2.3463    0.5599 H       1  UNL1        0.0439
@<TRIPOS>BOND
     1     1     2    1
     2     2     3    1
     3     3     4    1
     4     4     5    1
     5     5     6    1
     6     6     7    1
     7     7     8    1
     8     8     9   ar
     9     9    10   ar
    10    10    11   ar
    11    11    12   ar
    12    12    13    1
    13    13    14    1
    14    14    15    1
    15    15    16    1
    16    16    17    1
    17    17    18    1
    18    18    19    1
    19    12    20   ar
    20    20    21   ar
    21    21    22   ar
    22    22    23   ar
    23    21    24    1
    24    24    25    3
    25     5    26    1
    26    26    27    1
    27    27     2    1
    28    23     8   ar
    29    23    11   ar
    30    19    14    1
    31     1    28    1
    32     1    29    1
    33     1    30    1
    34     3    31    1
    35     3    32    1
    36     4    33    1
    37     4    34    1
    38     6    35    1
    39     6    36    1
    40     7    37    1
    41     7    38    1
    42     9    39    1
    43    13    40    1
    44    14    41    1
    45    15    42    1
    46    15    43    1
    47    16    44    1
    48    16    45    1
    49    17    46    1
    50    17    47    1
    51    18    48    1
    52    18    49    1
    53    19    50    1
    54    19    51    1
    55    26    52    1
    56    26    53    1
    57    27    54    1
    58    27    55    1
