
     RDKit          3D

 55 58  0  0  0  0  0  0  0  0999 V2000
   -8.1115    0.6283    1.1048 C   0  0  0  0  0  0  0  0  0  0  0  0
   -6.7243    0.3242    0.8510 N   0  0  0  0  0  0  0  0  0  0  0  0
   -6.5255   -0.5967   -0.2226 C   0  0  0  0  0  0  0  0  0  0  0  0
   -5.0397   -0.9140   -0.2648 C   0  0  0  0  0  0  0  0  0  0  0  0
   -4.2536    0.2441   -0.5877 N   0  0  0  0  0  0  0  0  0  0  0  0
   -2.8901    0.1012   -0.1128 C   0  0  0  0  0  0  0  0  0  0  0  0
   -2.2720   -1.0127   -0.9716 C   0  0  0  0  0  0  0  0  0  0  0  0
   -0.9072   -1.1796   -0.5161 N   0  0  0  0  0  0  0  0  0  0  0  0
   -0.5562   -2.0319    0.4601 C   0  0  0  0  0  0  0  0  0  0  0  0
    0.7543   -1.9462    0.6332 N   0  0  0  0  0  0  0  0  0  0  0  0
    1.2672   -1.0413   -0.2249 C   0  0  0  0  0  0  0  0  0  0  0  0
    2.5610   -0.5808   -0.4535 C   0  0  0  0  0  0  0  0  0  0  0  0
    3.6679   -1.0703    0.2939 N   0  0  0  0  0  0  0  0  0  0  0  0
    4.9990   -0.5803    0.0287 C   0  0  0  0  0  0  0  0  0  0  0  0
    6.0585   -1.1962    0.9231 C   0  0  0  0  0  0  0  0  0  0  0  0
    7.3867   -0.9566    0.2474 C   0  0  0  0  0  0  0  0  0  0  0  0
    7.5672    0.5154    0.0214 C   0  0  0  0  0  0  0  0  0  0  0  0
    6.4653    1.3672    0.5526 C   0  0  0  0  0  0  0  0  0  0  0  0
    5.1000    0.9343    0.0534 C   0  0  0  0  0  0  0  0  0  0  0  0
    2.6976    0.3483   -1.4132 N   0  0  0  0  0  0  0  0  0  0  0  0
    1.6749    0.8405   -2.1423 C   0  0  0  0  0  0  0  0  0  0  0  0
    0.4306    0.3654   -1.8881 N   0  0  0  0  0  0  0  0  0  0  0  0
    0.1993   -0.5621   -0.9491 C   0  0  0  0  0  0  0  0  0  0  0  0
    1.9176    1.8420   -3.1573 C   0  0  0  0  0  0  0  0  0  0  0  0
    2.1268    2.6513   -3.9734 N   0  0  0  0  0  0  0  0  0  0  0  0
   -4.8625    1.4977   -0.2869 C   0  0  0  0  0  0  0  0  0  0  0  0
   -5.9017    1.4855    0.7810 C   0  0  0  0  0  0  0  0  0  0  0  0
   -8.1913    1.3121    1.9561 H   0  0  0  0  0  0  0  0  0  0  0  0
   -8.5792   -0.3493    1.4180 H   0  0  0  0  0  0  0  0  0  0  0  0
   -8.6828    0.9293    0.2023 H   0  0  0  0  0  0  0  0  0  0  0  0
   -6.8356   -0.2084   -1.2191 H   0  0  0  0  0  0  0  0  0  0  0  0
   -7.0563   -1.5273    0.0042 H   0  0  0  0  0  0  0  0  0  0  0  0
   -4.7583   -1.3347    0.7242 H   0  0  0  0  0  0  0  0  0  0  0  0
   -4.8766   -1.7235   -1.0229 H   0  0  0  0  0  0  0  0  0  0  0  0
   -2.8229   -0.2167    0.9289 H   0  0  0  0  0  0  0  0  0  0  0  0
   -2.3518    1.0501   -0.2699 H   0  0  0  0  0  0  0  0  0  0  0  0
   -2.2504   -0.6597   -2.0308 H   0  0  0  0  0  0  0  0  0  0  0  0
   -2.8215   -1.9478   -0.8528 H   0  0  0  0  0  0  0  0  0  0  0  0
   -1.1821   -2.6936    1.0379 H   0  0  0  0  0  0  0  0  0  0  0  0
    3.4981   -1.7820    1.0287 H   0  0  0  0  0  0  0  0  0  0  0  0
    5.2488   -0.8796   -1.0109 H   0  0  0  0  0  0  0  0  0  0  0  0
    6.0565   -0.7087    1.9306 H   0  0  0  0  0  0  0  0  0  0  0  0
    5.8887   -2.2808    0.9710 H   0  0  0  0  0  0  0  0  0  0  0  0
    8.2317   -1.3782    0.8321 H   0  0  0  0  0  0  0  0  0  0  0  0
    7.3250   -1.4312   -0.7648 H   0  0  0  0  0  0  0  0  0  0  0  0
    8.4976    0.8228    0.5886 H   0  0  0  0  0  0  0  0  0  0  0  0
    7.8282    0.7525   -1.0374 H   0  0  0  0  0  0  0  0  0  0  0  0
    6.4504    1.4731    1.6391 H   0  0  0  0  0  0  0  0  0  0  0  0
    6.6306    2.3962    0.1317 H   0  0  0  0  0  0  0  0  0  0  0  0
    4.3552    1.2965    0.7884 H   0  0  0  0  0  0  0  0  0  0  0  0
    4.8694    1.4009   -0.9260 H   0  0  0  0  0  0  0  0  0  0  0  0
   -5.2015    1.9548   -1.2384 H   0  0  0  0  0  0  0  0  0  0  0  0
   -4.0314    2.1644    0.0924 H   0  0  0  0  0  0  0  0  0  0  0  0
   -5.4686    1.7454    1.7906 H   0  0  0  0  0  0  0  0  0  0  0  0
   -6.5994    2.3463    0.5599 H   0  0  0  0  0  0  0  0  0  0  0  0
  1  2  1  0
  2  3  1  0
  3  4  1  0
  4  5  1  0
  5  6  1  0
  6  7  1  0
  7  8  1  0
  8  9  1  0
  9 10  2  0
 10 11  1  0
 11 12  2  0
 12 13  1  0
 13 14  1  0
 14 15  1  0
 15 16  1  0
 16 17  1  0
 17 18  1  0
 18 19  1  0
 12 20  1  0
 20 21  2  0
 21 22  1  0
 22 23  2  0
 21 24  1  0
 24 25  3  0
  5 26  1  0
 26 27  1  0
 27  2  1  0
 23  8  1  0
 23 11  1  0
 19 14  1  0
  1 28  1  0
  1 29  1  0
  1 30  1  0
  3 31  1  0
  3 32  1  0
  4 33  1  0
  4 34  1  0
  6 35  1  0
  6 36  1  0
  7 37  1  0
  7 38  1  0
  9 39  1  0
 13 40  1  0
 14 41  1  0
 15 42  1  0
 15 43  1  0
 16 44  1  0
 16 45  1  0
 17 46  1  0
 17 47  1  0
 18 48  1  0
 18 49  1  0
 19 50  1  0
 19 51  1  0
 26 52  1  0
 26 53  1  0
 27 54  1  0
 27 55  1  0
M  END
$$$$
