
     RDKit          3D

123127  0  0  0  0  0  0  0  0999 V2000
    2.5814   -1.2909    1.4107 C   0  0  2  0  0  0  0  0  0  0  0  0
    1.8737   -0.0101    1.1150 C   0  0  1  0  0  0  0  0  0  0  0  0
    2.7556    1.2026    1.2182 C   0  0  0  0  0  0  0  0  0  0  0  0
    1.2026    0.0189   -0.2180 C   0  0  0  0  0  0  0  0  0  0  0  0
    1.5980    0.8061   -1.0884 O   0  0  0  0  0  0  0  0  0  0  0  0
    0.0499   -0.7207   -0.8886 C   0  0  2  0  0  0  0  0  0  0  0  0
    0.1665   -0.3190   -2.3400 C   0  0  0  0  0  0  0  0  0  0  0  0
   -1.1938   -0.3240   -0.2232 C   0  0  0  0  0  0  0  0  0  0  0  0
   -2.4881   -0.9645   -0.5368 C   0  0  1  0  0  0  0  0  0  0  0  0
   -2.8711   -0.8396   -1.9698 C   0  0  0  0  0  0  0  0  0  0  0  0
   -2.5319   -2.3213   -0.2450 O   0  0  0  0  0  0  0  0  0  0  0  0
   -3.7430   -2.9320   -0.6168 C   0  0  0  0  0  0  0  0  0  0  0  0
   -3.6222   -0.3270    0.3027 C   0  0  2  0  0  0  0  0  0  0  0  0
   -3.6881    1.0557   -0.0630 O   0  0  0  0  0  0  0  0  0  0  0  0
   -4.8604    1.3162   -0.6962 C   0  0  2  0  0  0  0  0  0  0  0  0
   -4.6186    1.6998   -2.0582 O   0  0  0  0  0  0  0  0  0  0  0  0
   -5.7804    1.4239   -2.7676 C   0  0  2  0  0  0  0  0  0  0  0  0
   -5.5036    1.5981   -4.2476 C   0  0  0  0  0  0  0  0  0  0  0  0
   -6.7876    2.4731   -2.3589 C   0  0  0  0  0  0  0  0  0  0  0  0
   -7.0698    2.3168   -0.8712 C   0  0  1  0  0  0  0  0  0  0  0  0
   -5.7185    2.4267   -0.1414 C   0  0  1  0  0  0  0  0  0  0  0  0
   -5.9955    2.3111    1.1846 O   0  0  0  0  0  0  0  0  0  0  0  0
   -7.9563    3.4113   -0.5310 N   0  0  0  0  0  0  0  0  0  0  0  0
   -9.1054    3.2668   -1.4398 C   0  0  0  0  0  0  0  0  0  0  0  0
   -8.5199    3.2750    0.8014 C   0  0  0  0  0  0  0  0  0  0  0  0
   -3.3008   -0.4137    1.7594 C   0  0  1  0  0  0  0  0  0  0  0  0
   -4.4244    0.0549    2.6652 C   0  0  0  0  0  0  0  0  0  0  0  0
   -2.7370   -1.6466    2.3010 C   0  0  0  0  0  0  0  0  0  0  0  0
   -2.5051   -2.8535    2.2645 O   0  0  0  0  0  0  0  0  0  0  0  0
   -2.0051   -1.4773    3.6218 C   0  0  1  0  0  0  0  0  0  0  0  0
   -2.7955   -1.9265    4.7986 C   0  0  0  0  0  0  0  0  0  0  0  0
   -0.6099   -1.8979    3.5577 C   0  0  0  0  0  0  0  0  0  0  0  0
   -0.4897   -2.4757    2.4777 O   0  0  0  0  0  0  0  0  0  0  0  0
    0.6806   -2.0477    3.9694 O   0  0  0  0  0  0  0  0  0  0  0  0
    1.7407   -2.6696    3.3271 C   0  0  2  0  0  0  0  0  0  0  0  0
    2.3982   -3.7382    4.1638 C   0  0  0  0  0  0  0  0  0  0  0  0
    1.3906   -4.8023    4.5030 C   0  0  0  0  0  0  0  0  0  0  0  0
    2.7756   -1.6303    2.8421 C   0  0  2  0  0  0  0  0  0  0  0  0
    2.7858   -0.4884    3.7983 C   0  0  0  0  0  0  0  0  0  0  0  0
    4.0376   -2.3041    2.9571 O   0  0  0  0  0  0  0  0  0  0  0  0
    4.5659   -2.3294    1.6500 C   0  0  0  0  0  0  0  0  0  0  0  0
    5.5351   -3.1135    1.3947 O   0  0  0  0  0  0  0  0  0  0  0  0
    3.8869   -1.4105    0.7560 N   0  0  0  0  0  0  0  0  0  0  0  0
    4.5833   -0.9120   -0.4440 C   0  0  0  0  0  0  0  0  0  0  0  0
    4.3241   -1.7807   -1.6144 C   0  0  0  0  0  0  0  0  0  0  0  0
    4.9823   -1.3661   -2.8598 C   0  0  0  0  0  0  0  0  0  0  0  0
    6.4286   -1.3645   -3.0523 C   0  0  0  0  0  0  0  0  0  0  0  0
    7.3241   -0.6128   -2.2626 N   0  0  0  0  0  0  0  0  0  0  0  0
    8.1199   -0.7315   -1.1608 C   0  0  0  0  0  0  0  0  0  0  0  0
    8.7665    0.3952   -0.8635 N   0  0  0  0  0  0  0  0  0  0  0  0
    8.4340    1.3345   -1.7574 C   0  0  0  0  0  0  0  0  0  0  0  0
    7.5563    0.6952   -2.5968 C   0  0  0  0  0  0  0  0  0  0  0  0
    8.9138    2.7059   -1.7994 C   0  0  0  0  0  0  0  0  0  0  0  0
    8.5558    3.6577   -2.7362 C   0  0  0  0  0  0  0  0  0  0  0  0
    9.1093    4.9353   -2.6255 C   0  0  0  0  0  0  0  0  0  0  0  0
    9.9882    5.2819   -1.6319 C   0  0  0  0  0  0  0  0  0  0  0  0
   10.3272    4.3452   -0.7282 N   0  0  0  0  0  0  0  0  0  0  0  0
    9.8106    3.1308   -0.8202 C   0  0  0  0  0  0  0  0  0  0  0  0
    1.9997   -2.1655    0.9680 H   0  0  0  0  0  0  0  0  0  0  0  0
    1.0321    0.1759    1.8470 H   0  0  0  0  0  0  0  0  0  0  0  0
    3.7983    0.9548    1.4813 H   0  0  0  0  0  0  0  0  0  0  0  0
    2.4211    1.9109    2.0268 H   0  0  0  0  0  0  0  0  0  0  0  0
    2.6821    1.8349    0.2911 H   0  0  0  0  0  0  0  0  0  0  0  0
    0.2975   -1.7857   -0.8098 H   0  0  0  0  0  0  0  0  0  0  0  0
   -0.1849   -1.1137   -3.0503 H   0  0  0  0  0  0  0  0  0  0  0  0
   -0.1719    0.6912   -2.5722 H   0  0  0  0  0  0  0  0  0  0  0  0
    1.2795   -0.3120   -2.5713 H   0  0  0  0  0  0  0  0  0  0  0  0
   -1.3058    0.7991   -0.3687 H   0  0  0  0  0  0  0  0  0  0  0  0
   -1.0277   -0.3890    0.8765 H   0  0  0  0  0  0  0  0  0  0  0  0
   -3.9739   -0.8455   -2.1290 H   0  0  0  0  0  0  0  0  0  0  0  0
   -2.4728    0.0985   -2.3804 H   0  0  0  0  0  0  0  0  0  0  0  0
   -2.4024   -1.6445   -2.6046 H   0  0  0  0  0  0  0  0  0  0  0  0
   -3.9446   -2.8294   -1.6874 H   0  0  0  0  0  0  0  0  0  0  0  0
   -3.5187   -4.0454   -0.4926 H   0  0  0  0  0  0  0  0  0  0  0  0
   -4.5726   -2.7584    0.0576 H   0  0  0  0  0  0  0  0  0  0  0  0
   -4.5334   -0.7899    0.0326 H   0  0  0  0  0  0  0  0  0  0  0  0
   -5.4746    0.4082   -0.7624 H   0  0  0  0  0  0  0  0  0  0  0  0
   -6.1795    0.4276   -2.5862 H   0  0  0  0  0  0  0  0  0  0  0  0
   -4.7796    2.4176   -4.3494 H   0  0  0  0  0  0  0  0  0  0  0  0
   -6.4473    1.7903   -4.8066 H   0  0  0  0  0  0  0  0  0  0  0  0
   -5.0526    0.6767   -4.6340 H   0  0  0  0  0  0  0  0  0  0  0  0
   -6.3831    3.4641   -2.6177 H   0  0  0  0  0  0  0  0  0  0  0  0
   -7.7153    2.2728   -2.9360 H   0  0  0  0  0  0  0  0  0  0  0  0
   -7.5475    1.3457   -0.7226 H   0  0  0  0  0  0  0  0  0  0  0  0
   -5.3283    3.4223   -0.4462 H   0  0  0  0  0  0  0  0  0  0  0  0
   -6.6984    1.5915    1.2807 H   0  0  0  0  0  0  0  0  0  0  0  0
   -9.3768    2.2171   -1.5841 H   0  0  0  0  0  0  0  0  0  0  0  0
   -9.9753    3.7670   -0.9272 H   0  0  0  0  0  0  0  0  0  0  0  0
   -8.9456    3.8219   -2.3814 H   0  0  0  0  0  0  0  0  0  0  0  0
   -9.4065    3.9750    0.7976 H   0  0  0  0  0  0  0  0  0  0  0  0
   -7.8489    3.6617    1.5697 H   0  0  0  0  0  0  0  0  0  0  0  0
   -8.9623    2.2827    0.9902 H   0  0  0  0  0  0  0  0  0  0  0  0
   -2.5150    0.4292    1.8947 H   0  0  0  0  0  0  0  0  0  0  0  0
   -4.4566   -0.5146    3.6244 H   0  0  0  0  0  0  0  0  0  0  0  0
   -5.4152   -0.1765    2.1947 H   0  0  0  0  0  0  0  0  0  0  0  0
   -4.3291    1.1084    2.9660 H   0  0  0  0  0  0  0  0  0  0  0  0
   -1.9391   -0.3340    3.7513 H   0  0  0  0  0  0  0  0  0  0  0  0
   -3.6524   -2.6041    4.5438 H   0  0  0  0  0  0  0  0  0  0  0  0
   -3.1365   -1.1208    5.4730 H   0  0  0  0  0  0  0  0  0  0  0  0
   -2.1442   -2.5785    5.4625 H   0  0  0  0  0  0  0  0  0  0  0  0
    1.4043   -3.1401    2.3830 H   0  0  0  0  0  0  0  0  0  0  0  0
    3.2234   -4.2394    3.6251 H   0  0  0  0  0  0  0  0  0  0  0  0
    2.8541   -3.3266    5.0912 H   0  0  0  0  0  0  0  0  0  0  0  0
    0.4009   -4.3421    4.5625 H   0  0  0  0  0  0  0  0  0  0  0  0
    1.6875   -5.2975    5.4645 H   0  0  0  0  0  0  0  0  0  0  0  0
    1.3620   -5.5321    3.6458 H   0  0  0  0  0  0  0  0  0  0  0  0
    2.8751   -0.9472    4.8282 H   0  0  0  0  0  0  0  0  0  0  0  0
    3.6935    0.1472    3.7216 H   0  0  0  0  0  0  0  0  0  0  0  0
    1.8398    0.0862    3.8130 H   0  0  0  0  0  0  0  0  0  0  0  0
    4.1971    0.1218   -0.7060 H   0  0  0  0  0  0  0  0  0  0  0  0
    5.6477   -0.8688   -0.2088 H   0  0  0  0  0  0  0  0  0  0  0  0
    3.1977   -1.8422   -1.7236 H   0  0  0  0  0  0  0  0  0  0  0  0
    4.5833   -2.8516   -1.3336 H   0  0  0  0  0  0  0  0  0  0  0  0
    4.5399   -2.0155   -3.7104 H   0  0  0  0  0  0  0  0  0  0  0  0
    4.5425   -0.3418   -3.1724 H   0  0  0  0  0  0  0  0  0  0  0  0
    6.8349   -2.4508   -3.0489 H   0  0  0  0  0  0  0  0  0  0  0  0
    6.6057   -1.1252   -4.1705 H   0  0  0  0  0  0  0  0  0  0  0  0
    8.1027   -1.7290   -0.6932 H   0  0  0  0  0  0  0  0  0  0  0  0
    7.1341    1.2771   -3.4362 H   0  0  0  0  0  0  0  0  0  0  0  0
    7.8742    3.3751   -3.5014 H   0  0  0  0  0  0  0  0  0  0  0  0
    8.8507    5.7009   -3.3418 H   0  0  0  0  0  0  0  0  0  0  0  0
   10.3990    6.2873   -1.5789 H   0  0  0  0  0  0  0  0  0  0  0  0
   10.1312    2.4200   -0.0508 H   0  0  0  0  0  0  0  0  0  0  0  0
  1  2  1  0
  2  3  1  0
  2  4  1  0
  4  5  2  0
  4  6  1  0
  6  7  1  0
  6  8  1  0
  8  9  1  0
  9 10  1  0
  9 11  1  1
 11 12  1  0
  9 13  1  0
 13 14  1  0
 14 15  1  0
 15 16  1  0
 16 17  1  0
 17 18  1  0
 17 19  1  0
 19 20  1  0
 20 21  1  0
 21 22  1  0
 20 23  1  0
 23 24  1  0
 23 25  1  0
 13 26  1  0
 26 27  1  0
 26 28  1  0
 28 29  2  0
 28 30  1  0
 30 31  1  0
 30 32  1  0
 32 33  2  0
 32 34  1  0
 34 35  1  0
 35 36  1  0
 36 37  1  0
 35 38  1  0
 38 39  1  1
 38 40  1  0
 40 41  1  0
 41 42  2  0
 41 43  1  0
 43 44  1  0
 44 45  1  0
 45 46  1  0
 46 47  1  0
 47 48  1  0
 48 49  1  0
 49 50  2  0
 50 51  1  0
 51 52  2  0
 51 53  1  0
 53 54  2  0
 54 55  1  0
 55 56  2  0
 56 57  1  0
 57 58  2  0
 38  1  1  0
 52 48  1  0
 58 53  1  0
 43  1  1  0
 21 15  1  0
  1 59  1  6
  2 60  1  1
  3 61  1  0
  3 62  1  0
  3 63  1  0
  6 64  1  6
  7 65  1  0
  7 66  1  0
  7 67  1  0
  8 68  1  0
  8 69  1  0
 10 70  1  0
 10 71  1  0
 10 72  1  0
 12 73  1  0
 12 74  1  0
 12 75  1  0
 13 76  1  1
 15 77  1  6
 17 78  1  6
 18 79  1  0
 18 80  1  0
 18 81  1  0
 19 82  1  0
 19 83  1  0
 20 84  1  6
 21 85  1  1
 22 86  1  0
 24 87  1  0
 24 88  1  0
 24 89  1  0
 25 90  1  0
 25 91  1  0
 25 92  1  0
 26 93  1  6
 27 94  1  0
 27 95  1  0
 27 96  1  0
 30 97  1  1
 31 98  1  0
 31 99  1  0
 31100  1  0
 35101  1  6
 36102  1  0
 36103  1  0
 37104  1  0
 37105  1  0
 37106  1  0
 39107  1  0
 39108  1  0
 39109  1  0
 44110  1  0
 44111  1  0
 45112  1  0
 45113  1  0
 46114  1  0
 46115  1  0
 47116  1  0
 47117  1  0
 49118  1  0
 52119  1  0
 54120  1  0
 55121  1  0
 56122  1  0
 58123  1  0
M  END
$$$$
