@<TRIPOS>MOLECULE
*****
 69 72 0 0 0
SMALL
GASTEIGER

@<TRIPOS>ATOM
      1 C          -0.6391   -4.1102    0.2688 C.3     1  UNL1       -0.0377
      2 C           0.7500   -4.4238    0.6623 C.ar    1  UNL1       -0.0248
      3 C           1.0354   -5.5953    1.3361 C.ar    1  UNL1       -0.0568
      4 C           2.3069   -5.9003    1.7283 C.ar    1  UNL1       -0.0594
      5 C           3.3077   -5.0080    1.4361 C.ar    1  UNL1       -0.0342
      6 C           3.0393   -3.8328    0.7630 C.ar    1  UNL1        0.0912
      7 N           3.8279   -2.8310    0.3767 N.ar    1  UNL1       -0.2141
      8 C           3.0671   -1.9228   -0.2441 C.ar    1  UNL1        0.2035
      9 N           3.5849   -0.6953   -0.7787 N.am    1  UNL1       -0.2518
     10 C           3.6258    0.4938   -0.0110 C.2     1  UNL1        0.2505
     11 O           3.1884    0.4281    1.1631 O.2     1  UNL1       -0.2698
     12 C           4.1325    1.7750   -0.4807 C.ar    1  UNL1        0.0405
     13 C           4.6832    1.9511   -1.7258 C.ar    1  UNL1       -0.0314
     14 C           5.1230    3.2100   -2.0667 C.ar    1  UNL1        0.0289
     15 N           5.0350    4.2769   -1.2279 N.ar    1  UNL1       -0.2509
     16 C           4.5003    4.1321   -0.0037 C.ar    1  UNL1        0.1442
     17 C           4.3958    5.2874    0.9231 C.3     1  UNL1        0.4342
     18 F           5.0239    4.9517    2.1006 F       1  UNL1       -0.1644
     19 F           4.8848    6.4367    0.3637 F       1  UNL1       -0.1644
     20 F           3.0250    5.4771    1.1485 F       1  UNL1       -0.1644
     21 C           4.0596    2.8873    0.3479 C.ar    1  UNL1       -0.0195
     22 N           1.7755   -2.3316   -0.2648 N.ar    1  UNL1       -0.3067
     23 C           0.6796   -1.6191   -0.8663 C.3     1  UNL1        0.0534
     24 C           1.2668   -1.0537   -2.1897 C.3     1  UNL1       -0.0305
     25 C           0.1532   -0.9703   -3.2288 C.3     1  UNL1       -0.0497
     26 C          -0.8400    0.0841   -2.8816 C.3     1  UNL1       -0.0371
     27 C          -1.7977   -0.3051   -1.7631 C.3     1  UNL1        0.0150
     28 N          -1.1816   -0.1614   -0.4798 N.am    1  UNL1       -0.2960
     29 C          -1.9734    0.2737    0.5980 C.2     1  UNL1        0.2392
     30 O          -1.4634    0.4450    1.7512 O.2     1  UNL1       -0.2706
     31 C          -3.3898    0.5397    0.4282 C.2     1  UNL1       -0.0024
     32 C          -4.0990    0.9718    1.4829 C.2     1  UNL1       -0.0652
     33 C          -5.5320    1.2345    1.2893 C.3     1  UNL1        0.0170
     34 N          -5.8411    2.6095    1.5607 N.3     1  UNL1       -0.3047
     35 C          -5.6962    2.9543    2.9495 C.3     1  UNL1       -0.0127
     36 C          -7.1303    3.0338    1.0558 C.3     1  UNL1       -0.0127
     37 C           0.2218   -0.4143   -0.1080 C.3     1  UNL1        0.0359
     38 C           1.7520   -3.5126    0.3591 C.ar    1  UNL1        0.0733
     39 H          -1.2848   -4.8630    0.8492 H       1  UNL1        0.0278
     40 H          -0.8989   -4.3421   -0.7664 H       1  UNL1        0.0278
     41 H          -1.0240   -3.1510    0.6721 H       1  UNL1        0.0278
     42 H           0.2310   -6.2677    1.5461 H       1  UNL1        0.0621
     43 H           2.5400   -6.8373    2.2678 H       1  UNL1        0.0618
     44 H           4.3070   -5.2235    1.7314 H       1  UNL1        0.0639
     45 H           3.9531   -0.6515   -1.7504 H       1  UNL1        0.1580
     46 H           4.7553    1.1065   -2.3985 H       1  UNL1        0.0640
     47 H           5.5650    3.3920   -3.0420 H       1  UNL1        0.0830
     48 H           3.6211    2.7692    1.3514 H       1  UNL1        0.0646
     49 H          -0.1520   -2.2172   -1.2224 H       1  UNL1        0.0544
     50 H           2.0194   -1.7297   -2.6074 H       1  UNL1        0.0286
     51 H           1.6713   -0.0596   -2.0592 H       1  UNL1        0.0286
     52 H          -0.3979   -1.9408   -3.2910 H       1  UNL1        0.0266
     53 H           0.6150   -0.7271   -4.1842 H       1  UNL1        0.0266
     54 H          -0.3441    1.0256   -2.6377 H       1  UNL1        0.0280
     55 H          -1.4717    0.2492   -3.7890 H       1  UNL1        0.0280
     56 H          -2.0849   -1.3698   -1.9515 H       1  UNL1        0.0465
     57 H          -2.6965    0.2911   -1.9227 H       1  UNL1        0.0465
     58 H          -3.9298    0.4110   -0.4840 H       1  UNL1        0.0667
     59 H          -3.5792    1.1037    2.4164 H       1  UNL1        0.0586
     60 H          -6.0898    0.5959    2.0165 H       1  UNL1        0.0470
     61 H          -5.8599    0.9495    0.2753 H       1  UNL1        0.0470
     62 H          -5.4757    4.0477    3.0338 H       1  UNL1        0.0391
     63 H          -6.6866    2.8135    3.4415 H       1  UNL1        0.0391
     64 H          -4.8921    2.4053    3.4561 H       1  UNL1        0.0391
     65 H          -7.7091    2.1704    0.6791 H       1  UNL1        0.0391
     66 H          -6.9705    3.7092    0.1767 H       1  UNL1        0.0391
     67 H          -7.6485    3.5964    1.8600 H       1  UNL1        0.0391
     68 H           0.2757   -0.5129    0.9741 H       1  UNL1        0.0485
     69 H           0.7802    0.4909   -0.4129 H       1  UNL1        0.0485
@<TRIPOS>BOND
     1     1     2    1
     2     2     3   ar
     3     3     4   ar
     4     4     5   ar
     5     5     6   ar
     6     6     7   ar
     7     7     8   ar
     8     8     9    1
     9     9    10   am
    10    10    11    2
    11    10    12    1
    12    12    13   ar
    13    13    14   ar
    14    14    15   ar
    15    15    16   ar
    16    16    17    1
    17    17    18    1
    18    17    19    1
    19    17    20    1
    20    16    21   ar
    21     8    22   ar
    22    22    23    1
    23    23    24    1
    24    24    25    1
    25    25    26    1
    26    26    27    1
    27    27    28    1
    28    28    29   am
    29    29    30    2
    30    29    31    1
    31    31    32    2
    32    32    33    1
    33    33    34    1
    34    34    35    1
    35    34    36    1
    36    28    37    1
    37    22    38   ar
    38    38     2   ar
    39    38     6   ar
    40    21    12   ar
    41    37    23    1
    42     1    39    1
    43     1    40    1
    44     1    41    1
    45     3    42    1
    46     4    43    1
    47     5    44    1
    48     9    45    1
    49    13    46    1
    50    14    47    1
    51    21    48    1
    52    23    49    1
    53    24    50    1
    54    24    51    1
    55    25    52    1
    56    25    53    1
    57    26    54    1
    58    26    55    1
    59    27    56    1
    60    27    57    1
    61    31    58    1
    62    32    59    1
    63    33    60    1
    64    33    61    1
    65    35    62    1
    66    35    63    1
    67    35    64    1
    68    36    65    1
    69    36    66    1
    70    36    67    1
    71    37    68    1
    72    37    69    1
