
     RDKit          3D

 69 72  0  0  0  0  0  0  0  0999 V2000
   -0.6391   -4.1102    0.2688 C   0  0  0  0  0  0  0  0  0  0  0  0
    0.7500   -4.4238    0.6623 C   0  0  0  0  0  0  0  0  0  0  0  0
    1.0354   -5.5953    1.3361 C   0  0  0  0  0  0  0  0  0  0  0  0
    2.3069   -5.9003    1.7283 C   0  0  0  0  0  0  0  0  0  0  0  0
    3.3077   -5.0080    1.4361 C   0  0  0  0  0  0  0  0  0  0  0  0
    3.0393   -3.8328    0.7630 C   0  0  0  0  0  0  0  0  0  0  0  0
    3.8279   -2.8310    0.3767 N   0  0  0  0  0  0  0  0  0  0  0  0
    3.0671   -1.9228   -0.2441 C   0  0  0  0  0  0  0  0  0  0  0  0
    3.5849   -0.6953   -0.7787 N   0  0  0  0  0  0  0  0  0  0  0  0
    3.6258    0.4938   -0.0110 C   0  0  0  0  0  0  0  0  0  0  0  0
    3.1884    0.4281    1.1631 O   0  0  0  0  0  0  0  0  0  0  0  0
    4.1325    1.7750   -0.4807 C   0  0  0  0  0  0  0  0  0  0  0  0
    4.6832    1.9511   -1.7258 C   0  0  0  0  0  0  0  0  0  0  0  0
    5.1230    3.2100   -2.0667 C   0  0  0  0  0  0  0  0  0  0  0  0
    5.0350    4.2769   -1.2279 N   0  0  0  0  0  0  0  0  0  0  0  0
    4.5003    4.1321   -0.0037 C   0  0  0  0  0  0  0  0  0  0  0  0
    4.3958    5.2874    0.9231 C   0  0  0  0  0  0  0  0  0  0  0  0
    5.0239    4.9517    2.1006 F   0  0  0  0  0  0  0  0  0  0  0  0
    4.8848    6.4367    0.3637 F   0  0  0  0  0  0  0  0  0  0  0  0
    3.0250    5.4771    1.1485 F   0  0  0  0  0  0  0  0  0  0  0  0
    4.0596    2.8873    0.3479 C   0  0  0  0  0  0  0  0  0  0  0  0
    1.7755   -2.3316   -0.2648 N   0  0  0  0  0  0  0  0  0  0  0  0
    0.6796   -1.6191   -0.8663 C   0  0  2  0  0  0  0  0  0  0  0  0
    1.2668   -1.0537   -2.1897 C   0  0  0  0  0  0  0  0  0  0  0  0
    0.1532   -0.9703   -3.2288 C   0  0  0  0  0  0  0  0  0  0  0  0
   -0.8400    0.0841   -2.8816 C   0  0  0  0  0  0  0  0  0  0  0  0
   -1.7977   -0.3051   -1.7631 C   0  0  0  0  0  0  0  0  0  0  0  0
   -1.1816   -0.1614   -0.4798 N   0  0  0  0  0  0  0  0  0  0  0  0
   -1.9734    0.2737    0.5980 C   0  0  0  0  0  0  0  0  0  0  0  0
   -1.4634    0.4450    1.7512 O   0  0  0  0  0  0  0  0  0  0  0  0
   -3.3898    0.5397    0.4282 C   0  0  0  0  0  0  0  0  0  0  0  0
   -4.0990    0.9718    1.4829 C   0  0  0  0  0  0  0  0  0  0  0  0
   -5.5320    1.2345    1.2893 C   0  0  0  0  0  0  0  0  0  0  0  0
   -5.8411    2.6095    1.5607 N   0  0  0  0  0  0  0  0  0  0  0  0
   -5.6962    2.9543    2.9495 C   0  0  0  0  0  0  0  0  0  0  0  0
   -7.1303    3.0338    1.0558 C   0  0  0  0  0  0  0  0  0  0  0  0
    0.2218   -0.4143   -0.1080 C   0  0  0  0  0  0  0  0  0  0  0  0
    1.7520   -3.5126    0.3591 C   0  0  0  0  0  0  0  0  0  0  0  0
   -1.2848   -4.8630    0.8492 H   0  0  0  0  0  0  0  0  0  0  0  0
   -0.8989   -4.3421   -0.7664 H   0  0  0  0  0  0  0  0  0  0  0  0
   -1.0240   -3.1510    0.6721 H   0  0  0  0  0  0  0  0  0  0  0  0
    0.2310   -6.2677    1.5461 H   0  0  0  0  0  0  0  0  0  0  0  0
    2.5400   -6.8373    2.2678 H   0  0  0  0  0  0  0  0  0  0  0  0
    4.3070   -5.2235    1.7314 H   0  0  0  0  0  0  0  0  0  0  0  0
    3.9531   -0.6515   -1.7504 H   0  0  0  0  0  0  0  0  0  0  0  0
    4.7553    1.1065   -2.3985 H   0  0  0  0  0  0  0  0  0  0  0  0
    5.5650    3.3920   -3.0420 H   0  0  0  0  0  0  0  0  0  0  0  0
    3.6211    2.7692    1.3514 H   0  0  0  0  0  0  0  0  0  0  0  0
   -0.1520   -2.2172   -1.2224 H   0  0  0  0  0  0  0  0  0  0  0  0
    2.0194   -1.7297   -2.6074 H   0  0  0  0  0  0  0  0  0  0  0  0
    1.6713   -0.0596   -2.0592 H   0  0  0  0  0  0  0  0  0  0  0  0
   -0.3979   -1.9408   -3.2910 H   0  0  0  0  0  0  0  0  0  0  0  0
    0.6150   -0.7271   -4.1842 H   0  0  0  0  0  0  0  0  0  0  0  0
   -0.3441    1.0256   -2.6377 H   0  0  0  0  0  0  0  0  0  0  0  0
   -1.4717    0.2492   -3.7890 H   0  0  0  0  0  0  0  0  0  0  0  0
   -2.0849   -1.3698   -1.9515 H   0  0  0  0  0  0  0  0  0  0  0  0
   -2.6965    0.2911   -1.9227 H   0  0  0  0  0  0  0  0  0  0  0  0
   -3.9298    0.4110   -0.4840 H   0  0  0  0  0  0  0  0  0  0  0  0
   -3.5792    1.1037    2.4164 H   0  0  0  0  0  0  0  0  0  0  0  0
   -6.0898    0.5959    2.0165 H   0  0  0  0  0  0  0  0  0  0  0  0
   -5.8599    0.9495    0.2753 H   0  0  0  0  0  0  0  0  0  0  0  0
   -5.4757    4.0477    3.0338 H   0  0  0  0  0  0  0  0  0  0  0  0
   -6.6866    2.8135    3.4415 H   0  0  0  0  0  0  0  0  0  0  0  0
   -4.8921    2.4053    3.4561 H   0  0  0  0  0  0  0  0  0  0  0  0
   -7.7091    2.1704    0.6791 H   0  0  0  0  0  0  0  0  0  0  0  0
   -6.9705    3.7092    0.1767 H   0  0  0  0  0  0  0  0  0  0  0  0
   -7.6485    3.5964    1.8600 H   0  0  0  0  0  0  0  0  0  0  0  0
    0.2757   -0.5129    0.9741 H   0  0  0  0  0  0  0  0  0  0  0  0
    0.7802    0.4909   -0.4129 H   0  0  0  0  0  0  0  0  0  0  0  0
  1  2  1  0
  2  3  2  0
  3  4  1  0
  4  5  2  0
  5  6  1  0
  6  7  1  0
  7  8  2  0
  8  9  1  0
  9 10  1  0
 10 11  2  0
 10 12  1  0
 12 13  2  0
 13 14  1  0
 14 15  2  0
 15 16  1  0
 16 17  1  0
 17 18  1  0
 17 19  1  0
 17 20  1  0
 16 21  2  0
  8 22  1  0
 22 23  1  0
 23 24  1  0
 24 25  1  0
 25 26  1  0
 26 27  1  0
 27 28  1  0
 28 29  1  0
 29 30  2  0
 29 31  1  0
 31 32  2  0
 32 33  1  0
 33 34  1  0
 34 35  1  0
 34 36  1  0
 28 37  1  0
 22 38  1  0
 38  2  1  0
 38  6  2  0
 21 12  1  0
 37 23  1  0
  1 39  1  0
  1 40  1  0
  1 41  1  0
  3 42  1  0
  4 43  1  0
  5 44  1  0
  9 45  1  0
 13 46  1  0
 14 47  1  0
 21 48  1  0
 23 49  1  6
 24 50  1  0
 24 51  1  0
 25 52  1  0
 25 53  1  0
 26 54  1  0
 26 55  1  0
 27 56  1  0
 27 57  1  0
 31 58  1  0
 32 59  1  0
 33 60  1  0
 33 61  1  0
 35 62  1  0
 35 63  1  0
 35 64  1  0
 36 65  1  0
 36 66  1  0
 36 67  1  0
 37 68  1  0
 37 69  1  0
M  END
$$$$
