@<TRIPOS>MOLECULE
*****
 47 48 0 0 0
SMALL
GASTEIGER

@<TRIPOS>ATOM
      1 O          -4.9068    2.2626   -0.9590 O.3     1  UNL1       -0.3946
      2 C          -3.5229    2.2076   -1.0688 C.3     1  UNL1        0.0495
      3 C          -3.0567    0.7674   -1.0606 C.3     1  UNL1        0.0118
      4 C          -1.5735    0.6404   -1.1758 C.3     1  UNL1       -0.0309
      5 C          -1.1574   -0.7715   -0.9759 C.3     1  UNL1        0.0399
      6 S          -0.1260   -0.9783    0.5186 S.3     1  UNL1       -0.1006
      7 C           1.4031   -0.0796    0.1763 C.2     1  UNL1        0.1204
      8 N           1.7005   -0.4934    1.3631 N.2     1  UNL1       -0.0480
      9 O           0.8175   -1.2610    2.0898 O.2     1  UNL1       -0.2068
     10 S           1.0969   -2.9408    2.1049 S.O2    1  UNL1        0.2709
     11 O           2.3601   -3.3790    1.0859 O.3     1  UNL1       -0.2209
     12 O          -0.1265   -3.6956    1.6443 O.2     1  UNL1       -0.1060
     13 O           1.5035   -3.4026    3.4857 O.2     1  UNL1       -0.1060
     14 C           2.2554    0.7504   -0.7159 C.3     1  UNL1        0.0242
     15 C           3.5258    1.0302    0.0061 C.ar    1  UNL1       -0.0410
     16 C           3.5110    2.1816    0.7730 C.ar    1  UNL1       -0.0582
     17 C           4.6504    2.5157    1.4766 C.ar    1  UNL1       -0.0615
     18 C           5.8107    1.7758    1.4677 C.ar    1  UNL1       -0.0617
     19 C           5.7404    0.6479    0.6808 C.ar    1  UNL1       -0.0615
     20 C           4.6501    0.2376   -0.0533 C.ar    1  UNL1       -0.0582
     21 C          -2.2654   -1.7809   -0.9286 C.3     1  UNL1        0.0956
     22 O          -2.7296   -2.0767   -2.2124 O.3     1  UNL1       -0.3880
     23 C          -3.3830   -1.4016    0.0042 C.3     1  UNL1        0.1082
     24 O          -3.3059   -2.0978    1.1875 O.3     1  UNL1       -0.3866
     25 C          -3.4608    0.0844    0.2483 C.3     1  UNL1        0.0884
     26 O          -4.6922    0.4916    0.7032 O.3     1  UNL1       -0.3888
     27 H          -5.1820    2.6904   -0.0966 H       1  UNL1        0.2094
     28 H          -3.0007    2.8228   -0.2991 H       1  UNL1        0.0561
     29 H          -3.2492    2.6412   -2.0463 H       1  UNL1        0.0561
     30 H          -3.5697    0.2516   -1.8783 H       1  UNL1        0.0349
     31 H          -1.2336    1.0950   -2.1305 H       1  UNL1        0.0281
     32 H          -1.1087    1.2618   -0.3660 H       1  UNL1        0.0281
     33 H          -0.5108   -1.0480   -1.8345 H       1  UNL1        0.0442
     34 H           2.4916   -2.5955    0.4705 H       1  UNL1        0.2480
     35 H           1.7072    1.6713   -0.9603 H       1  UNL1        0.0383
     36 H           2.4548    0.2530   -1.6866 H       1  UNL1        0.0383
     37 H           2.6325    2.8310    0.8397 H       1  UNL1        0.0620
     38 H           4.6192    3.4325    2.0789 H       1  UNL1        0.0618
     39 H           6.6902    2.0516    2.0227 H       1  UNL1        0.0618
     40 H           6.6091   -0.0113    0.6034 H       1  UNL1        0.0618
     41 H           4.6175   -0.6384   -0.6553 H       1  UNL1        0.0620
     42 H          -1.8125   -2.7178   -0.5371 H       1  UNL1        0.0631
     43 H          -2.0035   -1.8243   -2.8416 H       1  UNL1        0.2099
     44 H          -4.3385   -1.6773   -0.4895 H       1  UNL1        0.0645
     45 H          -2.4870   -1.9146    1.7059 H       1  UNL1        0.2100
     46 H          -2.6721    0.3461    0.9838 H       1  UNL1        0.0623
     47 H          -5.3728   -0.1558    0.3681 H       1  UNL1        0.2099
@<TRIPOS>BOND
     1     1     2    1
     2     2     3    1
     3     3     4    1
     4     4     5    1
     5     5     6    1
     6     6     7    1
     7     7     8    2
     8     8     9    1
     9     9    10    1
    10    10    11    1
    11    10    12    2
    12    10    13    2
    13     7    14    1
    14    14    15    1
    15    15    16   ar
    16    16    17   ar
    17    17    18   ar
    18    18    19   ar
    19    19    20   ar
    20     5    21    1
    21    21    22    1
    22    21    23    1
    23    23    24    1
    24    23    25    1
    25    25    26    1
    26    25     3    1
    27    20    15   ar
    28     1    27    1
    29     2    28    1
    30     2    29    1
    31     3    30    1
    32     4    31    1
    33     4    32    1
    34     5    33    1
    35    11    34    1
    36    14    35    1
    37    14    36    1
    38    16    37    1
    39    17    38    1
    40    18    39    1
    41    19    40    1
    42    20    41    1
    43    21    42    1
    44    22    43    1
    45    23    44    1
    46    24    45    1
    47    25    46    1
    48    26    47    1
