@<TRIPOS>MOLECULE
*****
 48 52 0 0 0
SMALL
GASTEIGER

@<TRIPOS>ATOM
      1 C          -0.1681   -4.1512    0.8267 C.3     1  UNL1       -0.0487
      2 C           1.1261   -4.1942    0.0175 C.3     1  UNL1       -0.0487
      3 C           1.7991   -2.8753    0.0466 C.3     1  UNL1       -0.0267
      4 C           0.8951   -1.7017   -0.0948 C.ar    1  UNL1       -0.0333
      5 C           1.4144   -0.4032   -0.2101 C.ar    1  UNL1        0.0141
      6 P           0.0660    0.6307   -0.3581 P.3     1  UNL1       -0.0083
      7 C          -1.2364   -0.7151   -0.2623 C.ar    1  UNL1        0.0141
      8 C          -0.4331   -1.8982   -0.1167 C.ar    1  UNL1       -0.0333
      9 C          -1.0551   -3.2402    0.0037 C.3     1  UNL1       -0.0267
     10 C          -2.7095   -0.4995   -0.3279 C.ar    1  UNL1        0.0723
     11 N          -3.4318   -1.1713    0.5819 N.ar    1  UNL1       -0.2549
     12 C          -4.7709   -0.9931    0.5441 C.ar    1  UNL1        0.0283
     13 C          -5.3278   -0.1454   -0.4089 C.ar    1  UNL1       -0.0436
     14 C          -4.5566    0.5361   -1.3371 C.ar    1  UNL1       -0.0583
     15 C          -3.1893    0.3444   -1.2865 C.ar    1  UNL1       -0.0356
     16 C          -0.2418    2.3160    0.2401 C.ar    1  UNL1       -0.0145
     17 C          -0.1048    2.6993    1.5555 C.ar    1  UNL1       -0.0535
     18 C          -0.3550    4.0043    1.9513 C.ar    1  UNL1       -0.0611
     19 C          -0.7547    4.9738    1.0269 C.ar    1  UNL1       -0.0617
     20 C          -0.9000    4.6110   -0.3069 C.ar    1  UNL1       -0.0611
     21 C          -0.6425    3.2935   -0.6785 C.ar    1  UNL1       -0.0535
     22 C           2.7418    0.1064   -0.2191 C.ar    1  UNL1        0.0723
     23 N           3.6518   -0.3280    0.6825 N.ar    1  UNL1       -0.2549
     24 C           4.9183    0.1296    0.7070 C.ar    1  UNL1        0.0283
     25 C           5.2917    1.0733   -0.2224 C.ar    1  UNL1       -0.0436
     26 C           4.3941    1.5444   -1.1611 C.ar    1  UNL1       -0.0583
     27 C           3.1144    1.0525   -1.1518 C.ar    1  UNL1       -0.0356
     28 H          -0.0414   -3.7152    1.8237 H       1  UNL1        0.0268
     29 H          -0.6278   -5.1540    0.8158 H       1  UNL1        0.0268
     30 H           0.8642   -4.5055   -1.0022 H       1  UNL1        0.0268
     31 H           1.7511   -4.9548    0.5120 H       1  UNL1        0.0268
     32 H           2.6284   -2.8527   -0.7080 H       1  UNL1        0.0313
     33 H           2.3547   -2.8386    1.0296 H       1  UNL1        0.0313
     34 H          -1.0754   -3.6859   -1.0103 H       1  UNL1        0.0313
     35 H          -2.0781   -3.2005    0.4181 H       1  UNL1        0.0313
     36 H          -5.4406   -1.4919    1.2373 H       1  UNL1        0.0830
     37 H          -6.3994   -0.0019   -0.4403 H       1  UNL1        0.0633
     38 H          -4.9721    1.1986   -2.0844 H       1  UNL1        0.0619
     39 H          -2.5636    0.8575   -1.9912 H       1  UNL1        0.0639
     40 H           0.2048    1.9295    2.2449 H       1  UNL1        0.0624
     41 H          -0.2383    4.2842    3.0064 H       1  UNL1        0.0618
     42 H          -0.9573    6.0024    1.3080 H       1  UNL1        0.0618
     43 H          -1.2032    5.3024   -1.0696 H       1  UNL1        0.0618
     44 H          -0.7534    3.0161   -1.6975 H       1  UNL1        0.0624
     45 H           5.5783   -0.2805    1.4711 H       1  UNL1        0.0830
     46 H           6.3313    1.4096   -0.1567 H       1  UNL1        0.0633
     47 H           4.7249    2.2836   -1.8725 H       1  UNL1        0.0619
     48 H           2.3774    1.3989   -1.8758 H       1  UNL1        0.0639
@<TRIPOS>BOND
     1     1     2    1
     2     2     3    1
     3     3     4    1
     4     4     5   ar
     5     5     6   ar
     6     6     7   ar
     7     7     8   ar
     8     8     9    1
     9     7    10    1
    10    10    11   ar
    11    11    12   ar
    12    12    13   ar
    13    13    14   ar
    14    14    15   ar
    15     6    16    1
    16    16    17   ar
    17    17    18   ar
    18    18    19   ar
    19    19    20   ar
    20    20    21   ar
    21     5    22    1
    22    22    23   ar
    23    23    24   ar
    24    24    25   ar
    25    25    26   ar
    26    26    27   ar
    27     9     1    1
    28    15    10   ar
    29    21    16   ar
    30    27    22   ar
    31     8     4   ar
    32     1    28    1
    33     1    29    1
    34     2    30    1
    35     2    31    1
    36     3    32    1
    37     3    33    1
    38     9    34    1
    39     9    35    1
    40    12    36    1
    41    13    37    1
    42    14    38    1
    43    15    39    1
    44    17    40    1
    45    18    41    1
    46    19    42    1
    47    20    43    1
    48    21    44    1
    49    24    45    1
    50    25    46    1
    51    26    47    1
    52    27    48    1
