@<TRIPOS>MOLECULE
*****
 43 45 0 0 0
SMALL
GASTEIGER

@<TRIPOS>ATOM
      1 N          -3.1206    2.9752   -1.6259 N.pl3   1  UNL1       -0.3134
      2 C          -3.2577    1.7696   -0.8889 C.2     1  UNL1        0.2766
      3 N          -2.2452    1.2624   -0.2733 N.2     1  UNL1       -0.2227
      4 C          -2.4627    0.0225    0.4637 C.3     1  UNL1        0.1273
      5 C          -3.1176    0.3979    1.7578 C.3     1  UNL1        0.1197
      6 F          -2.2391    1.2551    2.4309 F       1  UNL1       -0.2462
      7 C          -1.1708   -0.6538    0.7490 C.ar    1  UNL1        0.0387
      8 C           0.0400   -0.1505    0.3472 C.ar    1  UNL1       -0.0291
      9 C           1.2268   -0.8369    0.6430 C.ar    1  UNL1        0.0525
     10 N           2.4274   -0.2323    0.1830 N.am    1  UNL1       -0.2789
     11 C           3.7417   -0.7116    0.3463 C.2     1  UNL1        0.2666
     12 O           3.9378   -1.7808    0.9537 O.2     1  UNL1       -0.2682
     13 C           4.9070    0.0082   -0.1780 C.ar    1  UNL1        0.1257
     14 C           6.1509   -0.5286    0.0252 C.ar    1  UNL1       -0.0298
     15 C           7.2904    0.0869   -0.4357 C.ar    1  UNL1       -0.0397
     16 C           7.1696    1.2713   -1.1172 C.ar    1  UNL1        0.0591
     17 CL          8.6147    2.0730   -1.7141 Cl      1  UNL1       -0.0820
     18 C           5.9115    1.7935   -1.3106 C.ar    1  UNL1        0.0467
     19 N           4.8158    1.1675   -0.8475 N.ar    1  UNL1       -0.2489
     20 C           1.1197   -2.0006    1.3328 C.ar    1  UNL1        0.0519
     21 N          -0.0553   -2.4871    1.7217 N.ar    1  UNL1       -0.2255
     22 C          -1.1870   -1.8325    1.4397 C.ar    1  UNL1        0.2189
     23 F          -2.3334   -2.4352    1.8988 F       1  UNL1       -0.1835
     24 C          -3.2904   -0.8852   -0.4066 C.3     1  UNL1        0.0251
     25 C          -4.5538   -0.2797   -0.9184 C.3     1  UNL1        0.1998
     26 C          -5.7927   -0.8723   -0.3191 C.3     1  UNL1        0.4266
     27 F          -6.9267   -0.2669   -0.8346 F       1  UNL1       -0.1669
     28 F          -5.8719   -0.8061    1.0379 F       1  UNL1       -0.1669
     29 F          -5.8395   -2.2060   -0.7035 F       1  UNL1       -0.1669
     30 O          -4.5072    1.1399   -0.8405 O.2     1  UNL1       -0.4534
     31 H          -3.2579    3.8890   -1.1645 H       1  UNL1        0.1466
     32 H          -2.8822    2.9224   -2.6278 H       1  UNL1        0.1466
     33 H          -3.9983    1.0611    1.5223 H       1  UNL1        0.0643
     34 H          -3.3550   -0.4296    2.4223 H       1  UNL1        0.0643
     35 H           0.0490    0.7911   -0.2041 H       1  UNL1        0.0641
     36 H           2.3819    0.6957   -0.3554 H       1  UNL1        0.1552
     37 H           6.2789   -1.4632    0.5600 H       1  UNL1        0.0641
     38 H           8.2761   -0.3596   -0.2624 H       1  UNL1        0.0633
     39 H           5.8612    2.7338   -1.8557 H       1  UNL1        0.0844
     40 H           2.0341   -2.5600    1.5786 H       1  UNL1        0.0849
     41 H          -3.5481   -1.8497    0.0673 H       1  UNL1        0.0331
     42 H          -2.6063   -1.1737   -1.2602 H       1  UNL1        0.0331
     43 H          -4.6149   -0.5141   -2.0232 H       1  UNL1        0.0826
@<TRIPOS>BOND
     1     1     2    1
     2     2     3    2
     3     3     4    1
     4     4     5    1
     5     5     6    1
     6     4     7    1
     7     7     8   ar
     8     8     9   ar
     9     9    10    1
    10    10    11   am
    11    11    12    2
    12    11    13    1
    13    13    14   ar
    14    14    15   ar
    15    15    16   ar
    16    16    17    1
    17    16    18   ar
    18    18    19   ar
    19     9    20   ar
    20    20    21   ar
    21    21    22   ar
    22    22    23    1
    23     4    24    1
    24    24    25    1
    25    25    26    1
    26    26    27    1
    27    26    28    1
    28    26    29    1
    29    25    30    1
    30    30     2    1
    31    22     7   ar
    32    19    13   ar
    33     1    31    1
    34     1    32    1
    35     5    33    1
    36     5    34    1
    37     8    35    1
    38    10    36    1
    39    14    37    1
    40    15    38    1
    41    18    39    1
    42    20    40    1
    43    24    41    1
    44    24    42    1
    45    25    43    1
