
     RDKit          3D

 43 45  0  0  0  0  0  0  0  0999 V2000
   -3.1206    2.9752   -1.6259 N   0  0  0  0  0  0  0  0  0  0  0  0
   -3.2577    1.7696   -0.8889 C   0  0  0  0  0  0  0  0  0  0  0  0
   -2.2452    1.2624   -0.2733 N   0  0  0  0  0  0  0  0  0  0  0  0
   -2.4627    0.0225    0.4637 C   0  0  2  0  0  0  0  0  0  0  0  0
   -3.1176    0.3979    1.7578 C   0  0  0  0  0  0  0  0  0  0  0  0
   -2.2391    1.2551    2.4309 F   0  0  0  0  0  0  0  0  0  0  0  0
   -1.1708   -0.6538    0.7490 C   0  0  0  0  0  0  0  0  0  0  0  0
    0.0400   -0.1505    0.3472 C   0  0  0  0  0  0  0  0  0  0  0  0
    1.2268   -0.8369    0.6430 C   0  0  0  0  0  0  0  0  0  0  0  0
    2.4274   -0.2323    0.1830 N   0  0  0  0  0  0  0  0  0  0  0  0
    3.7417   -0.7116    0.3463 C   0  0  0  0  0  0  0  0  0  0  0  0
    3.9378   -1.7808    0.9537 O   0  0  0  0  0  0  0  0  0  0  0  0
    4.9070    0.0082   -0.1780 C   0  0  0  0  0  0  0  0  0  0  0  0
    6.1509   -0.5286    0.0252 C   0  0  0  0  0  0  0  0  0  0  0  0
    7.2904    0.0869   -0.4357 C   0  0  0  0  0  0  0  0  0  0  0  0
    7.1696    1.2713   -1.1172 C   0  0  0  0  0  0  0  0  0  0  0  0
    8.6147    2.0730   -1.7141 Cl  0  0  0  0  0  0  0  0  0  0  0  0
    5.9115    1.7935   -1.3106 C   0  0  0  0  0  0  0  0  0  0  0  0
    4.8158    1.1675   -0.8475 N   0  0  0  0  0  0  0  0  0  0  0  0
    1.1197   -2.0006    1.3328 C   0  0  0  0  0  0  0  0  0  0  0  0
   -0.0553   -2.4871    1.7217 N   0  0  0  0  0  0  0  0  0  0  0  0
   -1.1870   -1.8325    1.4397 C   0  0  0  0  0  0  0  0  0  0  0  0
   -2.3334   -2.4352    1.8988 F   0  0  0  0  0  0  0  0  0  0  0  0
   -3.2904   -0.8852   -0.4066 C   0  0  0  0  0  0  0  0  0  0  0  0
   -4.5538   -0.2797   -0.9184 C   0  0  1  0  0  0  0  0  0  0  0  0
   -5.7927   -0.8723   -0.3191 C   0  0  0  0  0  0  0  0  0  0  0  0
   -6.9267   -0.2669   -0.8346 F   0  0  0  0  0  0  0  0  0  0  0  0
   -5.8719   -0.8061    1.0379 F   0  0  0  0  0  0  0  0  0  0  0  0
   -5.8395   -2.2060   -0.7035 F   0  0  0  0  0  0  0  0  0  0  0  0
   -4.5072    1.1399   -0.8405 O   0  0  0  0  0  0  0  0  0  0  0  0
   -3.2579    3.8890   -1.1645 H   0  0  0  0  0  0  0  0  0  0  0  0
   -2.8822    2.9224   -2.6278 H   0  0  0  0  0  0  0  0  0  0  0  0
   -3.9983    1.0611    1.5223 H   0  0  0  0  0  0  0  0  0  0  0  0
   -3.3550   -0.4296    2.4223 H   0  0  0  0  0  0  0  0  0  0  0  0
    0.0490    0.7911   -0.2041 H   0  0  0  0  0  0  0  0  0  0  0  0
    2.3819    0.6957   -0.3554 H   0  0  0  0  0  0  0  0  0  0  0  0
    6.2789   -1.4632    0.5600 H   0  0  0  0  0  0  0  0  0  0  0  0
    8.2761   -0.3596   -0.2624 H   0  0  0  0  0  0  0  0  0  0  0  0
    5.8612    2.7338   -1.8557 H   0  0  0  0  0  0  0  0  0  0  0  0
    2.0341   -2.5600    1.5786 H   0  0  0  0  0  0  0  0  0  0  0  0
   -3.5481   -1.8497    0.0673 H   0  0  0  0  0  0  0  0  0  0  0  0
   -2.6063   -1.1737   -1.2602 H   0  0  0  0  0  0  0  0  0  0  0  0
   -4.6149   -0.5141   -2.0232 H   0  0  0  0  0  0  0  0  0  0  0  0
  1  2  1  0
  2  3  2  0
  3  4  1  0
  4  5  1  1
  5  6  1  0
  4  7  1  0
  7  8  2  0
  8  9  1  0
  9 10  1  0
 10 11  1  0
 11 12  2  0
 11 13  1  0
 13 14  2  0
 14 15  1  0
 15 16  2  0
 16 17  1  0
 16 18  1  0
 18 19  2  0
  9 20  2  0
 20 21  1  0
 21 22  2  0
 22 23  1  0
  4 24  1  0
 24 25  1  0
 25 26  1  0
 26 27  1  0
 26 28  1  0
 26 29  1  0
 25 30  1  0
 30  2  1  0
 22  7  1  0
 19 13  1  0
  1 31  1  0
  1 32  1  0
  5 33  1  0
  5 34  1  0
  8 35  1  0
 10 36  1  0
 14 37  1  0
 15 38  1  0
 18 39  1  0
 20 40  1  0
 24 41  1  0
 24 42  1  0
 25 43  1  6
M  END
$$$$
