@<TRIPOS>MOLECULE
*****
 63 66 0 0 0
SMALL
GASTEIGER

@<TRIPOS>ATOM
      1 C           2.7519   -2.3416   -2.9091 C.3     1  UNL1        0.0790
      2 O           1.7062   -1.7230   -2.1843 O.3     1  UNL1       -0.4914
      3 C           2.0606   -0.8299   -1.1826 C.ar    1  UNL1        0.1623
      4 C           3.3872   -0.5410   -0.8859 C.ar    1  UNL1       -0.0038
      5 C           3.7426    0.3399    0.1011 C.ar    1  UNL1        0.0441
      6 C           5.0426    0.6606    0.4344 C.ar    1  UNL1        0.1340
      7 N           6.1196    0.0450   -0.2377 N.pl3   1  UNL1       -0.2988
      8 C           7.4916    0.3568   -0.0326 C.ar    1  UNL1        0.0339
      9 C           8.4508   -0.6227   -0.2909 C.ar    1  UNL1       -0.0390
     10 C           9.7898   -0.3799   -0.1298 C.ar    1  UNL1       -0.0402
     11 C          10.2037    0.8753    0.3023 C.ar    1  UNL1        0.0594
     12 CL         11.9199    1.1355    0.4924 Cl      1  UNL1       -0.0820
     13 C           9.2909    1.8674    0.5672 C.ar    1  UNL1        0.0610
     14 CL          9.8236    3.4464    1.1119 Cl      1  UNL1       -0.0820
     15 C           7.9386    1.5820    0.3914 C.ar    1  UNL1       -0.0207
     16 N           5.2852    1.5358    1.4160 N.ar    1  UNL1       -0.2200
     17 C           4.2989    2.1291    2.1069 C.ar    1  UNL1        0.1187
     18 N           3.0230    1.8335    1.8021 N.ar    1  UNL1       -0.2352
     19 C           2.7280    0.9529    0.8157 C.ar    1  UNL1        0.0797
     20 C           1.4030    0.6914    0.5504 C.ar    1  UNL1        0.0098
     21 C           1.0903   -0.2067   -0.4563 C.ar    1  UNL1        0.1641
     22 O          -0.2369   -0.5065   -0.7612 O.3     1  UNL1       -0.4856
     23 C          -1.2572    0.1121   -0.0283 C.3     1  UNL1        0.1170
     24 C          -2.6425   -0.3272   -0.4862 C.3     1  UNL1        0.1052
     25 C          -3.6724    0.3699    0.3457 C.3     1  UNL1        0.0286
     26 N          -5.0293   -0.1141    0.1175 N.3     1  UNL1       -0.2954
     27 C          -5.6474   -0.5292    1.3360 C.3     1  UNL1        0.0225
     28 C          -7.0561   -0.9740    1.2225 C.3     1  UNL1        0.0605
     29 O          -7.9163   -0.0229    0.7801 O.3     1  UNL1       -0.3763
     30 C          -7.7330    0.5416   -0.4387 C.3     1  UNL1        0.0708
     31 C          -8.8955    1.5397   -0.6300 C.3     1  UNL1        0.0676
     32 O          -8.7622    2.4542    0.4273 O.3     1  UNL1       -0.3927
     33 C          -4.9525   -1.1940   -0.8578 C.3     1  UNL1        0.0225
     34 C          -3.9441   -2.2457   -0.4430 C.3     1  UNL1        0.0609
     35 O          -2.6739   -1.7159   -0.3031 O.3     1  UNL1       -0.3707
     36 H           3.3630   -2.8997   -2.1717 H       1  UNL1        0.0660
     37 H           3.4255   -1.5356   -3.3014 H       1  UNL1        0.0660
     38 H           2.3656   -2.9789   -3.7315 H       1  UNL1        0.0660
     39 H           4.1416   -1.0328   -1.4621 H       1  UNL1        0.0663
     40 H           5.9481   -0.7206   -0.9663 H       1  UNL1        0.1536
     41 H           8.0856   -1.5880   -0.6247 H       1  UNL1        0.0636
     42 H          10.5299   -1.1630   -0.3375 H       1  UNL1        0.0633
     43 H           7.2362    2.3755    0.5933 H       1  UNL1        0.0651
     44 H           4.5993    2.8204    2.8795 H       1  UNL1        0.1048
     45 H           0.6320    1.1817    1.1214 H       1  UNL1        0.0677
     46 H          -1.1739   -0.1051    1.0584 H       1  UNL1        0.0723
     47 H          -1.1980    1.1972   -0.2209 H       1  UNL1        0.0723
     48 H          -2.7866   -0.1388   -1.5620 H       1  UNL1        0.0643
     49 H          -3.6808    1.4475    0.0734 H       1  UNL1        0.0453
     50 H          -3.4058    0.3039    1.4151 H       1  UNL1        0.0453
     51 H          -5.6344    0.3447    2.0476 H       1  UNL1        0.0449
     52 H          -5.0479   -1.3259    1.8350 H       1  UNL1        0.0449
     53 H          -7.3876   -1.2408    2.2766 H       1  UNL1        0.0572
     54 H          -7.1635   -1.9521    0.6860 H       1  UNL1        0.0572
     55 H          -6.8254    1.2160   -0.4718 H       1  UNL1        0.0583
     56 H          -7.7764   -0.1405   -1.3034 H       1  UNL1        0.0583
     57 H          -9.8263    0.9822   -0.4968 H       1  UNL1        0.0580
     58 H          -8.8246    2.0403   -1.5991 H       1  UNL1        0.0580
     59 H          -7.8346    2.8521    0.3903 H       1  UNL1        0.2095
     60 H          -5.9494   -1.6486   -0.9245 H       1  UNL1        0.0449
     61 H          -4.7088   -0.7483   -1.8347 H       1  UNL1        0.0449
     62 H          -3.9713   -3.0688   -1.2046 H       1  UNL1        0.0573
     63 H          -4.2603   -2.6692    0.5228 H       1  UNL1        0.0573
@<TRIPOS>BOND
     1     1     2    1
     2     2     3    1
     3     3     4   ar
     4     4     5   ar
     5     5     6   ar
     6     6     7    1
     7     7     8    1
     8     8     9   ar
     9     9    10   ar
    10    10    11   ar
    11    11    12    1
    12    11    13   ar
    13    13    14    1
    14    13    15   ar
    15     6    16   ar
    16    16    17   ar
    17    17    18   ar
    18    18    19   ar
    19    19    20   ar
    20    20    21   ar
    21    21    22    1
    22    22    23    1
    23    23    24    1
    24    24    25    1
    25    25    26    1
    26    26    27    1
    27    27    28    1
    28    28    29    1
    29    29    30    1
    30    30    31    1
    31    31    32    1
    32    26    33    1
    33    33    34    1
    34    34    35    1
    35    21     3   ar
    36    35    24    1
    37    19     5   ar
    38    15     8   ar
    39     1    36    1
    40     1    37    1
    41     1    38    1
    42     4    39    1
    43     7    40    1
    44     9    41    1
    45    10    42    1
    46    15    43    1
    47    17    44    1
    48    20    45    1
    49    23    46    1
    50    23    47    1
    51    24    48    1
    52    25    49    1
    53    25    50    1
    54    27    51    1
    55    27    52    1
    56    28    53    1
    57    28    54    1
    58    30    55    1
    59    30    56    1
    60    31    57    1
    61    31    58    1
    62    32    59    1
    63    33    60    1
    64    33    61    1
    65    34    62    1
    66    34    63    1
