
     RDKit          3D

 63 66  0  0  0  0  0  0  0  0999 V2000
    2.7519   -2.3416   -2.9091 C   0  0  0  0  0  0  0  0  0  0  0  0
    1.7062   -1.7230   -2.1843 O   0  0  0  0  0  0  0  0  0  0  0  0
    2.0606   -0.8299   -1.1826 C   0  0  0  0  0  0  0  0  0  0  0  0
    3.3872   -0.5410   -0.8859 C   0  0  0  0  0  0  0  0  0  0  0  0
    3.7426    0.3399    0.1011 C   0  0  0  0  0  0  0  0  0  0  0  0
    5.0426    0.6606    0.4344 C   0  0  0  0  0  0  0  0  0  0  0  0
    6.1196    0.0450   -0.2377 N   0  0  0  0  0  0  0  0  0  0  0  0
    7.4916    0.3568   -0.0326 C   0  0  0  0  0  0  0  0  0  0  0  0
    8.4508   -0.6227   -0.2909 C   0  0  0  0  0  0  0  0  0  0  0  0
    9.7898   -0.3799   -0.1298 C   0  0  0  0  0  0  0  0  0  0  0  0
   10.2037    0.8753    0.3023 C   0  0  0  0  0  0  0  0  0  0  0  0
   11.9199    1.1355    0.4924 Cl  0  0  0  0  0  0  0  0  0  0  0  0
    9.2909    1.8674    0.5672 C   0  0  0  0  0  0  0  0  0  0  0  0
    9.8236    3.4464    1.1119 Cl  0  0  0  0  0  0  0  0  0  0  0  0
    7.9386    1.5820    0.3914 C   0  0  0  0  0  0  0  0  0  0  0  0
    5.2852    1.5358    1.4160 N   0  0  0  0  0  0  0  0  0  0  0  0
    4.2989    2.1291    2.1069 C   0  0  0  0  0  0  0  0  0  0  0  0
    3.0230    1.8335    1.8021 N   0  0  0  0  0  0  0  0  0  0  0  0
    2.7280    0.9529    0.8157 C   0  0  0  0  0  0  0  0  0  0  0  0
    1.4030    0.6914    0.5504 C   0  0  0  0  0  0  0  0  0  0  0  0
    1.0903   -0.2067   -0.4563 C   0  0  0  0  0  0  0  0  0  0  0  0
   -0.2369   -0.5065   -0.7612 O   0  0  0  0  0  0  0  0  0  0  0  0
   -1.2572    0.1121   -0.0283 C   0  0  0  0  0  0  0  0  0  0  0  0
   -2.6425   -0.3272   -0.4862 C   0  0  0  0  0  0  0  0  0  0  0  0
   -3.6724    0.3699    0.3457 C   0  0  0  0  0  0  0  0  0  0  0  0
   -5.0293   -0.1141    0.1175 N   0  0  0  0  0  0  0  0  0  0  0  0
   -5.6474   -0.5292    1.3360 C   0  0  0  0  0  0  0  0  0  0  0  0
   -7.0561   -0.9740    1.2225 C   0  0  0  0  0  0  0  0  0  0  0  0
   -7.9163   -0.0229    0.7801 O   0  0  0  0  0  0  0  0  0  0  0  0
   -7.7330    0.5416   -0.4387 C   0  0  0  0  0  0  0  0  0  0  0  0
   -8.8955    1.5397   -0.6300 C   0  0  0  0  0  0  0  0  0  0  0  0
   -8.7622    2.4542    0.4273 O   0  0  0  0  0  0  0  0  0  0  0  0
   -4.9525   -1.1940   -0.8578 C   0  0  0  0  0  0  0  0  0  0  0  0
   -3.9441   -2.2457   -0.4430 C   0  0  0  0  0  0  0  0  0  0  0  0
   -2.6739   -1.7159   -0.3031 O   0  0  0  0  0  0  0  0  0  0  0  0
    3.3630   -2.8997   -2.1717 H   0  0  0  0  0  0  0  0  0  0  0  0
    3.4255   -1.5356   -3.3014 H   0  0  0  0  0  0  0  0  0  0  0  0
    2.3656   -2.9789   -3.7315 H   0  0  0  0  0  0  0  0  0  0  0  0
    4.1416   -1.0328   -1.4621 H   0  0  0  0  0  0  0  0  0  0  0  0
    5.9481   -0.7206   -0.9663 H   0  0  0  0  0  0  0  0  0  0  0  0
    8.0856   -1.5880   -0.6247 H   0  0  0  0  0  0  0  0  0  0  0  0
   10.5299   -1.1630   -0.3375 H   0  0  0  0  0  0  0  0  0  0  0  0
    7.2362    2.3755    0.5933 H   0  0  0  0  0  0  0  0  0  0  0  0
    4.5993    2.8204    2.8795 H   0  0  0  0  0  0  0  0  0  0  0  0
    0.6320    1.1817    1.1214 H   0  0  0  0  0  0  0  0  0  0  0  0
   -1.1739   -0.1051    1.0584 H   0  0  0  0  0  0  0  0  0  0  0  0
   -1.1980    1.1972   -0.2209 H   0  0  0  0  0  0  0  0  0  0  0  0
   -2.7866   -0.1388   -1.5620 H   0  0  0  0  0  0  0  0  0  0  0  0
   -3.6808    1.4475    0.0734 H   0  0  0  0  0  0  0  0  0  0  0  0
   -3.4058    0.3039    1.4151 H   0  0  0  0  0  0  0  0  0  0  0  0
   -5.6344    0.3447    2.0476 H   0  0  0  0  0  0  0  0  0  0  0  0
   -5.0479   -1.3259    1.8350 H   0  0  0  0  0  0  0  0  0  0  0  0
   -7.3876   -1.2408    2.2766 H   0  0  0  0  0  0  0  0  0  0  0  0
   -7.1635   -1.9521    0.6860 H   0  0  0  0  0  0  0  0  0  0  0  0
   -6.8254    1.2160   -0.4718 H   0  0  0  0  0  0  0  0  0  0  0  0
   -7.7764   -0.1405   -1.3034 H   0  0  0  0  0  0  0  0  0  0  0  0
   -9.8263    0.9822   -0.4968 H   0  0  0  0  0  0  0  0  0  0  0  0
   -8.8246    2.0403   -1.5991 H   0  0  0  0  0  0  0  0  0  0  0  0
   -7.8346    2.8521    0.3903 H   0  0  0  0  0  0  0  0  0  0  0  0
   -5.9494   -1.6486   -0.9245 H   0  0  0  0  0  0  0  0  0  0  0  0
   -4.7088   -0.7483   -1.8347 H   0  0  0  0  0  0  0  0  0  0  0  0
   -3.9713   -3.0688   -1.2046 H   0  0  0  0  0  0  0  0  0  0  0  0
   -4.2603   -2.6692    0.5228 H   0  0  0  0  0  0  0  0  0  0  0  0
  1  2  1  0
  2  3  1  0
  3  4  2  0
  4  5  1  0
  5  6  2  0
  6  7  1  0
  7  8  1  0
  8  9  2  0
  9 10  1  0
 10 11  2  0
 11 12  1  0
 11 13  1  0
 13 14  1  0
 13 15  2  0
  6 16  1  0
 16 17  2  0
 17 18  1  0
 18 19  2  0
 19 20  1  0
 20 21  2  0
 21 22  1  0
 22 23  1  0
 23 24  1  0
 24 25  1  0
 25 26  1  0
 26 27  1  0
 27 28  1  0
 28 29  1  0
 29 30  1  0
 30 31  1  0
 31 32  1  0
 26 33  1  0
 33 34  1  0
 34 35  1  0
 21  3  1  0
 35 24  1  0
 19  5  1  0
 15  8  1  0
  1 36  1  0
  1 37  1  0
  1 38  1  0
  4 39  1  0
  7 40  1  0
  9 41  1  0
 10 42  1  0
 15 43  1  0
 17 44  1  0
 20 45  1  0
 23 46  1  0
 23 47  1  0
 24 48  1  0
 25 49  1  0
 25 50  1  0
 27 51  1  0
 27 52  1  0
 28 53  1  0
 28 54  1  0
 30 55  1  0
 30 56  1  0
 31 57  1  0
 31 58  1  0
 32 59  1  0
 33 60  1  0
 33 61  1  0
 34 62  1  0
 34 63  1  0
M  END
$$$$
