
     RDKit          3D

 63 67  0  0  0  0  0  0  0  0999 V2000
   -3.0190   -0.6971   -2.1322 O   0  0  0  0  0  0  0  0  0  0  0  0
   -2.9731    0.0680   -1.1333 C   0  0  0  0  0  0  0  0  0  0  0  0
   -4.0993    0.0847   -0.2994 N   0  0  0  0  0  0  0  0  0  0  0  0
   -5.2889   -0.6992   -0.5001 C   0  0  1  0  0  0  0  0  0  0  0  0
   -5.6514   -1.5911    0.6210 C   0  0  0  0  0  0  0  0  0  0  0  0
   -7.1426   -1.9306    0.4828 C   0  0  0  0  0  0  0  0  0  0  0  0
   -7.9807   -0.7130    0.8414 C   0  0  0  0  0  0  0  0  0  0  0  0
   -7.1131    0.5030    0.5926 C   0  0  2  0  0  0  0  0  0  0  0  0
   -7.9260    1.7760    0.5453 C   0  0  0  0  0  0  0  0  0  0  0  0
   -8.8788    1.7529   -0.4609 O   0  0  0  0  0  0  0  0  0  0  0  0
   -6.4263    0.2724   -0.7523 C   0  0  0  0  0  0  0  0  0  0  0  0
   -1.7756    0.9048   -0.8670 C   0  0  0  0  0  0  0  0  0  0  0  0
   -1.1634    0.5808    0.4638 C   0  0  0  0  0  0  0  0  0  0  0  0
    0.2824    1.0190    0.5472 C   0  0  0  0  0  0  0  0  0  0  0  0
    1.0324    0.2251   -0.4052 N   0  0  0  0  0  0  0  0  0  0  0  0
    2.4101   -0.1118   -0.1407 C   0  0  0  0  0  0  0  0  0  0  0  0
    2.8695   -1.1963    0.5079 N   0  0  0  0  0  0  0  0  0  0  0  0
    4.2157   -1.1594    0.5555 C   0  0  0  0  0  0  0  0  0  0  0  0
    5.1864   -1.9953    1.0870 C   0  0  0  0  0  0  0  0  0  0  0  0
    6.5372   -1.6902    0.9802 C   0  0  0  0  0  0  0  0  0  0  0  0
    7.7603   -2.7427    1.6543 Cl  0  0  0  0  0  0  0  0  0  0  0  0
    6.8635   -0.5224    0.3234 C   0  0  0  0  0  0  0  0  0  0  0  0
    8.2661   -0.1435    0.1721 C   0  0  0  0  0  0  0  0  0  0  0  0
    8.6454    1.1526    0.4508 C   0  0  0  0  0  0  0  0  0  0  0  0
    9.9455    1.5571    0.3213 C   0  0  0  0  0  0  0  0  0  0  0  0
   10.9041    0.6690   -0.0929 C   0  0  0  0  0  0  0  0  0  0  0  0
   12.5945    1.1628   -0.2698 Cl  0  0  0  0  0  0  0  0  0  0  0  0
   10.5584   -0.6319   -0.3791 C   0  0  0  0  0  0  0  0  0  0  0  0
    9.2257   -1.0375   -0.2440 C   0  0  0  0  0  0  0  0  0  0  0  0
    5.9054    0.3074   -0.2038 C   0  0  0  0  0  0  0  0  0  0  0  0
    4.5683    0.0006   -0.0952 C   0  0  0  0  0  0  0  0  0  0  0  0
    3.4591    0.5894   -0.4913 O   0  0  0  0  0  0  0  0  0  0  0  0
    0.3454   -0.2025   -1.6071 C   0  0  0  0  0  0  0  0  0  0  0  0
   -0.7361    0.8074   -1.9224 C   0  0  0  0  0  0  0  0  0  0  0  0
   -4.0880    0.7154    0.5433 H   0  0  0  0  0  0  0  0  0  0  0  0
   -5.1407   -1.3007   -1.4188 H   0  0  0  0  0  0  0  0  0  0  0  0
   -5.5148   -1.1997    1.6253 H   0  0  0  0  0  0  0  0  0  0  0  0
   -5.1278   -2.5783    0.4663 H   0  0  0  0  0  0  0  0  0  0  0  0
   -7.3481   -2.2446   -0.5804 H   0  0  0  0  0  0  0  0  0  0  0  0
   -7.3783   -2.7285    1.1878 H   0  0  0  0  0  0  0  0  0  0  0  0
   -8.3146   -0.7717    1.8950 H   0  0  0  0  0  0  0  0  0  0  0  0
   -8.8641   -0.6159    0.1518 H   0  0  0  0  0  0  0  0  0  0  0  0
   -6.3460    0.6476    1.3843 H   0  0  0  0  0  0  0  0  0  0  0  0
   -7.2104    2.5990    0.3278 H   0  0  0  0  0  0  0  0  0  0  0  0
   -8.3462    1.9653    1.5422 H   0  0  0  0  0  0  0  0  0  0  0  0
   -9.6224    2.3785   -0.2621 H   0  0  0  0  0  0  0  0  0  0  0  0
   -7.1288   -0.1951   -1.4591 H   0  0  0  0  0  0  0  0  0  0  0  0
   -6.0243    1.2337   -1.1423 H   0  0  0  0  0  0  0  0  0  0  0  0
   -2.1234    1.9736   -0.8157 H   0  0  0  0  0  0  0  0  0  0  0  0
   -1.7608    1.0408    1.2988 H   0  0  0  0  0  0  0  0  0  0  0  0
   -1.1707   -0.5224    0.6210 H   0  0  0  0  0  0  0  0  0  0  0  0
    0.6441    0.8493    1.5725 H   0  0  0  0  0  0  0  0  0  0  0  0
    0.3885    2.1101    0.3537 H   0  0  0  0  0  0  0  0  0  0  0  0
    4.8740   -2.8883    1.5859 H   0  0  0  0  0  0  0  0  0  0  0  0
    7.8888    1.8533    0.7776 H   0  0  0  0  0  0  0  0  0  0  0  0
   10.2336    2.5664    0.5397 H   0  0  0  0  0  0  0  0  0  0  0  0
   11.2564   -1.3787   -0.7075 H   0  0  0  0  0  0  0  0  0  0  0  0
    8.9625   -2.0712   -0.4758 H   0  0  0  0  0  0  0  0  0  0  0  0
    6.1701    1.2374   -0.7264 H   0  0  0  0  0  0  0  0  0  0  0  0
   -0.0537   -1.2298   -1.5227 H   0  0  0  0  0  0  0  0  0  0  0  0
    1.0851   -0.1692   -2.4308 H   0  0  0  0  0  0  0  0  0  0  0  0
   -0.2225    1.7928   -2.0185 H   0  0  0  0  0  0  0  0  0  0  0  0
   -1.1181    0.5623   -2.9319 H   0  0  0  0  0  0  0  0  0  0  0  0
  1  2  2  0
  2  3  1  0
  3  4  1  0
  4  5  1  0
  5  6  1  0
  6  7  1  0
  7  8  1  0
  8  9  1  0
  9 10  1  0
  8 11  1  0
  2 12  1  0
 12 13  1  0
 13 14  1  0
 14 15  1  0
 15 16  1  0
 16 17  2  0
 17 18  1  0
 18 19  2  0
 19 20  1  0
 20 21  1  0
 20 22  2  0
 22 23  1  0
 23 24  2  0
 24 25  1  0
 25 26  2  0
 26 27  1  0
 26 28  1  0
 28 29  2  0
 22 30  1  0
 30 31  2  0
 31 32  1  0
 15 33  1  0
 33 34  1  0
 11  4  1  0
 34 12  1  0
 32 16  1  0
 31 18  1  0
 29 23  1  0
  3 35  1  0
  4 36  1  6
  5 37  1  0
  5 38  1  0
  6 39  1  0
  6 40  1  0
  7 41  1  0
  7 42  1  0
  8 43  1  1
  9 44  1  0
  9 45  1  0
 10 46  1  0
 11 47  1  0
 11 48  1  0
 12 49  1  0
 13 50  1  0
 13 51  1  0
 14 52  1  0
 14 53  1  0
 19 54  1  0
 24 55  1  0
 25 56  1  0
 28 57  1  0
 29 58  1  0
 30 59  1  0
 33 60  1  0
 33 61  1  0
 34 62  1  0
 34 63  1  0
M  END
$$$$
