@<TRIPOS>MOLECULE
*****
 63 67 0 0 0
SMALL
GASTEIGER

@<TRIPOS>ATOM
      1 O          -3.0190   -0.6971   -2.1322 O.2     1  UNL1       -0.2755
      2 C          -2.9731    0.0680   -1.1333 C.2     1  UNL1        0.2164
      3 N          -4.0993    0.0847   -0.2994 N.am    1  UNL1       -0.3122
      4 C          -5.2889   -0.6992   -0.5001 C.3     1  UNL1        0.0234
      5 C          -5.6514   -1.5911    0.6210 C.3     1  UNL1       -0.0345
      6 C          -7.1426   -1.9306    0.4828 C.3     1  UNL1       -0.0511
      7 C          -7.9807   -0.7130    0.8414 C.3     1  UNL1       -0.0480
      8 C          -7.1131    0.5030    0.5926 C.3     1  UNL1       -0.0161
      9 C          -7.9260    1.7760    0.5453 C.3     1  UNL1        0.0471
     10 O          -8.8788    1.7529   -0.4609 O.3     1  UNL1       -0.3947
     11 C          -6.4263    0.2724   -0.7523 C.3     1  UNL1       -0.0296
     12 C          -1.7756    0.9048   -0.8670 C.3     1  UNL1        0.0384
     13 C          -1.1634    0.5808    0.4638 C.3     1  UNL1       -0.0259
     14 C           0.2824    1.0190    0.5472 C.3     1  UNL1        0.0170
     15 N           1.0324    0.2251   -0.4052 N.pl3   1  UNL1       -0.2850
     16 C           2.4101   -0.1118   -0.1407 C.ar    1  UNL1        0.2911
     17 N           2.8695   -1.1963    0.5079 N.ar    1  UNL1       -0.1953
     18 C           4.2157   -1.1594    0.5555 C.ar    1  UNL1        0.1126
     19 C           5.1864   -1.9953    1.0870 C.ar    1  UNL1       -0.0136
     20 C           6.5372   -1.6902    0.9802 C.ar    1  UNL1        0.0509
     21 CL          7.7603   -2.7427    1.6543 Cl      1  UNL1       -0.0828
     22 C           6.8635   -0.5224    0.3234 C.ar    1  UNL1        0.0040
     23 C           8.2661   -0.1435    0.1721 C.ar    1  UNL1       -0.0163
     24 C           8.6454    1.1526    0.4508 C.ar    1  UNL1       -0.0526
     25 C           9.9455    1.5571    0.3213 C.ar    1  UNL1       -0.0428
     26 C          10.9041    0.6690   -0.0929 C.ar    1  UNL1        0.0410
     27 CL         12.5945    1.1628   -0.2698 Cl      1  UNL1       -0.0835
     28 C          10.5584   -0.6319   -0.3791 C.ar    1  UNL1       -0.0428
     29 C           9.2257   -1.0375   -0.2440 C.ar    1  UNL1       -0.0526
     30 C           5.9054    0.3074   -0.2038 C.ar    1  UNL1       -0.0080
     31 C           4.5683    0.0006   -0.0952 C.ar    1  UNL1        0.1577
     32 O           3.4591    0.5894   -0.4913 O.2     1  UNL1       -0.4244
     33 C           0.3454   -0.2025   -1.6071 C.3     1  UNL1        0.0170
     34 C          -0.7361    0.8074   -1.9224 C.3     1  UNL1       -0.0259
     35 H          -4.0880    0.7154    0.5433 H       1  UNL1        0.1490
     36 H          -5.1407   -1.3007   -1.4188 H       1  UNL1        0.0498
     37 H          -5.5148   -1.1997    1.6253 H       1  UNL1        0.0283
     38 H          -5.1278   -2.5783    0.4663 H       1  UNL1        0.0283
     39 H          -7.3481   -2.2446   -0.5804 H       1  UNL1        0.0266
     40 H          -7.3783   -2.7285    1.1878 H       1  UNL1        0.0266
     41 H          -8.3146   -0.7717    1.8950 H       1  UNL1        0.0269
     42 H          -8.8641   -0.6159    0.1518 H       1  UNL1        0.0269
     43 H          -6.3460    0.6476    1.3843 H       1  UNL1        0.0323
     44 H          -7.2104    2.5990    0.3278 H       1  UNL1        0.0560
     45 H          -8.3462    1.9653    1.5422 H       1  UNL1        0.0560
     46 H          -9.6224    2.3785   -0.2621 H       1  UNL1        0.2094
     47 H          -7.1288   -0.1951   -1.4591 H       1  UNL1        0.0286
     48 H          -6.0243    1.2337   -1.1423 H       1  UNL1        0.0286
     49 H          -2.1234    1.9736   -0.8157 H       1  UNL1        0.0395
     50 H          -1.7608    1.0408    1.2988 H       1  UNL1        0.0288
     51 H          -1.1707   -0.5224    0.6210 H       1  UNL1        0.0288
     52 H           0.6441    0.8493    1.5725 H       1  UNL1        0.0465
     53 H           0.3885    2.1101    0.3537 H       1  UNL1        0.0465
     54 H           4.8740   -2.8883    1.5859 H       1  UNL1        0.0655
     55 H           7.8888    1.8533    0.7776 H       1  UNL1        0.0624
     56 H          10.2336    2.5664    0.5397 H       1  UNL1        0.0632
     57 H          11.2564   -1.3787   -0.7075 H       1  UNL1        0.0632
     58 H           8.9625   -2.0712   -0.4758 H       1  UNL1        0.0624
     59 H           6.1701    1.2374   -0.7264 H       1  UNL1        0.0661
     60 H          -0.0537   -1.2298   -1.5227 H       1  UNL1        0.0465
     61 H           1.0851   -0.1692   -2.4308 H       1  UNL1        0.0465
     62 H          -0.2225    1.7928   -2.0185 H       1  UNL1        0.0288
     63 H          -1.1181    0.5623   -2.9319 H       1  UNL1        0.0288
@<TRIPOS>BOND
     1     1     2    2
     2     2     3   am
     3     3     4    1
     4     4     5    1
     5     5     6    1
     6     6     7    1
     7     7     8    1
     8     8     9    1
     9     9    10    1
    10     8    11    1
    11     2    12    1
    12    12    13    1
    13    13    14    1
    14    14    15    1
    15    15    16    1
    16    16    17   ar
    17    17    18   ar
    18    18    19   ar
    19    19    20   ar
    20    20    21    1
    21    20    22   ar
    22    22    23    1
    23    23    24   ar
    24    24    25   ar
    25    25    26   ar
    26    26    27    1
    27    26    28   ar
    28    28    29   ar
    29    22    30   ar
    30    30    31   ar
    31    31    32   ar
    32    15    33    1
    33    33    34    1
    34    11     4    1
    35    34    12    1
    36    32    16   ar
    37    31    18   ar
    38    29    23   ar
    39     3    35    1
    40     4    36    1
    41     5    37    1
    42     5    38    1
    43     6    39    1
    44     6    40    1
    45     7    41    1
    46     7    42    1
    47     8    43    1
    48     9    44    1
    49     9    45    1
    50    10    46    1
    51    11    47    1
    52    11    48    1
    53    12    49    1
    54    13    50    1
    55    13    51    1
    56    14    52    1
    57    14    53    1
    58    19    54    1
    59    24    55    1
    60    25    56    1
    61    28    57    1
    62    29    58    1
    63    30    59    1
    64    33    60    1
    65    33    61    1
    66    34    62    1
    67    34    63    1
