
     RDKit          3D

 56 59  0  0  0  0  0  0  0  0999 V2000
    9.3303   -3.8868   -1.7300 C   0  0  0  0  0  0  0  0  0  0  0  0
    8.6346   -3.1156   -1.1160 C   0  0  0  0  0  0  0  0  0  0  0  0
    7.7797   -2.1944   -0.3510 C   0  0  2  0  0  0  0  0  0  0  0  0
    8.6662   -1.5528    0.7154 C   0  0  0  0  0  0  0  0  0  0  0  0
    6.7810   -2.9556    0.1999 O   0  0  0  0  0  0  0  0  0  0  0  0
    5.4817   -2.7680    0.4825 C   0  0  0  0  0  0  0  0  0  0  0  0
    4.7211   -3.7649    1.0600 C   0  0  0  0  0  0  0  0  0  0  0  0
    3.4338   -3.6071    1.3654 N   0  0  0  0  0  0  0  0  0  0  0  0
    2.8013   -2.4301    1.1157 C   0  0  0  0  0  0  0  0  0  0  0  0
    1.3993   -2.2480    1.4703 C   0  0  0  0  0  0  0  0  0  0  0  0
    0.7494   -3.2807    2.0409 F   0  0  0  0  0  0  0  0  0  0  0  0
    0.7350   -1.1494    1.2795 C   0  0  0  0  0  0  0  0  0  0  0  0
   -0.6929   -0.9187    1.6185 C   0  0  0  0  0  0  0  0  0  0  0  0
   -1.2585   -1.4428    2.7607 C   0  0  0  0  0  0  0  0  0  0  0  0
   -2.5637   -1.1195    3.0606 C   0  0  0  0  0  0  0  0  0  0  0  0
   -3.2690   -0.3033    2.2448 C   0  0  0  0  0  0  0  0  0  0  0  0
   -4.5623   -0.0150    2.6079 F   0  0  0  0  0  0  0  0  0  0  0  0
   -2.7299    0.2446    1.0806 C   0  0  0  0  0  0  0  0  0  0  0  0
   -3.5676    1.1740    0.3074 C   0  0  1  0  0  0  0  0  0  0  0  0
   -4.9373    0.4649    0.1585 C   0  0  0  0  0  0  0  0  0  0  0  0
   -3.8643    2.3055    1.1497 N   0  0  0  0  0  0  0  0  0  0  0  0
   -4.5927    3.3158    0.8207 C   0  0  0  0  0  0  0  0  0  0  0  0
   -4.8496    4.4000    1.6951 N   0  0  0  0  0  0  0  0  0  0  0  0
   -5.2412    3.2467   -0.8596 S   0  0  0  0  0  0  0  0  0  0  0  0
   -3.9749    2.3973   -1.8337 C   0  0  1  0  0  0  0  0  0  0  0  0
   -4.3436    2.0181   -3.5235 S   0  0  0  0  0  6  0  0  0  0  0  0
   -4.6813    3.4763   -4.4197 C   0  0  0  0  0  0  0  0  0  0  0  0
   -3.1602    1.3345   -4.1670 O   0  0  0  0  0  0  0  0  0  0  0  0
   -5.5369    1.0839   -3.6064 O   0  0  0  0  0  0  0  0  0  0  0  0
   -2.5612    2.8217   -1.5006 C   0  0  0  0  0  0  0  0  0  0  0  0
   -3.1155    1.4844   -1.0655 C   0  0  1  0  0  0  0  0  0  0  0  0
   -1.4376   -0.0867    0.8036 C   0  0  0  0  0  0  0  0  0  0  0  0
    3.5772   -1.4441    0.5379 C   0  0  0  0  0  0  0  0  0  0  0  0
    4.8648   -1.6038    0.2358 N   0  0  0  0  0  0  0  0  0  0  0  0
    9.9373   -4.5502   -2.2603 H   0  0  0  0  0  0  0  0  0  0  0  0
    7.4047   -1.4034   -1.0171 H   0  0  0  0  0  0  0  0  0  0  0  0
    8.0955   -1.4053    1.6797 H   0  0  0  0  0  0  0  0  0  0  0  0
    9.5828   -2.1438    0.8727 H   0  0  0  0  0  0  0  0  0  0  0  0
    8.9185   -0.5508    0.3506 H   0  0  0  0  0  0  0  0  0  0  0  0
    5.2469   -4.7141    1.2602 H   0  0  0  0  0  0  0  0  0  0  0  0
    1.2960   -0.3178    0.8219 H   0  0  0  0  0  0  0  0  0  0  0  0
   -0.6847   -2.0795    3.3860 H   0  0  0  0  0  0  0  0  0  0  0  0
   -3.0223   -1.5519    3.9876 H   0  0  0  0  0  0  0  0  0  0  0  0
   -5.2104    0.4888   -0.9419 H   0  0  0  0  0  0  0  0  0  0  0  0
   -4.9305   -0.5683    0.4718 H   0  0  0  0  0  0  0  0  0  0  0  0
   -5.7465    1.0104    0.6551 H   0  0  0  0  0  0  0  0  0  0  0  0
   -4.1982    5.0898    2.0691 H   0  0  0  0  0  0  0  0  0  0  0  0
   -5.8621    4.4907    1.9972 H   0  0  0  0  0  0  0  0  0  0  0  0
   -5.0797    4.2498   -3.7621 H   0  0  0  0  0  0  0  0  0  0  0  0
   -3.7201    3.8543   -4.8000 H   0  0  0  0  0  0  0  0  0  0  0  0
   -5.3412    3.3143   -5.3089 H   0  0  0  0  0  0  0  0  0  0  0  0
   -2.4106    3.5995   -0.7177 H   0  0  0  0  0  0  0  0  0  0  0  0
   -1.8034    2.8551   -2.3063 H   0  0  0  0  0  0  0  0  0  0  0  0
   -2.6733    0.6355   -1.6635 H   0  0  0  0  0  0  0  0  0  0  0  0
   -0.9559    0.3080   -0.1001 H   0  0  0  0  0  0  0  0  0  0  0  0
    3.1417   -0.4913    0.3129 H   0  0  0  0  0  0  0  0  0  0  0  0
  1  2  3  0
  2  3  1  0
  3  4  1  0
  3  5  1  0
  5  6  1  0
  6  7  2  0
  7  8  1  0
  8  9  2  0
  9 10  1  0
 10 11  1  0
 10 12  2  0
 12 13  1  0
 13 14  2  0
 14 15  1  0
 15 16  2  0
 16 17  1  0
 16 18  1  0
 18 19  1  0
 19 20  1  6
 19 21  1  0
 21 22  2  0
 22 23  1  0
 22 24  1  0
 24 25  1  0
 25 26  1  6
 26 27  1  0
 26 28  2  0
 26 29  2  0
 25 30  1  0
 30 31  1  0
 18 32  2  0
  9 33  1  0
 33 34  2  0
 34  6  1  0
 32 13  1  0
 31 19  1  0
 31 25  1  0
  1 35  1  0
  3 36  1  6
  4 37  1  0
  4 38  1  0
  4 39  1  0
  7 40  1  0
 12 41  1  0
 14 42  1  0
 15 43  1  0
 20 44  1  0
 20 45  1  0
 20 46  1  0
 23 47  1  0
 23 48  1  0
 27 49  1  0
 27 50  1  0
 27 51  1  0
 30 52  1  0
 30 53  1  0
 31 54  1  6
 32 55  1  0
 33 56  1  0
M  END
$$$$
