@<TRIPOS>MOLECULE
*****
 56 59 0 0 0
SMALL
GASTEIGER

@<TRIPOS>ATOM
      1 C           9.3303   -3.8868   -1.7300 C.1     1  UNL1       -0.1156
      2 C           8.6346   -3.1156   -1.1160 C.1     1  UNL1       -0.0618
      3 C           7.7797   -2.1944   -0.3510 C.3     1  UNL1        0.1588
      4 C           8.6662   -1.5528    0.7154 C.3     1  UNL1       -0.0162
      5 O           6.7810   -2.9556    0.1999 O.3     1  UNL1       -0.4594
      6 C           5.4817   -2.7680    0.4825 C.ar    1  UNL1        0.2346
      7 C           4.7211   -3.7649    1.0600 C.ar    1  UNL1        0.0899
      8 N           3.4338   -3.6071    1.3654 N.ar    1  UNL1       -0.2459
      9 C           2.8013   -2.4301    1.1157 C.ar    1  UNL1        0.1172
     10 C           1.3993   -2.2480    1.4703 C.2     1  UNL1        0.1507
     11 F           0.7494   -3.2807    2.0409 F       1  UNL1       -0.2032
     12 C           0.7350   -1.1494    1.2795 C.2     1  UNL1       -0.0171
     13 C          -0.6929   -0.9187    1.6185 C.ar    1  UNL1       -0.0217
     14 C          -1.2585   -1.4428    2.7607 C.ar    1  UNL1       -0.0518
     15 C          -2.5637   -1.1195    3.0606 C.ar    1  UNL1       -0.0255
     16 C          -3.2690   -0.3033    2.2448 C.ar    1  UNL1        0.1289
     17 F          -4.5623   -0.0150    2.6079 F       1  UNL1       -0.2051
     18 C          -2.7299    0.2446    1.0806 C.ar    1  UNL1        0.0158
     19 C          -3.5676    1.1740    0.3074 C.3     1  UNL1        0.0946
     20 C          -4.9373    0.4649    0.1585 C.3     1  UNL1       -0.0351
     21 N          -3.8643    2.3055    1.1497 N.2     1  UNL1       -0.2520
     22 C          -4.5927    3.3158    0.8207 C.2     1  UNL1        0.1495
     23 N          -4.8496    4.4000    1.6951 N.pl3   1  UNL1       -0.3380
     24 S          -5.2412    3.2467   -0.8596 S.3     1  UNL1       -0.0611
     25 C          -3.9749    2.3973   -1.8337 C.3     1  UNL1        0.1451
     26 S          -4.3436    2.0181   -3.5235 S.O2    1  UNL1       -0.0183
     27 C          -4.6813    3.4763   -4.4197 C.3     1  UNL1        0.0560
     28 O          -3.1602    1.3345   -4.1670 O.2     1  UNL1       -0.1733
     29 O          -5.5369    1.0839   -3.6064 O.2     1  UNL1       -0.1733
     30 C          -2.5612    2.8217   -1.5006 C.3     1  UNL1       -0.0096
     31 C          -3.1155    1.4844   -1.0655 C.3     1  UNL1        0.0258
     32 C          -1.4376   -0.0867    0.8036 C.ar    1  UNL1       -0.0463
     33 C           3.5772   -1.4441    0.5379 C.ar    1  UNL1        0.0596
     34 N           4.8648   -1.6038    0.2358 N.ar    1  UNL1       -0.2178
     35 H           9.9373   -4.5502   -2.2603 H       1  UNL1        0.1229
     36 H           7.4047   -1.4034   -1.0171 H       1  UNL1        0.0871
     37 H           8.0955   -1.4053    1.6797 H       1  UNL1        0.0275
     38 H           9.5828   -2.1438    0.8727 H       1  UNL1        0.0275
     39 H           8.9185   -0.5508    0.3506 H       1  UNL1        0.0275
     40 H           5.2469   -4.7141    1.2602 H       1  UNL1        0.0884
     41 H           1.2960   -0.3178    0.8219 H       1  UNL1        0.0653
     42 H          -0.6847   -2.0795    3.3860 H       1  UNL1        0.0624
     43 H          -3.0223   -1.5519    3.9876 H       1  UNL1        0.0646
     44 H          -5.2104    0.4888   -0.9419 H       1  UNL1        0.0256
     45 H          -4.9305   -0.5683    0.4718 H       1  UNL1        0.0256
     46 H          -5.7465    1.0104    0.6551 H       1  UNL1        0.0256
     47 H          -4.1982    5.0898    2.0691 H       1  UNL1        0.1442
     48 H          -5.8621    4.4907    1.9972 H       1  UNL1        0.1442
     49 H          -5.0797    4.2498   -3.7621 H       1  UNL1        0.0464
     50 H          -3.7201    3.8543   -4.8000 H       1  UNL1        0.0464
     51 H          -5.3412    3.3143   -5.3089 H       1  UNL1        0.0464
     52 H          -2.4106    3.5995   -0.7177 H       1  UNL1        0.0299
     53 H          -1.8034    2.8551   -2.3063 H       1  UNL1        0.0299
     54 H          -2.6733    0.6355   -1.6635 H       1  UNL1        0.0358
     55 H          -0.9559    0.3080   -0.1001 H       1  UNL1        0.0628
     56 H           3.1417   -0.4913    0.3129 H       1  UNL1        0.0853
@<TRIPOS>BOND
     1     1     2    3
     2     2     3    1
     3     3     4    1
     4     3     5    1
     5     5     6    1
     6     6     7   ar
     7     7     8   ar
     8     8     9   ar
     9     9    10    1
    10    10    11    1
    11    10    12    2
    12    12    13    1
    13    13    14   ar
    14    14    15   ar
    15    15    16   ar
    16    16    17    1
    17    16    18   ar
    18    18    19    1
    19    19    20    1
    20    19    21    1
    21    21    22    2
    22    22    23    1
    23    22    24    1
    24    24    25    1
    25    25    26    1
    26    26    27    1
    27    26    28    2
    28    26    29    2
    29    25    30    1
    30    30    31    1
    31    18    32   ar
    32     9    33   ar
    33    33    34   ar
    34    34     6   ar
    35    32    13   ar
    36    31    19    1
    37    31    25    1
    38     1    35    1
    39     3    36    1
    40     4    37    1
    41     4    38    1
    42     4    39    1
    43     7    40    1
    44    12    41    1
    45    14    42    1
    46    15    43    1
    47    20    44    1
    48    20    45    1
    49    20    46    1
    50    23    47    1
    51    23    48    1
    52    27    49    1
    53    27    50    1
    54    27    51    1
    55    30    52    1
    56    30    53    1
    57    31    54    1
    58    32    55    1
    59    33    56    1
