@<TRIPOS>MOLECULE
*****
 44 46 0 0 0
SMALL
GASTEIGER

@<TRIPOS>ATOM
      1 C           6.6481   -1.7851   -1.0907 C.3     1  UNL1        0.0031
      2 N           5.7081   -0.8581   -0.4006 N.am    1  UNL1       -0.3036
      3 C           6.3094    0.0487    0.5194 C.3     1  UNL1        0.0031
      4 C           4.3674   -0.9893   -0.7307 C.2     1  UNL1        0.2462
      5 O           4.1180   -1.9300   -1.6101 O.2     1  UNL1       -0.2700
      6 C           3.2122   -0.2579   -0.2628 C.ar    1  UNL1        0.0387
      7 C           3.2865    0.6658    0.7294 C.ar    1  UNL1       -0.0495
      8 C           2.1481    1.3604    1.1552 C.ar    1  UNL1       -0.0592
      9 C           0.9575    1.0760    0.5371 C.ar    1  UNL1       -0.0353
     10 C           0.8090    0.1637   -0.4641 C.ar    1  UNL1        0.1062
     11 S          -0.6710   -0.2004   -1.3060 S.O2    1  UNL1        0.0612
     12 O          -0.6246   -1.7031   -1.6586 O.2     1  UNL1       -0.1528
     13 O          -0.6222    0.4476   -2.7047 O.2     1  UNL1       -0.1528
     14 N          -2.0646    0.1737   -0.4988 N.3     1  UNL1       -0.1720
     15 C          -2.4212    1.4746   -0.1545 C.3     1  UNL1        0.0248
     16 C          -3.1730    1.4346    1.1941 C.3     1  UNL1       -0.0129
     17 C          -4.4303    0.7263    0.8545 C.ar    1  UNL1       -0.0416
     18 C          -5.6452    1.2251    1.1984 C.ar    1  UNL1       -0.0582
     19 C          -6.7812    0.4933    0.8200 C.ar    1  UNL1       -0.0615
     20 C          -6.6644   -0.6907    0.1224 C.ar    1  UNL1       -0.0614
     21 C          -5.4226   -1.1903   -0.2233 C.ar    1  UNL1       -0.0570
     22 C          -4.2932   -0.4553    0.1582 C.ar    1  UNL1       -0.0285
     23 C          -2.9240   -0.9030   -0.1566 C.3     1  UNL1        0.0458
     24 C           1.9767   -0.5012   -0.8502 C.ar    1  UNL1       -0.0232
     25 H           6.5917   -2.7255   -0.5264 H       1  UNL1        0.0428
     26 H           7.6711   -1.3961   -1.0243 H       1  UNL1        0.0428
     27 H           6.3548   -1.8820   -2.1669 H       1  UNL1        0.0428
     28 H           6.1199   -0.1883    1.5930 H       1  UNL1        0.0428
     29 H           7.4447   -0.1093    0.4532 H       1  UNL1        0.0428
     30 H           6.2090    1.1235    0.2619 H       1  UNL1        0.0428
     31 H           4.1776    0.9320    1.2574 H       1  UNL1        0.0625
     32 H           2.2039    2.1012    1.9458 H       1  UNL1        0.0618
     33 H           0.1031    1.6370    0.9300 H       1  UNL1        0.0637
     34 H          -3.2284    1.8859   -0.8794 H       1  UNL1        0.0447
     35 H          -1.6359    2.2012   -0.2058 H       1  UNL1        0.0447
     36 H          -2.5677    0.8174    1.8784 H       1  UNL1        0.0326
     37 H          -3.3524    2.4666    1.5639 H       1  UNL1        0.0326
     38 H          -5.7266    2.1483    1.7406 H       1  UNL1        0.0620
     39 H          -7.7579    0.8372    1.0622 H       1  UNL1        0.0618
     40 H          -7.5330   -1.2496   -0.1649 H       1  UNL1        0.0618
     41 H          -5.3147   -2.1060   -0.7642 H       1  UNL1        0.0621
     42 H          -2.5296   -1.3649    0.7984 H       1  UNL1        0.0493
     43 H          -2.9160   -1.7287   -0.9043 H       1  UNL1        0.0493
     44 H           1.8829   -1.2251   -1.6315 H       1  UNL1        0.0644
@<TRIPOS>BOND
     1     1     2    1
     2     2     3    1
     3     2     4   am
     4     4     5    2
     5     4     6    1
     6     6     7   ar
     7     7     8   ar
     8     8     9   ar
     9     9    10   ar
    10    10    11    1
    11    11    12    2
    12    11    13    2
    13    11    14    1
    14    14    15    1
    15    15    16    1
    16    16    17    1
    17    17    18   ar
    18    18    19   ar
    19    19    20   ar
    20    20    21   ar
    21    21    22   ar
    22    22    23    1
    23    10    24   ar
    24    24     6   ar
    25    23    14    1
    26    22    17   ar
    27     1    25    1
    28     1    26    1
    29     1    27    1
    30     3    28    1
    31     3    29    1
    32     3    30    1
    33     7    31    1
    34     8    32    1
    35     9    33    1
    36    15    34    1
    37    15    35    1
    38    16    36    1
    39    16    37    1
    40    18    38    1
    41    19    39    1
    42    20    40    1
    43    21    41    1
    44    23    42    1
    45    23    43    1
    46    24    44    1
