@<TRIPOS>MOLECULE
*****
 42 45 0 0 0
SMALL
GASTEIGER

@<TRIPOS>ATOM
      1 C           0.2341   -2.4465    1.5727 C.3     1  UNL1       -0.0460
      2 C           0.4287   -1.1136    0.8744 C.3     1  UNL1        0.0293
      3 C           1.6751   -1.0982    0.0466 C.3     1  UNL1        0.0101
      4 C           1.7624    0.1580   -0.7097 C.ar    1  UNL1        0.0745
      5 C           0.6034    0.6593   -1.2543 C.ar    1  UNL1        0.1038
      6 N           0.9100    1.7744   -1.8861 N.ar    1  UNL1       -0.1322
      7 N           2.2091    1.9877   -1.7574 N.ar    1  UNL1       -0.0576
      8 N           2.7409    1.0114   -1.0434 N.ar    1  UNL1       -0.1820
      9 C           4.1308    0.9184   -0.7058 C.ar    1  UNL1        0.2530
     10 N           5.0498    1.3403   -1.5932 N.ar    1  UNL1       -0.2161
     11 C           6.3722    1.2970   -1.3759 C.ar    1  UNL1        0.0681
     12 C           6.8369    0.7876   -0.1642 C.ar    1  UNL1        0.1595
     13 F           8.1588    0.7377    0.0683 F       1  UNL1       -0.2023
     14 C           5.8748    0.3641    0.7229 C.ar    1  UNL1        0.0681
     15 N           4.5575    0.4283    0.4580 N.ar    1  UNL1       -0.2161
     16 C          -0.7029   -0.0370   -1.0779 C.3     1  UNL1        0.0610
     17 N          -0.7649   -0.7009    0.2002 N.am    1  UNL1       -0.2884
     18 C          -2.0240   -0.9378    0.7876 C.2     1  UNL1        0.2501
     19 O          -2.0927   -1.5203    1.9174 O.2     1  UNL1       -0.2699
     20 C          -3.2842   -0.5576    0.1855 C.ar    1  UNL1        0.0755
     21 C          -3.9270   -1.4427   -0.6453 C.ar    1  UNL1       -0.0287
     22 C          -5.1296   -1.0895   -1.2247 C.ar    1  UNL1        0.0291
     23 N          -5.6603    0.1253   -0.9665 N.ar    1  UNL1       -0.2483
     24 C          -5.0750    1.0301   -0.1620 C.ar    1  UNL1        0.1795
     25 C          -5.6818    2.3687    0.1087 C.3     1  UNL1        0.4370
     26 F          -5.8911    2.4307    1.4797 F       1  UNL1       -0.1643
     27 F          -4.6887    3.2994   -0.1662 F       1  UNL1       -0.1643
     28 F          -6.8104    2.5791   -0.6201 F       1  UNL1       -0.1643
     29 C          -3.8737    0.6611    0.4088 C.ar    1  UNL1        0.1654
     30 F          -3.2516    1.5384    1.2229 F       1  UNL1       -0.2025
     31 H          -0.5401   -3.0208    1.0689 H       1  UNL1        0.0248
     32 H           1.1588   -3.0613    1.5456 H       1  UNL1        0.0248
     33 H          -0.0366   -2.3239    2.6298 H       1  UNL1        0.0248
     34 H           0.5931   -0.3672    1.6989 H       1  UNL1        0.0502
     35 H           2.5371   -1.1591    0.7633 H       1  UNL1        0.0347
     36 H           1.7779   -2.0000   -0.5943 H       1  UNL1        0.0347
     37 H           7.0771    1.6467   -2.1164 H       1  UNL1        0.0860
     38 H           6.2341   -0.0366    1.6753 H       1  UNL1        0.0860
     39 H          -1.5030    0.7232   -1.1810 H       1  UNL1        0.0530
     40 H          -0.7981   -0.7558   -1.9314 H       1  UNL1        0.0530
     41 H          -3.5439   -2.4285   -0.8845 H       1  UNL1        0.0641
     42 H          -5.6429   -1.7694   -1.8751 H       1  UNL1        0.0830
@<TRIPOS>BOND
     1     1     2    1
     2     2     3    1
     3     3     4    1
     4     4     5   ar
     5     5     6   ar
     6     6     7   ar
     7     7     8   ar
     8     8     9    1
     9     9    10   ar
    10    10    11   ar
    11    11    12   ar
    12    12    13    1
    13    12    14   ar
    14    14    15   ar
    15     5    16    1
    16    16    17    1
    17    17    18   am
    18    18    19    2
    19    18    20    1
    20    20    21   ar
    21    21    22   ar
    22    22    23   ar
    23    23    24   ar
    24    24    25    1
    25    25    26    1
    26    25    27    1
    27    25    28    1
    28    24    29   ar
    29    29    30    1
    30    17     2    1
    31    29    20   ar
    32     8     4   ar
    33    15     9   ar
    34     1    31    1
    35     1    32    1
    36     1    33    1
    37     2    34    1
    38     3    35    1
    39     3    36    1
    40    11    37    1
    41    14    38    1
    42    16    39    1
    43    16    40    1
    44    21    41    1
    45    22    42    1
