
     RDKit          3D

 43 45  0  0  0  0  0  0  0  0999 V2000
    7.5206    0.3478   -0.3867 C   0  0  0  0  0  0  0  0  0  0  0  0
    6.0345    0.0942   -0.4660 C   0  0  0  0  0  0  0  0  0  0  0  0
    5.5394   -1.1905   -0.4583 C   0  0  0  0  0  0  0  0  0  0  0  0
    4.1500   -1.3925   -0.5333 C   0  0  0  0  0  0  0  0  0  0  0  0
    3.2999   -0.3243   -0.6132 C   0  0  0  0  0  0  0  0  0  0  0  0
    1.8651   -0.4907   -0.6920 N   0  0  0  0  0  0  0  0  0  0  0  0
    1.0525    0.0031    0.1732 C   0  0  0  0  0  0  0  0  0  0  0  0
    1.4999    0.7991    1.3489 N   0  0  0  0  0  0  0  0  0  0  0  0
   -0.3156   -0.1621    0.0881 C   0  0  0  0  0  0  0  0  0  0  0  0
   -1.4123    0.2664    0.8882 C   0  0  0  0  0  0  0  0  0  0  0  0
   -1.2174    0.9682    1.9525 O   0  0  0  0  0  0  0  0  0  0  0  0
   -2.7492   -0.0317    0.5915 N   0  0  0  0  0  0  0  0  0  0  0  0
   -3.8060    0.4385    1.4525 C   0  0  0  0  0  0  0  0  0  0  0  0
   -4.8543    1.1106    0.6037 C   0  0  0  0  0  0  0  0  0  0  0  0
   -5.3088    0.3267   -0.4879 N   0  0  0  0  0  0  0  0  0  0  0  0
   -6.7080    0.3026   -0.7139 C   0  0  0  0  0  0  0  0  0  0  0  0
   -4.6297   -0.9041   -0.7077 C   0  0  0  0  0  0  0  0  0  0  0  0
   -3.1280   -0.8041   -0.5609 C   0  0  0  0  0  0  0  0  0  0  0  0
   -0.4224   -1.1661   -1.4518 S   0  0  0  0  0  0  0  0  0  0  0  0
    1.3596   -1.2193   -1.7561 C   0  0  0  0  0  0  0  0  0  0  0  0
    2.1076   -1.9746   -3.0177 S   0  0  0  0  0  0  0  0  0  0  0  0
    3.8028    0.9428   -0.6200 C   0  0  0  0  0  0  0  0  0  0  0  0
    5.1796    1.1549   -0.5459 C   0  0  0  0  0  0  0  0  0  0  0  0
    8.0448   -0.3373   -1.0621 H   0  0  0  0  0  0  0  0  0  0  0  0
    7.7146    1.3945   -0.7003 H   0  0  0  0  0  0  0  0  0  0  0  0
    7.8726    0.2214    0.6617 H   0  0  0  0  0  0  0  0  0  0  0  0
    6.2203   -2.0188   -0.3951 H   0  0  0  0  0  0  0  0  0  0  0  0
    3.7328   -2.3896   -0.5293 H   0  0  0  0  0  0  0  0  0  0  0  0
    2.0099    0.2444    2.0556 H   0  0  0  0  0  0  0  0  0  0  0  0
    1.3049    1.7931    1.4174 H   0  0  0  0  0  0  0  0  0  0  0  0
   -4.2594   -0.4094    2.0022 H   0  0  0  0  0  0  0  0  0  0  0  0
   -3.4351    1.1470    2.1990 H   0  0  0  0  0  0  0  0  0  0  0  0
   -4.4756    2.1031    0.2439 H   0  0  0  0  0  0  0  0  0  0  0  0
   -5.7155    1.3436    1.2650 H   0  0  0  0  0  0  0  0  0  0  0  0
   -6.9281    0.8234   -1.6713 H   0  0  0  0  0  0  0  0  0  0  0  0
   -7.2838    0.8067    0.0899 H   0  0  0  0  0  0  0  0  0  0  0  0
   -7.0661   -0.7560   -0.8500 H   0  0  0  0  0  0  0  0  0  0  0  0
   -4.9858   -1.6479    0.0331 H   0  0  0  0  0  0  0  0  0  0  0  0
   -4.8818   -1.3039   -1.7098 H   0  0  0  0  0  0  0  0  0  0  0  0
   -2.7742   -0.2979   -1.4822 H   0  0  0  0  0  0  0  0  0  0  0  0
   -2.6493   -1.7848   -0.4742 H   0  0  0  0  0  0  0  0  0  0  0  0
    3.1287    1.8102   -0.6839 H   0  0  0  0  0  0  0  0  0  0  0  0
    5.5664    2.1636   -0.5521 H   0  0  0  0  0  0  0  0  0  0  0  0
  1  2  1  0
  2  3  2  0
  3  4  1  0
  4  5  2  0
  5  6  1  0
  6  7  1  0
  7  8  1  0
  7  9  2  0
  9 10  1  0
 10 11  2  0
 10 12  1  0
 12 13  1  0
 13 14  1  0
 14 15  1  0
 15 16  1  0
 15 17  1  0
 17 18  1  0
  9 19  1  0
 19 20  1  0
 20 21  2  0
  5 22  1  0
 22 23  2  0
 23  2  1  0
 20  6  1  0
 18 12  1  0
  1 24  1  0
  1 25  1  0
  1 26  1  0
  3 27  1  0
  4 28  1  0
  8 29  1  0
  8 30  1  0
 13 31  1  0
 13 32  1  0
 14 33  1  0
 14 34  1  0
 16 35  1  0
 16 36  1  0
 16 37  1  0
 17 38  1  0
 17 39  1  0
 18 40  1  0
 18 41  1  0
 22 42  1  0
 23 43  1  0
M  END
$$$$
