@<TRIPOS>MOLECULE
*****
 43 45 0 0 0
SMALL
GASTEIGER

@<TRIPOS>ATOM
      1 C           7.5206    0.3478   -0.3867 C.3     1  UNL1       -0.0397
      2 C           6.0345    0.0942   -0.4660 C.ar    1  UNL1       -0.0503
      3 C           5.5394   -1.1905   -0.4583 C.ar    1  UNL1       -0.0569
      4 C           4.1500   -1.3925   -0.5333 C.ar    1  UNL1       -0.0375
      5 C           3.2999   -0.3243   -0.6132 C.ar    1  UNL1        0.0493
      6 N           1.8651   -0.4907   -0.6920 N.ar    1  UNL1       -0.2853
      7 C           1.0525    0.0031    0.1732 C.ar    1  UNL1        0.1211
      8 N           1.4999    0.7991    1.3489 N.pl3   1  UNL1       -0.3431
      9 C          -0.3156   -0.1621    0.0881 C.ar    1  UNL1        0.1145
     10 C          -1.4123    0.2664    0.8882 C.2     1  UNL1        0.2567
     11 O          -1.2174    0.9682    1.9525 O.2     1  UNL1       -0.2693
     12 N          -2.7492   -0.0317    0.5915 N.am    1  UNL1       -0.2946
     13 C          -3.8060    0.4385    1.4525 C.3     1  UNL1        0.0278
     14 C          -4.8543    1.1106    0.6037 C.3     1  UNL1        0.0145
     15 N          -5.3088    0.3267   -0.4879 N.3     1  UNL1       -0.3024
     16 C          -6.7080    0.3026   -0.7139 C.3     1  UNL1       -0.0126
     17 C          -4.6297   -0.9041   -0.7077 C.3     1  UNL1        0.0145
     18 C          -3.1280   -0.8041   -0.5609 C.3     1  UNL1        0.0278
     19 S          -0.4224   -1.1661   -1.4518 S.2     1  UNL1       -0.0551
     20 C           1.3596   -1.2193   -1.7561 C.ar    1  UNL1        0.1322
     21 S           2.1076   -1.9746   -3.0177 S.2     1  UNL1       -0.0244
     22 C           3.8028    0.9428   -0.6200 C.ar    1  UNL1       -0.0375
     23 C           5.1796    1.1549   -0.5459 C.ar    1  UNL1       -0.0569
     24 H           8.0448   -0.3373   -1.0621 H       1  UNL1        0.0278
     25 H           7.7146    1.3945   -0.7003 H       1  UNL1        0.0278
     26 H           7.8726    0.2214    0.6617 H       1  UNL1        0.0278
     27 H           6.2203   -2.0188   -0.3951 H       1  UNL1        0.0621
     28 H           3.7328   -2.3896   -0.5293 H       1  UNL1        0.0638
     29 H           2.0099    0.2444    2.0556 H       1  UNL1        0.1437
     30 H           1.3049    1.7931    1.4174 H       1  UNL1        0.1437
     31 H          -4.2594   -0.4094    2.0022 H       1  UNL1        0.0477
     32 H          -3.4351    1.1470    2.1990 H       1  UNL1        0.0477
     33 H          -4.4756    2.1031    0.2439 H       1  UNL1        0.0442
     34 H          -5.7155    1.3436    1.2650 H       1  UNL1        0.0442
     35 H          -6.9281    0.8234   -1.6713 H       1  UNL1        0.0391
     36 H          -7.2838    0.8067    0.0899 H       1  UNL1        0.0391
     37 H          -7.0661   -0.7560   -0.8500 H       1  UNL1        0.0391
     38 H          -4.9858   -1.6479    0.0331 H       1  UNL1        0.0442
     39 H          -4.8818   -1.3039   -1.7098 H       1  UNL1        0.0442
     40 H          -2.7742   -0.2979   -1.4822 H       1  UNL1        0.0477
     41 H          -2.6493   -1.7848   -0.4742 H       1  UNL1        0.0477
     42 H           3.1287    1.8102   -0.6839 H       1  UNL1        0.0638
     43 H           5.5664    2.1636   -0.5521 H       1  UNL1        0.0621
@<TRIPOS>BOND
     1     1     2    1
     2     2     3   ar
     3     3     4   ar
     4     4     5   ar
     5     5     6    1
     6     6     7   ar
     7     7     8    1
     8     7     9   ar
     9     9    10    1
    10    10    11    2
    11    10    12   am
    12    12    13    1
    13    13    14    1
    14    14    15    1
    15    15    16    1
    16    15    17    1
    17    17    18    1
    18     9    19   ar
    19    19    20   ar
    20    20    21    2
    21     5    22   ar
    22    22    23   ar
    23    23     2   ar
    24    20     6   ar
    25    18    12    1
    26     1    24    1
    27     1    25    1
    28     1    26    1
    29     3    27    1
    30     4    28    1
    31     8    29    1
    32     8    30    1
    33    13    31    1
    34    13    32    1
    35    14    33    1
    36    14    34    1
    37    16    35    1
    38    16    36    1
    39    16    37    1
    40    17    38    1
    41    17    39    1
    42    18    40    1
    43    18    41    1
    44    22    42    1
    45    23    43    1
