@<TRIPOS>MOLECULE
*****
 38 40 0 0 0
SMALL
GASTEIGER

@<TRIPOS>ATOM
      1 N           2.7817   -1.8017    0.5157 N.pl3   1  UNL1       -0.3368
      2 C           1.4241   -1.5078    0.1996 C.2     1  UNL1       -0.0036
      3 C           1.2785   -0.2123    0.1069 C.2     1  UNL1        0.0146
      4 C           0.0906    0.6177   -0.1963 C.3     1  UNL1       -0.0063
      5 N          -1.1103   -0.1265   -0.4293 N.4     1  UNL1        0.2405
      6 C          -1.9160    0.4493   -1.4794 C.3     1  UNL1       -0.0044
      7 C          -3.0478    1.1917   -0.8236 C.3     1  UNL1        0.1046
      8 O          -2.7991    2.5640   -0.7037 O.3     1  UNL1       -0.3860
      9 C          -3.1741    0.5772    0.5505 C.3     1  UNL1        0.0531
     10 C          -4.2913   -0.4737    0.5335 C.3     1  UNL1        0.0544
     11 O          -3.8865   -1.4252   -0.4296 O.3     1  UNL1       -0.3944
     12 C          -1.8860   -0.1486    0.7849 C.3     1  UNL1       -0.0239
     13 C           2.5785    0.4689    0.3649 C.3     1  UNL1        0.1062
     14 N           3.1334    0.7682   -0.9257 N.2     1  UNL1       -0.2661
     15 C           4.3361    0.5190   -1.3055 C.2     1  UNL1        0.0828
     16 N           5.2412   -0.1094   -0.4044 N.am    1  UNL1       -0.2751
     17 C           4.7919   -0.4561    0.9217 C.2     1  UNL1        0.2405
     18 O           5.7151   -0.5783    1.7820 O.2     1  UNL1       -0.2733
     19 C           3.3350   -0.6210    1.1004 C.3     1  UNL1        0.1239
     20 H           3.2881   -2.7132    0.3525 H       1  UNL1        0.1463
     21 H           0.6366   -2.2307    0.0577 H       1  UNL1        0.0780
     22 H          -0.0048    1.3358    0.6570 H       1  UNL1        0.0865
     23 H           0.2545    1.2705   -1.0914 H       1  UNL1        0.0865
     24 H          -0.8669   -1.0965   -0.7262 H       1  UNL1        0.2038
     25 H          -2.2846   -0.3126   -2.1892 H       1  UNL1        0.0840
     26 H          -1.3043    1.1830   -2.0505 H       1  UNL1        0.0840
     27 H          -4.0090    1.0752   -1.3797 H       1  UNL1        0.0652
     28 H          -3.6713    3.0209   -0.6108 H       1  UNL1        0.2100
     29 H          -3.3905    1.3533    1.3189 H       1  UNL1        0.0402
     30 H          -4.3244   -0.9483    1.5295 H       1  UNL1        0.0562
     31 H          -5.2510    0.0076    0.2662 H       1  UNL1        0.0562
     32 H          -4.6116   -2.1033   -0.5745 H       1  UNL1        0.2094
     33 H          -2.0267   -1.1997    1.1189 H       1  UNL1        0.0819
     34 H          -1.3493    0.3812    1.6211 H       1  UNL1        0.0819
     35 H           2.4342    1.3684    0.9951 H       1  UNL1        0.0617
     36 H           4.6325    0.7972   -2.3136 H       1  UNL1        0.0997
     37 H           6.2206   -0.2894   -0.7755 H       1  UNL1        0.1557
     38 H           3.0330   -0.5948    2.1654 H       1  UNL1        0.0619
@<TRIPOS>UNITY_ATOM_ATTR
5 1
charge 1
@<TRIPOS>BOND
     1     1     2    1
     2     2     3    2
     3     3     4    1
     4     4     5    1
     5     5     6    1
     6     6     7    1
     7     7     8    1
     8     7     9    1
     9     9    10    1
    10    10    11    1
    11     9    12    1
    12     3    13    1
    13    13    14    1
    14    14    15    2
    15    15    16    1
    16    16    17   am
    17    17    18    2
    18    17    19    1
    19    19     1    1
    20    12     5    1
    21    19    13    1
    22     1    20    1
    23     2    21    1
    24     4    22    1
    25     4    23    1
    26     5    24    1
    27     6    25    1
    28     6    26    1
    29     7    27    1
    30     8    28    1
    31     9    29    1
    32    10    30    1
    33    10    31    1
    34    11    32    1
    35    12    33    1
    36    12    34    1
    37    13    35    1
    38    15    36    1
    39    16    37    1
    40    19    38    1
