
     RDKit          3D

 38 40  0  0  0  0  0  0  0  0999 V2000
    2.7817   -1.8017    0.5157 N   0  0  0  0  0  0  0  0  0  0  0  0
    1.4241   -1.5078    0.1996 C   0  0  0  0  0  0  0  0  0  0  0  0
    1.2785   -0.2123    0.1069 C   0  0  0  0  0  0  0  0  0  0  0  0
    0.0906    0.6177   -0.1963 C   0  0  0  0  0  0  0  0  0  0  0  0
   -1.1103   -0.1265   -0.4293 N   0  0  0  0  0  4  0  0  0  0  0  0
   -1.9160    0.4493   -1.4794 C   0  0  0  0  0  0  0  0  0  0  0  0
   -3.0478    1.1917   -0.8236 C   0  0  2  0  0  0  0  0  0  0  0  0
   -2.7991    2.5640   -0.7037 O   0  0  0  0  0  0  0  0  0  0  0  0
   -3.1741    0.5772    0.5505 C   0  0  1  0  0  0  0  0  0  0  0  0
   -4.2913   -0.4737    0.5335 C   0  0  0  0  0  0  0  0  0  0  0  0
   -3.8865   -1.4252   -0.4296 O   0  0  0  0  0  0  0  0  0  0  0  0
   -1.8860   -0.1486    0.7849 C   0  0  0  0  0  0  0  0  0  0  0  0
    2.5785    0.4689    0.3649 C   0  0  0  0  0  0  0  0  0  0  0  0
    3.1334    0.7682   -0.9257 N   0  0  0  0  0  0  0  0  0  0  0  0
    4.3361    0.5190   -1.3055 C   0  0  0  0  0  0  0  0  0  0  0  0
    5.2412   -0.1094   -0.4044 N   0  0  0  0  0  0  0  0  0  0  0  0
    4.7919   -0.4561    0.9217 C   0  0  0  0  0  0  0  0  0  0  0  0
    5.7151   -0.5783    1.7820 O   0  0  0  0  0  0  0  0  0  0  0  0
    3.3350   -0.6210    1.1004 C   0  0  0  0  0  0  0  0  0  0  0  0
    3.2881   -2.7132    0.3525 H   0  0  0  0  0  0  0  0  0  0  0  0
    0.6366   -2.2307    0.0577 H   0  0  0  0  0  0  0  0  0  0  0  0
   -0.0048    1.3358    0.6570 H   0  0  0  0  0  0  0  0  0  0  0  0
    0.2545    1.2705   -1.0914 H   0  0  0  0  0  0  0  0  0  0  0  0
   -0.8669   -1.0965   -0.7262 H   0  0  0  0  0  0  0  0  0  0  0  0
   -2.2846   -0.3126   -2.1892 H   0  0  0  0  0  0  0  0  0  0  0  0
   -1.3043    1.1830   -2.0505 H   0  0  0  0  0  0  0  0  0  0  0  0
   -4.0090    1.0752   -1.3797 H   0  0  0  0  0  0  0  0  0  0  0  0
   -3.6713    3.0209   -0.6108 H   0  0  0  0  0  0  0  0  0  0  0  0
   -3.3905    1.3533    1.3189 H   0  0  0  0  0  0  0  0  0  0  0  0
   -4.3244   -0.9483    1.5295 H   0  0  0  0  0  0  0  0  0  0  0  0
   -5.2510    0.0076    0.2662 H   0  0  0  0  0  0  0  0  0  0  0  0
   -4.6116   -2.1033   -0.5745 H   0  0  0  0  0  0  0  0  0  0  0  0
   -2.0267   -1.1997    1.1189 H   0  0  0  0  0  0  0  0  0  0  0  0
   -1.3493    0.3812    1.6211 H   0  0  0  0  0  0  0  0  0  0  0  0
    2.4342    1.3684    0.9951 H   0  0  0  0  0  0  0  0  0  0  0  0
    4.6325    0.7972   -2.3136 H   0  0  0  0  0  0  0  0  0  0  0  0
    6.2206   -0.2894   -0.7755 H   0  0  0  0  0  0  0  0  0  0  0  0
    3.0330   -0.5948    2.1654 H   0  0  0  0  0  0  0  0  0  0  0  0
  1  2  1  0
  2  3  2  0
  3  4  1  0
  4  5  1  0
  5  6  1  0
  6  7  1  0
  7  8  1  0
  7  9  1  0
  9 10  1  0
 10 11  1  0
  9 12  1  0
  3 13  1  0
 13 14  1  0
 14 15  2  0
 15 16  1  0
 16 17  1  0
 17 18  2  0
 17 19  1  0
 19  1  1  0
 12  5  1  0
 19 13  1  0
  1 20  1  0
  2 21  1  0
  4 22  1  0
  4 23  1  0
  5 24  1  0
  6 25  1  0
  6 26  1  0
  7 27  1  6
  8 28  1  0
  9 29  1  1
 10 30  1  0
 10 31  1  0
 11 32  1  0
 12 33  1  0
 12 34  1  0
 13 35  1  0
 15 36  1  0
 16 37  1  0
 19 38  1  0
M  CHG  1   5   1
M  END
$$$$
