@<TRIPOS>MOLECULE
*****
 51 54 0 0 0
SMALL
GASTEIGER

@<TRIPOS>ATOM
      1 C           1.8432   -0.4453   -2.2126 C.3     1  UNL1        0.1005
      2 S           1.5386    1.2409   -1.5521 S.3     1  UNL1       -0.1273
      3 C           3.2936    1.4675   -1.0633 C.3     1  UNL1        0.0417
      4 C           3.8647    2.4919   -2.0195 C.3     1  UNL1       -0.0484
      5 C           3.4475    1.9217    0.3486 C.3     1  UNL1       -0.0484
      6 CA          3.9192    0.1406   -1.3575 C.3     1  UNL1        0.1379
      7 N           2.8870   -0.8577   -1.3347 N.am    1  UNL1       -0.2708
      8 C           2.1630   -2.0086   -1.0337 C.2     1  UNL1        0.2402
      9 O           2.3503   -3.1204   -0.4406 O.2     1  UNL1       -0.2734
     10 CA          0.9328   -1.4958   -1.6969 C.3     1  UNL1        0.1279
     11 N          -0.0192   -1.1036   -0.6961 N.am    1  UNL1       -0.2976
     12 C          -1.3774   -1.4770   -0.5127 C.2     1  UNL1        0.2489
     13 O          -1.4702   -2.2480   -1.4961 O.2     1  UNL1       -0.2700
     14 C          -2.2551   -1.0163    0.5429 C.ar    1  UNL1        0.0859
     15 C          -1.9154   -0.1680    1.5717 C.ar    1  UNL1        0.1332
     16 O          -0.6424    0.3143    1.6630 O.3     1  UNL1       -0.4915
     17 C          -0.1490    1.1872    2.6348 C.3     1  UNL1        0.0868
     18 C          -0.8228    2.5411    2.6545 C.3     1  UNL1       -0.0307
     19 C          -2.8020    0.2218    2.5251 C.ar    1  UNL1       -0.0186
     20 C          -4.1108   -0.2033    2.5329 C.ar    1  UNL1       -0.0505
     21 C          -4.4704   -1.0535    1.5102 C.ar    1  UNL1       -0.0169
     22 C          -5.7856   -1.4619    1.5438 C.ar    1  UNL1       -0.0540
     23 C          -6.2771   -2.3123    0.5805 C.ar    1  UNL1       -0.0612
     24 C          -5.4222   -2.7363   -0.4057 C.ar    1  UNL1       -0.0611
     25 C          -4.1258   -2.2865   -0.3727 C.ar    1  UNL1       -0.0532
     26 C          -3.5600   -1.4426    0.5477 C.ar    1  UNL1       -0.0022
     27 C           4.6719    0.0905   -2.6347 C.2     1  UNL1        0.3269
     28 O           5.7435    0.8843   -3.0033 O.3     1  UNL1       -0.4793
     29 OXT         4.4363   -0.7016   -3.5877 O.2     1  UNL1       -0.2489
     30 H           2.0364   -0.4730   -3.2994 H       1  UNL1        0.0640
     31 H           3.7396    2.0775   -3.0390 H       1  UNL1        0.0244
     32 H           4.9218    2.6572   -1.7298 H       1  UNL1        0.0244
     33 H           3.3511    3.4753   -1.9236 H       1  UNL1        0.0244
     34 H           4.0982    1.1556    0.8592 H       1  UNL1        0.0244
     35 H           4.0459    2.8730    0.3652 H       1  UNL1        0.0244
     36 H           2.5191    2.1166    0.8877 H       1  UNL1        0.0244
     37 HA          4.6708   -0.0511   -0.5627 H       1  UNL1        0.0631
     38 HA          0.5247   -2.1851   -2.4730 H       1  UNL1        0.0622
     39 H           0.4399   -0.4331   -0.0426 H       1  UNL1        0.1499
     40 H           0.9702    1.3135    2.5541 H       1  UNL1        0.0694
     41 H          -0.3955    0.7132    3.6249 H       1  UNL1        0.0694
     42 H          -0.0852    3.2982    2.2879 H       1  UNL1        0.0262
     43 H          -1.6234    2.5341    1.8897 H       1  UNL1        0.0262
     44 H          -1.2181    2.8321    3.6450 H       1  UNL1        0.0262
     45 H          -2.5050    0.8774    3.3236 H       1  UNL1        0.0654
     46 H          -4.7975    0.1204    3.3018 H       1  UNL1        0.0625
     47 H          -6.4843   -1.1375    2.3192 H       1  UNL1        0.0624
     48 H          -7.2976   -2.6210    0.6181 H       1  UNL1        0.0618
     49 H          -5.8130   -3.4040   -1.1600 H       1  UNL1        0.0618
     50 H          -3.5380   -2.6740   -1.1868 H       1  UNL1        0.0624
     51 H           6.5534    0.5718   -3.4950 H       1  UNL1        0.2951
@<TRIPOS>BOND
     1     1     2    1
     2     2     3    1
     3     3     4    1
     4     3     5    1
     5     3     6    1
     6     6     7    1
     7     7     8   am
     8     8     9    2
     9     8    10    1
    10    10    11    1
    11    11    12   am
    12    12    13    2
    13    12    14    1
    14    14    15   ar
    15    15    16    1
    16    16    17    1
    17    17    18    1
    18    15    19   ar
    19    19    20   ar
    20    20    21   ar
    21    21    22   ar
    22    22    23   ar
    23    23    24   ar
    24    24    25   ar
    25    25    26   ar
    26     6    27    1
    27    27    28    1
    28    27    29    2
    29     7     1    1
    30    26    14   ar
    31    10     1    1
    32    26    21   ar
    33     1    30    1
    34     4    31    1
    35     4    32    1
    36     4    33    1
    37     5    34    1
    38     5    35    1
    39     5    36    1
    40     6    37    1
    41    10    38    1
    42    11    39    1
    43    17    40    1
    44    17    41    1
    45    18    42    1
    46    18    43    1
    47    18    44    1
    48    19    45    1
    49    20    46    1
    50    22    47    1
    51    23    48    1
    52    24    49    1
    53    25    50    1
    54    28    51    1
