@<TRIPOS>MOLECULE
*****
 23 23 0 0 0
SMALL
GASTEIGER

@<TRIPOS>ATOM
      1 C          -2.4395   -0.9791    0.4793 C.3     1  UNL1       -0.0361
      2 C          -1.0625   -0.7618   -0.1292 C.3     1  UNL1        0.0873
      3 O          -0.1541   -1.1381    0.8448 O.3     1  UNL1       -0.3433
      4 C           1.1241   -1.0156    0.3019 C.3     1  UNL1        0.1853
      5 O           2.0082   -1.7431    1.0833 O.3     1  UNL1       -0.3649
      6 C           1.4323    0.4782    0.3354 C.3     1  UNL1        0.1339
      7 O           2.7588    0.6129   -0.0157 O.3     1  UNL1       -0.3841
      8 C           0.5225    1.1134   -0.6775 C.3     1  UNL1        0.1140
      9 O           0.5675    2.5074   -0.5001 O.3     1  UNL1       -0.3864
     10 C          -0.8862    0.6404   -0.6192 C.3     1  UNL1        0.1095
     11 O          -1.6727    1.5651    0.0867 O.3     1  UNL1       -0.3866
     12 H          -2.4962   -2.0797    0.6907 H       1  UNL1        0.0255
     13 H          -2.4354   -0.4899    1.4709 H       1  UNL1        0.0255
     14 H          -3.2574   -0.6533   -0.1758 H       1  UNL1        0.0255
     15 H          -0.9699   -1.4703   -0.9804 H       1  UNL1        0.0621
     16 H           1.1166   -1.3524   -0.7597 H       1  UNL1        0.0935
     17 H           2.1275   -2.6324    0.6423 H       1  UNL1        0.2126
     18 H           1.2162    0.8684    1.3477 H       1  UNL1        0.0671
     19 H           3.2724   -0.2430    0.0617 H       1  UNL1        0.2101
     20 H           0.9588    0.9101   -1.6903 H       1  UNL1        0.0648
     21 H           1.1115    2.7682    0.2740 H       1  UNL1        0.2100
     22 H          -1.2845    0.6645   -1.6683 H       1  UNL1        0.0646
     23 H          -1.5581    2.4300   -0.4023 H       1  UNL1        0.2100
@<TRIPOS>BOND
     1     1     2    1
     2     2     3    1
     3     3     4    1
     4     4     5    1
     5     4     6    1
     6     6     7    1
     7     6     8    1
     8     8     9    1
     9     8    10    1
    10    10    11    1
    11    10     2    1
    12     1    12    1
    13     1    13    1
    14     1    14    1
    15     2    15    1
    16     4    16    1
    17     5    17    1
    18     6    18    1
    19     7    19    1
    20     8    20    1
    21     9    21    1
    22    10    22    1
    23    11    23    1
