
     RDKit          3D

 37 39  0  0  0  0  0  0  0  0999 V2000
    1.2143   -0.1289   -3.2033 N   0  0  0  0  0  0  0  0  0  0  0  0
    0.0643   -0.1365   -2.3408 C   0  0  0  0  0  0  0  0  0  0  0  0
   -1.1633   -0.4894   -2.8232 C   0  0  0  0  0  0  0  0  0  0  0  0
   -2.2679   -0.4975   -1.9968 C   0  0  0  0  0  0  0  0  0  0  0  0
   -2.1869   -0.1543   -0.6622 C   0  0  0  0  0  0  0  0  0  0  0  0
   -3.3375   -0.1540    0.2341 C   0  0  0  0  0  0  0  0  0  0  0  0
   -3.4056    0.7294    1.2809 C   0  0  0  0  0  0  0  0  0  0  0  0
   -4.4827    0.7395    2.1319 C   0  0  0  0  0  0  0  0  0  0  0  0
   -5.5139   -0.1648    1.9186 C   0  0  0  0  0  0  0  0  0  0  0  0
   -5.4849   -1.0684    0.8795 C   0  0  0  0  0  0  0  0  0  0  0  0
   -4.3708   -1.0371    0.0462 C   0  0  0  0  0  0  0  0  0  0  0  0
   -0.9277    0.1970   -0.2115 C   0  0  0  0  0  0  0  0  0  0  0  0
    0.1940    0.2146   -1.0118 C   0  0  0  0  0  0  0  0  0  0  0  0
    1.4791    0.5923   -0.4755 N   0  0  0  0  0  0  0  0  0  0  0  0
    2.3604   -0.3594    0.0814 C   0  0  0  0  0  0  0  0  0  0  0  0
    1.9734   -1.5597    0.0901 O   0  0  0  0  0  0  0  0  0  0  0  0
    3.6715   -0.0654    0.6425 C   0  0  0  0  0  0  0  0  0  0  0  0
    4.1880    1.2170    0.6843 C   0  0  0  0  0  0  0  0  0  0  0  0
    5.4393    1.4318    1.2294 C   0  0  0  0  0  0  0  0  0  0  0  0
    6.1566    0.3622    1.7249 C   0  0  0  0  0  0  0  0  0  0  0  0
    5.6592   -0.8996    1.6887 N   0  0  0  0  0  0  0  0  0  0  0  0
    4.4429   -1.0870    1.1556 C   0  0  0  0  0  0  0  0  0  0  0  0
    1.4225   -0.9986   -3.7291 H   0  0  0  0  0  0  0  0  0  0  0  0
    1.8231    0.6870   -3.3150 H   0  0  0  0  0  0  0  0  0  0  0  0
   -1.2233   -0.7609   -3.8813 H   0  0  0  0  0  0  0  0  0  0  0  0
   -3.2102   -0.7817   -2.4213 H   0  0  0  0  0  0  0  0  0  0  0  0
   -2.6066    1.4182    1.4327 H   0  0  0  0  0  0  0  0  0  0  0  0
   -4.5437    1.4444    2.9728 H   0  0  0  0  0  0  0  0  0  0  0  0
   -6.3597   -0.1272    2.6202 H   0  0  0  0  0  0  0  0  0  0  0  0
   -6.2890   -1.7736    0.7129 H   0  0  0  0  0  0  0  0  0  0  0  0
   -4.3267   -1.7433   -0.7826 H   0  0  0  0  0  0  0  0  0  0  0  0
   -0.8228    0.4729    0.8308 H   0  0  0  0  0  0  0  0  0  0  0  0
    1.7793    1.5878   -0.4922 H   0  0  0  0  0  0  0  0  0  0  0  0
    3.5904    2.0191    0.2850 H   0  0  0  0  0  0  0  0  0  0  0  0
    5.8409    2.4512    1.2584 H   0  0  0  0  0  0  0  0  0  0  0  0
    7.1337    0.5535    2.1469 H   0  0  0  0  0  0  0  0  0  0  0  0
    4.0902   -2.1307    1.1531 H   0  0  0  0  0  0  0  0  0  0  0  0
  1  2  1  0
  2  3  2  0
  3  4  1  0
  4  5  2  0
  5  6  1  0
  6  7  2  0
  7  8  1  0
  8  9  2  0
  9 10  1  0
 10 11  2  0
  5 12  1  0
 12 13  2  0
 13 14  1  0
 14 15  1  0
 15 16  2  0
 15 17  1  0
 17 18  2  0
 18 19  1  0
 19 20  2  0
 20 21  1  0
 21 22  2  0
 13  2  1  0
 22 17  1  0
 11  6  1  0
  1 23  1  0
  1 24  1  0
  3 25  1  0
  4 26  1  0
  7 27  1  0
  8 28  1  0
  9 29  1  0
 10 30  1  0
 11 31  1  0
 12 32  1  0
 14 33  1  0
 18 34  1  0
 19 35  1  0
 20 36  1  0
 22 37  1  0
M  END
$$$$
