@<TRIPOS>MOLECULE
*****
 37 39 0 0 0
SMALL
GASTEIGER

@<TRIPOS>ATOM
      1 N           1.2143   -0.1289   -3.2033 N.pl3   1  UNL1       -0.3565
      2 C           0.0643   -0.1365   -2.3408 C.ar    1  UNL1        0.0461
      3 C          -1.1633   -0.4894   -2.8232 C.ar    1  UNL1       -0.0387
      4 C          -2.2679   -0.4975   -1.9968 C.ar    1  UNL1       -0.0522
      5 C          -2.1869   -0.1543   -0.6622 C.ar    1  UNL1       -0.0160
      6 C          -3.3375   -0.1540    0.2341 C.ar    1  UNL1       -0.0178
      7 C          -3.4056    0.7294    1.2809 C.ar    1  UNL1       -0.0540
      8 C          -4.4827    0.7395    2.1319 C.ar    1  UNL1       -0.0612
      9 C          -5.5139   -0.1648    1.9186 C.ar    1  UNL1       -0.0617
     10 C          -5.4849   -1.0684    0.8795 C.ar    1  UNL1       -0.0612
     11 C          -4.3708   -1.0371    0.0462 C.ar    1  UNL1       -0.0540
     12 C          -0.9277    0.1970   -0.2115 C.ar    1  UNL1       -0.0310
     13 C           0.1940    0.2146   -1.0118 C.ar    1  UNL1        0.0551
     14 N           1.4791    0.5923   -0.4755 N.am    1  UNL1       -0.2799
     15 C           2.3604   -0.3594    0.0814 C.2     1  UNL1        0.2498
     16 O           1.9734   -1.5597    0.0901 O.2     1  UNL1       -0.2698
     17 C           3.6715   -0.0654    0.6425 C.ar    1  UNL1        0.0551
     18 C           4.1880    1.2170    0.6843 C.ar    1  UNL1       -0.0467
     19 C           5.4393    1.4318    1.2294 C.ar    1  UNL1       -0.0429
     20 C           6.1566    0.3622    1.7249 C.ar    1  UNL1        0.0276
     21 N           5.6592   -0.8996    1.6887 N.ar    1  UNL1       -0.2625
     22 C           4.4429   -1.0870    1.1556 C.ar    1  UNL1        0.0397
     23 H           1.4225   -0.9986   -3.7291 H       1  UNL1        0.1424
     24 H           1.8231    0.6870   -3.3150 H       1  UNL1        0.1424
     25 H          -1.2233   -0.7609   -3.8813 H       1  UNL1        0.0637
     26 H          -3.2102   -0.7817   -2.4213 H       1  UNL1        0.0624
     27 H          -2.6066    1.4182    1.4327 H       1  UNL1        0.0624
     28 H          -4.5437    1.4444    2.9728 H       1  UNL1        0.0618
     29 H          -6.3597   -0.1272    2.6202 H       1  UNL1        0.0618
     30 H          -6.2890   -1.7736    0.7129 H       1  UNL1        0.0618
     31 H          -4.3267   -1.7433   -0.7826 H       1  UNL1        0.0624
     32 H          -0.8228    0.4729    0.8308 H       1  UNL1        0.0643
     33 H           1.7793    1.5878   -0.4922 H       1  UNL1        0.1552
     34 H           3.5904    2.0191    0.2850 H       1  UNL1        0.0626
     35 H           5.8409    2.4512    1.2584 H       1  UNL1        0.0633
     36 H           7.1337    0.5535    2.1469 H       1  UNL1        0.0829
     37 H           4.0902   -2.1307    1.1531 H       1  UNL1        0.0837
@<TRIPOS>BOND
     1     1     2    1
     2     2     3   ar
     3     3     4   ar
     4     4     5   ar
     5     5     6    1
     6     6     7   ar
     7     7     8   ar
     8     8     9   ar
     9     9    10   ar
    10    10    11   ar
    11     5    12   ar
    12    12    13   ar
    13    13    14    1
    14    14    15   am
    15    15    16    2
    16    15    17    1
    17    17    18   ar
    18    18    19   ar
    19    19    20   ar
    20    20    21   ar
    21    21    22   ar
    22    13     2   ar
    23    22    17   ar
    24    11     6   ar
    25     1    23    1
    26     1    24    1
    27     3    25    1
    28     4    26    1
    29     7    27    1
    30     8    28    1
    31     9    29    1
    32    10    30    1
    33    11    31    1
    34    12    32    1
    35    14    33    1
    36    18    34    1
    37    19    35    1
    38    20    36    1
    39    22    37    1
