@<TRIPOS>MOLECULE
*****
 51 54 0 0 0
SMALL
GASTEIGER

@<TRIPOS>ATOM
      1 C          -0.4997   -2.5874    1.0790 C.3     1  UNL1       -0.0354
      2 C          -0.6663   -1.2159    0.5350 C.ar    1  UNL1        0.0077
      3 C           0.3060   -0.3272    0.1671 C.ar    1  UNL1        0.1522
      4 C           1.7660   -0.5760    0.2457 C.2     1  UNL1        0.2781
      5 O           2.1684   -1.6824    0.6814 O.2     1  UNL1       -0.2671
      6 N           2.7029    0.3882   -0.1523 N.am    1  UNL1       -0.2429
      7 N           4.0438    0.2157   -0.1020 N.3     1  UNL1       -0.2268
      8 C           4.5811   -0.9924    0.3805 C.3     1  UNL1        0.0167
      9 C           6.1174   -0.9583    0.3314 C.3     1  UNL1       -0.0386
     10 C           6.4878   -0.3100   -0.9848 C.3     1  UNL1       -0.0506
     11 C           6.1847    1.1687   -0.8181 C.3     1  UNL1       -0.0386
     12 C           4.8717    1.3696   -0.0864 C.3     1  UNL1        0.0167
     13 N          -0.3130    0.7620   -0.2581 N.ar    1  UNL1       -0.1608
     14 N          -1.6302    0.6387   -0.1902 N.ar    1  UNL1       -0.2297
     15 C          -2.5727    1.6216   -0.5685 C.ar    1  UNL1        0.0844
     16 C          -3.4455    2.1888    0.3278 C.ar    1  UNL1       -0.0334
     17 C          -4.3694    3.1481   -0.0270 C.ar    1  UNL1       -0.0413
     18 C          -4.4496    3.5798   -1.3234 C.ar    1  UNL1        0.0425
     19 CL         -5.6257    4.8061   -1.7936 Cl      1  UNL1       -0.0835
     20 C          -3.5889    3.0331   -2.2529 C.ar    1  UNL1       -0.0230
     21 C          -2.6614    2.0648   -1.8775 C.ar    1  UNL1        0.0677
     22 CL         -1.5668    1.3691   -3.0584 Cl      1  UNL1       -0.0813
     23 C          -1.8625   -0.5891    0.3023 C.ar    1  UNL1        0.0783
     24 C          -3.2032   -1.1076    0.5280 C.ar    1  UNL1        0.0008
     25 C          -3.4711   -1.7607    1.7128 C.ar    1  UNL1       -0.0512
     26 C          -4.7210   -2.2794    1.9965 C.ar    1  UNL1       -0.0428
     27 C          -5.7371   -2.1412    1.0656 C.ar    1  UNL1        0.0410
     28 CL         -7.3425   -2.7771    1.3671 Cl      1  UNL1       -0.0835
     29 C          -5.5021   -1.4942   -0.1273 C.ar    1  UNL1       -0.0428
     30 C          -4.2357   -0.9865   -0.3778 C.ar    1  UNL1       -0.0512
     31 H          -0.3760   -2.5518    2.1781 H       1  UNL1        0.0279
     32 H          -1.4214   -3.1776    0.8784 H       1  UNL1        0.0279
     33 H           0.3244   -3.1372    0.5799 H       1  UNL1        0.0279
     34 H           2.3303    1.3153   -0.5173 H       1  UNL1        0.1696
     35 H           4.2805   -1.1500    1.4411 H       1  UNL1        0.0443
     36 H           4.2877   -1.8688   -0.2293 H       1  UNL1        0.0443
     37 H           6.4836   -0.3474    1.1904 H       1  UNL1        0.0278
     38 H           6.4767   -2.0019    0.4123 H       1  UNL1        0.0278
     39 H           5.7999   -0.6897   -1.7665 H       1  UNL1        0.0266
     40 H           7.5532   -0.4682   -1.2422 H       1  UNL1        0.0266
     41 H           6.2219    1.7210   -1.7738 H       1  UNL1        0.0278
     42 H           6.9829    1.5834   -0.1685 H       1  UNL1        0.0278
     43 H           5.0323    1.7183    0.9536 H       1  UNL1        0.0443
     44 H           4.3414    2.1856   -0.6190 H       1  UNL1        0.0443
     45 H          -3.3970    1.8638    1.3441 H       1  UNL1        0.0640
     46 H          -5.0545    3.5873    0.6985 H       1  UNL1        0.0633
     47 H          -3.6548    3.3723   -3.2617 H       1  UNL1        0.0647
     48 H          -2.6860   -1.8749    2.4476 H       1  UNL1        0.0625
     49 H          -4.9629   -2.7920    2.9064 H       1  UNL1        0.0632
     50 H          -6.3076   -1.3831   -0.8686 H       1  UNL1        0.0632
     51 H          -4.0196   -0.4733   -1.3053 H       1  UNL1        0.0625
@<TRIPOS>BOND
     1     1     2    1
     2     2     3   ar
     3     3     4    1
     4     4     5    2
     5     4     6   am
     6     6     7    1
     7     7     8    1
     8     8     9    1
     9     9    10    1
    10    10    11    1
    11    11    12    1
    12     3    13   ar
    13    13    14   ar
    14    14    15    1
    15    15    16   ar
    16    16    17   ar
    17    17    18   ar
    18    18    19    1
    19    18    20   ar
    20    20    21   ar
    21    21    22    1
    22    14    23   ar
    23    23    24    1
    24    24    25   ar
    25    25    26   ar
    26    26    27   ar
    27    27    28    1
    28    27    29   ar
    29    29    30   ar
    30    23     2   ar
    31    30    24   ar
    32    12     7    1
    33    21    15   ar
    34     1    31    1
    35     1    32    1
    36     1    33    1
    37     6    34    1
    38     8    35    1
    39     8    36    1
    40     9    37    1
    41     9    38    1
    42    10    39    1
    43    10    40    1
    44    11    41    1
    45    11    42    1
    46    12    43    1
    47    12    44    1
    48    16    45    1
    49    17    46    1
    50    20    47    1
    51    25    48    1
    52    26    49    1
    53    29    50    1
    54    30    51    1
