
     RDKit          3D

 51 54  0  0  0  0  0  0  0  0999 V2000
   -0.4997   -2.5874    1.0790 C   0  0  0  0  0  0  0  0  0  0  0  0
   -0.6663   -1.2159    0.5350 C   0  0  0  0  0  0  0  0  0  0  0  0
    0.3060   -0.3272    0.1671 C   0  0  0  0  0  0  0  0  0  0  0  0
    1.7660   -0.5760    0.2457 C   0  0  0  0  0  0  0  0  0  0  0  0
    2.1684   -1.6824    0.6814 O   0  0  0  0  0  0  0  0  0  0  0  0
    2.7029    0.3882   -0.1523 N   0  0  0  0  0  0  0  0  0  0  0  0
    4.0438    0.2157   -0.1020 N   0  0  0  0  0  0  0  0  0  0  0  0
    4.5811   -0.9924    0.3805 C   0  0  0  0  0  0  0  0  0  0  0  0
    6.1174   -0.9583    0.3314 C   0  0  0  0  0  0  0  0  0  0  0  0
    6.4878   -0.3100   -0.9848 C   0  0  0  0  0  0  0  0  0  0  0  0
    6.1847    1.1687   -0.8181 C   0  0  0  0  0  0  0  0  0  0  0  0
    4.8717    1.3696   -0.0864 C   0  0  0  0  0  0  0  0  0  0  0  0
   -0.3130    0.7620   -0.2581 N   0  0  0  0  0  0  0  0  0  0  0  0
   -1.6302    0.6387   -0.1902 N   0  0  0  0  0  0  0  0  0  0  0  0
   -2.5727    1.6216   -0.5685 C   0  0  0  0  0  0  0  0  0  0  0  0
   -3.4455    2.1888    0.3278 C   0  0  0  0  0  0  0  0  0  0  0  0
   -4.3694    3.1481   -0.0270 C   0  0  0  0  0  0  0  0  0  0  0  0
   -4.4496    3.5798   -1.3234 C   0  0  0  0  0  0  0  0  0  0  0  0
   -5.6257    4.8061   -1.7936 Cl  0  0  0  0  0  0  0  0  0  0  0  0
   -3.5889    3.0331   -2.2529 C   0  0  0  0  0  0  0  0  0  0  0  0
   -2.6614    2.0648   -1.8775 C   0  0  0  0  0  0  0  0  0  0  0  0
   -1.5668    1.3691   -3.0584 Cl  0  0  0  0  0  0  0  0  0  0  0  0
   -1.8625   -0.5891    0.3023 C   0  0  0  0  0  0  0  0  0  0  0  0
   -3.2032   -1.1076    0.5280 C   0  0  0  0  0  0  0  0  0  0  0  0
   -3.4711   -1.7607    1.7128 C   0  0  0  0  0  0  0  0  0  0  0  0
   -4.7210   -2.2794    1.9965 C   0  0  0  0  0  0  0  0  0  0  0  0
   -5.7371   -2.1412    1.0656 C   0  0  0  0  0  0  0  0  0  0  0  0
   -7.3425   -2.7771    1.3671 Cl  0  0  0  0  0  0  0  0  0  0  0  0
   -5.5021   -1.4942   -0.1273 C   0  0  0  0  0  0  0  0  0  0  0  0
   -4.2357   -0.9865   -0.3778 C   0  0  0  0  0  0  0  0  0  0  0  0
   -0.3760   -2.5518    2.1781 H   0  0  0  0  0  0  0  0  0  0  0  0
   -1.4214   -3.1776    0.8784 H   0  0  0  0  0  0  0  0  0  0  0  0
    0.3244   -3.1372    0.5799 H   0  0  0  0  0  0  0  0  0  0  0  0
    2.3303    1.3153   -0.5173 H   0  0  0  0  0  0  0  0  0  0  0  0
    4.2805   -1.1500    1.4411 H   0  0  0  0  0  0  0  0  0  0  0  0
    4.2877   -1.8688   -0.2293 H   0  0  0  0  0  0  0  0  0  0  0  0
    6.4836   -0.3474    1.1904 H   0  0  0  0  0  0  0  0  0  0  0  0
    6.4767   -2.0019    0.4123 H   0  0  0  0  0  0  0  0  0  0  0  0
    5.7999   -0.6897   -1.7665 H   0  0  0  0  0  0  0  0  0  0  0  0
    7.5532   -0.4682   -1.2422 H   0  0  0  0  0  0  0  0  0  0  0  0
    6.2219    1.7210   -1.7738 H   0  0  0  0  0  0  0  0  0  0  0  0
    6.9829    1.5834   -0.1685 H   0  0  0  0  0  0  0  0  0  0  0  0
    5.0323    1.7183    0.9536 H   0  0  0  0  0  0  0  0  0  0  0  0
    4.3414    2.1856   -0.6190 H   0  0  0  0  0  0  0  0  0  0  0  0
   -3.3970    1.8638    1.3441 H   0  0  0  0  0  0  0  0  0  0  0  0
   -5.0545    3.5873    0.6985 H   0  0  0  0  0  0  0  0  0  0  0  0
   -3.6548    3.3723   -3.2617 H   0  0  0  0  0  0  0  0  0  0  0  0
   -2.6860   -1.8749    2.4476 H   0  0  0  0  0  0  0  0  0  0  0  0
   -4.9629   -2.7920    2.9064 H   0  0  0  0  0  0  0  0  0  0  0  0
   -6.3076   -1.3831   -0.8686 H   0  0  0  0  0  0  0  0  0  0  0  0
   -4.0196   -0.4733   -1.3053 H   0  0  0  0  0  0  0  0  0  0  0  0
  1  2  1  0
  2  3  1  0
  3  4  1  0
  4  5  2  0
  4  6  1  0
  6  7  1  0
  7  8  1  0
  8  9  1  0
  9 10  1  0
 10 11  1  0
 11 12  1  0
  3 13  2  0
 13 14  1  0
 14 15  1  0
 15 16  2  0
 16 17  1  0
 17 18  2  0
 18 19  1  0
 18 20  1  0
 20 21  2  0
 21 22  1  0
 14 23  1  0
 23 24  1  0
 24 25  2  0
 25 26  1  0
 26 27  2  0
 27 28  1  0
 27 29  1  0
 29 30  2  0
 23  2  2  0
 30 24  1  0
 12  7  1  0
 21 15  1  0
  1 31  1  0
  1 32  1  0
  1 33  1  0
  6 34  1  0
  8 35  1  0
  8 36  1  0
  9 37  1  0
  9 38  1  0
 10 39  1  0
 10 40  1  0
 11 41  1  0
 11 42  1  0
 12 43  1  0
 12 44  1  0
 16 45  1  0
 17 46  1  0
 20 47  1  0
 25 48  1  0
 26 49  1  0
 29 50  1  0
 30 51  1  0
M  END
$$$$
