@<TRIPOS>MOLECULE
*****
 14 13 0 0 0
SMALL
GASTEIGER

@<TRIPOS>ATOM
      1 N           0.4967    1.6209    0.3004 N.3     1  UNL1        0.0000
      2 CA          0.0305    0.2624    0.4462 C.3     1  UNL1        0.0000
      3 C          -1.1665    0.1009   -0.4586 C.3     1  UNL1        0.0000
      4 SE         -1.8731   -1.6926   -0.3396 Se      1  UNL1        0.0000
      5 C           1.1171   -0.7065    0.0907 C.2     1  UNL1        0.0000
      6 O           2.3597   -0.2214   -0.3096 O.3     1  UNL1        0.0000
      7 OXT         0.9317   -1.9516    0.1458 O.2     1  UNL1        0.0000
      8 H1         -0.0021    2.3013    0.9027 H       1  UNL1        0.0000
      9 H2          0.5046    1.9196   -0.6969 H       1  UNL1        0.0000
     10 HA         -0.2757    0.0502    1.4688 H       1  UNL1        0.0000
     11 H          -0.8968    0.3143   -1.5142 H       1  UNL1        0.0000
     12 H          -1.9282    0.8164   -0.1495 H       1  UNL1        0.0000
     13 H          -2.1605   -2.0436    1.1298 H       1  UNL1        0.0000
     14 H           2.8626   -0.7705   -1.0161 H       1  UNL1        0.0000
@<TRIPOS>BOND
     1     1     2    1
     2     2     3    1
     3     3     4    1
     4     2     5    1
     5     5     6    1
     6     5     7    2
     7     1     8    1
     8     1     9    1
     9     2    10    1
    10     3    11    1
    11     3    12    1
    12     4    13    1
    13     6    14    1
