
     RDKit          3D

 42 45  0  0  0  0  0  0  0  0999 V2000
   -0.4799    3.3006   -3.7183 N   0  0  0  0  0  0  0  0  0  0  0  0
   -0.8647    3.3180   -2.6147 C   0  0  0  0  0  0  0  0  0  0  0  0
   -1.3159    3.3405   -1.2598 C   0  0  0  0  0  0  0  0  0  0  0  0
   -1.9886    4.3890   -0.6687 C   0  0  0  0  0  0  0  0  0  0  0  0
   -2.2250    4.0087    0.5936 N   0  0  0  0  0  0  0  0  0  0  0  0
   -1.7180    2.7808    0.7653 C   0  0  0  0  0  0  0  0  0  0  0  0
   -1.7142    1.9813    1.8808 C   0  0  0  0  0  0  0  0  0  0  0  0
   -1.1147    0.7230    1.8110 C   0  0  0  0  0  0  0  0  0  0  0  0
   -0.5285    0.2669    0.6513 C   0  0  0  0  0  0  0  0  0  0  0  0
    0.0871   -1.0509    0.6140 C   0  0  0  0  0  0  0  0  0  0  0  0
    1.4280   -1.2893    0.3723 C   0  0  0  0  0  0  0  0  0  0  0  0
    2.4318   -0.2763    0.1205 C   0  0  0  0  0  0  0  0  0  0  0  0
    2.7259    0.6554    1.0842 C   0  0  0  0  0  0  0  0  0  0  0  0
    3.6956    1.6440    0.8540 C   0  0  0  0  0  0  0  0  0  0  0  0
    4.3616    1.6784   -0.3583 C   0  0  0  0  0  0  0  0  0  0  0  0
    5.2970    2.6573   -0.5392 F   0  0  0  0  0  0  0  0  0  0  0  0
    4.0627    0.7488   -1.3096 C   0  0  0  0  0  0  0  0  0  0  0  0
    4.8873    0.7694   -2.8476 Cl  0  0  0  0  0  0  0  0  0  0  0  0
    3.0968   -0.2348   -1.0785 C   0  0  0  0  0  0  0  0  0  0  0  0
    1.6588   -2.6211    0.4077 N   0  0  0  0  0  0  0  0  0  0  0  0
    0.4916   -3.2231    0.6664 C   0  0  0  0  0  0  0  0  0  0  0  0
   -0.4559   -2.2786    0.7909 N   0  0  0  0  0  0  0  0  0  0  0  0
   -1.8279   -2.5166    1.0826 C   0  0  0  0  0  0  0  0  0  0  0  0
   -2.6954   -2.6565   -0.1260 C   0  0  0  0  0  0  0  0  0  0  0  0
   -2.2690   -3.8021   -1.0029 C   0  0  0  0  0  0  0  0  0  0  0  0
   -1.0082   -3.6883   -1.4909 F   0  0  0  0  0  0  0  0  0  0  0  0
   -0.5666    1.1198   -0.4339 C   0  0  0  0  0  0  0  0  0  0  0  0
   -1.1459    2.3393   -0.3716 N   0  0  0  0  0  0  0  0  0  0  0  0
   -2.2906    5.3450   -1.0869 H   0  0  0  0  0  0  0  0  0  0  0  0
   -2.1774    2.3289    2.8157 H   0  0  0  0  0  0  0  0  0  0  0  0
   -1.1348    0.1401    2.6965 H   0  0  0  0  0  0  0  0  0  0  0  0
    2.2298    0.6648    2.0451 H   0  0  0  0  0  0  0  0  0  0  0  0
    3.9218    2.3674    1.6065 H   0  0  0  0  0  0  0  0  0  0  0  0
    2.8663   -0.9769   -1.8530 H   0  0  0  0  0  0  0  0  0  0  0  0
    0.3402   -4.2999    0.7604 H   0  0  0  0  0  0  0  0  0  0  0  0
   -1.9070   -3.5055    1.6295 H   0  0  0  0  0  0  0  0  0  0  0  0
   -2.2508   -1.7950    1.8297 H   0  0  0  0  0  0  0  0  0  0  0  0
   -3.7743   -2.8008    0.1494 H   0  0  0  0  0  0  0  0  0  0  0  0
   -2.6217   -1.7118   -0.7426 H   0  0  0  0  0  0  0  0  0  0  0  0
   -2.4357   -4.7766   -0.4578 H   0  0  0  0  0  0  0  0  0  0  0  0
   -2.9492   -3.8806   -1.8948 H   0  0  0  0  0  0  0  0  0  0  0  0
   -0.1229    0.8174   -1.3725 H   0  0  0  0  0  0  0  0  0  0  0  0
  1  2  3  0
  2  3  1  0
  3  4  2  0
  4  5  1  0
  5  6  2  0
  6  7  1  0
  7  8  2  0
  8  9  1  0
  9 10  1  0
 10 11  2  0
 11 12  1  0
 12 13  2  0
 13 14  1  0
 14 15  2  0
 15 16  1  0
 15 17  1  0
 17 18  1  0
 17 19  2  0
 11 20  1  0
 20 21  2  0
 21 22  1  0
 22 23  1  0
 23 24  1  0
 24 25  1  0
 25 26  1  0
  9 27  2  0
 27 28  1  0
 28  3  1  0
 28  6  1  0
 22 10  1  0
 19 12  1  0
  4 29  1  0
  7 30  1  0
  8 31  1  0
 13 32  1  0
 14 33  1  0
 19 34  1  0
 21 35  1  0
 23 36  1  0
 23 37  1  0
 24 38  1  0
 24 39  1  0
 25 40  1  0
 25 41  1  0
 27 42  1  0
M  END
$$$$
