@<TRIPOS>MOLECULE
*****
 42 45 0 0 0
SMALL
GASTEIGER

@<TRIPOS>ATOM
      1 N          -0.4799    3.3006   -3.7183 N.1     1  UNL1       -0.1893
      2 C          -0.8647    3.3180   -2.6147 C.1     1  UNL1        0.1192
      3 C          -1.3159    3.3405   -1.2598 C.ar    1  UNL1        0.1438
      4 C          -1.9886    4.3890   -0.6687 C.ar    1  UNL1        0.0643
      5 N          -2.2250    4.0087    0.5936 N.ar    1  UNL1       -0.2348
      6 C          -1.7180    2.7808    0.7653 C.ar    1  UNL1        0.1385
      7 C          -1.7142    1.9813    1.8808 C.ar    1  UNL1       -0.0181
      8 C          -1.1147    0.7230    1.8110 C.ar    1  UNL1       -0.0477
      9 C          -0.5285    0.2669    0.6513 C.ar    1  UNL1        0.0173
     10 C           0.0871   -1.0509    0.6140 C.ar    1  UNL1        0.0778
     11 C           1.4280   -1.2893    0.3723 C.ar    1  UNL1        0.0968
     12 C           2.4318   -0.2763    0.1205 C.ar    1  UNL1        0.0040
     13 C           2.7259    0.6554    1.0842 C.ar    1  UNL1       -0.0497
     14 C           3.6956    1.6440    0.8540 C.ar    1  UNL1       -0.0244
     15 C           4.3616    1.6784   -0.3583 C.ar    1  UNL1        0.1417
     16 F           5.2970    2.6573   -0.5392 F       1  UNL1       -0.2040
     17 C           4.0627    0.7488   -1.3096 C.ar    1  UNL1        0.0767
     18 CL          4.8873    0.7694   -2.8476 Cl      1  UNL1       -0.0806
     19 C           3.0968   -0.2348   -1.0785 C.ar    1  UNL1       -0.0313
     20 N           1.6588   -2.6211    0.4077 N.ar    1  UNL1       -0.2351
     21 C           0.4916   -3.2231    0.6664 C.ar    1  UNL1        0.0971
     22 N          -0.4559   -2.2786    0.7909 N.ar    1  UNL1       -0.3295
     23 C          -1.8279   -2.5166    1.0826 C.3     1  UNL1        0.0271
     24 C          -2.6954   -2.6565   -0.1260 C.3     1  UNL1       -0.0065
     25 C          -2.2690   -3.8021   -1.0029 C.3     1  UNL1        0.0918
     26 F          -1.0082   -3.6883   -1.4909 F       1  UNL1       -0.2490
     27 C          -0.5666    1.1198   -0.4339 C.ar    1  UNL1        0.0216
     28 N          -1.1459    2.3393   -0.3716 N.ar    1  UNL1       -0.2906
     29 H          -2.2906    5.3450   -1.0869 H       1  UNL1        0.0859
     30 H          -2.1774    2.3289    2.8157 H       1  UNL1        0.0654
     31 H          -1.1348    0.1401    2.6965 H       1  UNL1        0.0626
     32 H           2.2298    0.6648    2.0451 H       1  UNL1        0.0625
     33 H           3.9218    2.3674    1.6065 H       1  UNL1        0.0647
     34 H           2.8663   -0.9769   -1.8530 H       1  UNL1        0.0640
     35 H           0.3402   -4.2999    0.7604 H       1  UNL1        0.1029
     36 H          -1.9070   -3.5055    1.6295 H       1  UNL1        0.0493
     37 H          -2.2508   -1.7950    1.8297 H       1  UNL1        0.0493
     38 H          -3.7743   -2.8008    0.1494 H       1  UNL1        0.0307
     39 H          -2.6217   -1.7118   -0.7426 H       1  UNL1        0.0307
     40 H          -2.4357   -4.7766   -0.4578 H       1  UNL1        0.0615
     41 H          -2.9492   -3.8806   -1.8948 H       1  UNL1        0.0615
     42 H          -0.1229    0.8174   -1.3725 H       1  UNL1        0.0820
@<TRIPOS>BOND
     1     1     2    3
     2     2     3    1
     3     3     4   ar
     4     4     5   ar
     5     5     6   ar
     6     6     7   ar
     7     7     8   ar
     8     8     9   ar
     9     9    10    1
    10    10    11   ar
    11    11    12    1
    12    12    13   ar
    13    13    14   ar
    14    14    15   ar
    15    15    16    1
    16    15    17   ar
    17    17    18    1
    18    17    19   ar
    19    11    20   ar
    20    20    21   ar
    21    21    22   ar
    22    22    23    1
    23    23    24    1
    24    24    25    1
    25    25    26    1
    26     9    27   ar
    27    27    28   ar
    28    28     3   ar
    29    28     6   ar
    30    22    10   ar
    31    19    12   ar
    32     4    29    1
    33     7    30    1
    34     8    31    1
    35    13    32    1
    36    14    33    1
    37    19    34    1
    38    21    35    1
    39    23    36    1
    40    23    37    1
    41    24    38    1
    42    24    39    1
    43    25    40    1
    44    25    41    1
    45    27    42    1
