@<TRIPOS>MOLECULE
*****
 53 57 0 0 0
SMALL
GASTEIGER

@<TRIPOS>ATOM
      1 N          -6.8240    1.6019   -1.2482 N.3     1  UNL1       -0.3297
      2 C          -6.5133    1.6483    0.1580 C.3     1  UNL1       -0.0040
      3 C          -5.3772    0.7474    0.5600 C.3     1  UNL1       -0.0264
      4 C          -4.1183    1.1338   -0.1786 C.3     1  UNL1       -0.0362
      5 C          -2.9509    0.3019    0.2837 C.3     1  UNL1       -0.0005
      6 N          -3.2727   -0.9732    0.7629 N.3     1  UNL1       -0.2981
      7 C          -2.4029   -1.5587    1.7089 C.3     1  UNL1        0.0241
      8 C          -1.0471   -1.6943    1.1108 C.ar    1  UNL1       -0.0327
      9 C          -0.0584   -0.7351    1.1820 C.ar    1  UNL1       -0.0482
     10 C           1.1751   -0.9325    0.6023 C.ar    1  UNL1        0.0006
     11 C           1.4896   -2.0892   -0.0761 C.ar    1  UNL1        0.0470
     12 N           2.7488   -1.9523   -0.5056 N.ar    1  UNL1       -0.3529
     13 C           3.3099   -0.7707   -0.1595 C.ar    1  UNL1        0.0683
     14 C           2.3072   -0.1624    0.5265 C.ar    1  UNL1       -0.0271
     15 C           4.6697   -0.4503   -0.5406 C.ar    1  UNL1        0.1163
     16 N           5.4767   -1.2621   -1.2473 N.ar    1  UNL1       -0.1713
     17 N           6.6515   -0.7416   -1.4596 N.ar    1  UNL1       -0.2763
     18 C           6.7091    0.4791   -0.8968 C.ar    1  UNL1        0.0676
     19 C           5.4572    0.6280   -0.3331 C.ar    1  UNL1        0.0289
     20 C           5.2430    1.8162    0.3210 C.ar    1  UNL1       -0.0492
     21 C           6.1695    2.8090    0.4328 C.ar    1  UNL1       -0.0436
     22 C           7.4147    2.6227   -0.1462 C.ar    1  UNL1        0.0538
     23 C           7.6924    1.4437   -0.8208 C.ar    1  UNL1       -0.0189
     24 C           8.4488    3.6162   -0.0763 C.1     1  UNL1        0.0992
     25 N           9.2894    4.3994   -0.0231 N.1     1  UNL1       -0.1909
     26 C           0.4979   -3.0475   -0.1458 C.ar    1  UNL1       -0.0375
     27 C          -0.7374   -2.8531    0.4332 C.ar    1  UNL1       -0.0554
     28 C          -4.5063   -1.5639    0.4920 C.3     1  UNL1       -0.0005
     29 C          -5.6851   -0.6841    0.2786 C.3     1  UNL1       -0.0362
     30 H          -7.3924    0.7338   -1.4278 H       1  UNL1        0.1182
     31 H          -6.0255    1.7030   -1.8835 H       1  UNL1        0.1182
     32 H          -7.4294    1.2942    0.7023 H       1  UNL1        0.0425
     33 H          -6.2646    2.6697    0.5091 H       1  UNL1        0.0425
     34 H          -5.1960    0.8794    1.6262 H       1  UNL1        0.0314
     35 H          -3.9674    2.2241   -0.0165 H       1  UNL1        0.0281
     36 H          -4.2011    0.9956   -1.2790 H       1  UNL1        0.0281
     37 H          -2.4789    0.8996    1.1186 H       1  UNL1        0.0427
     38 H          -2.1577    0.2157   -0.4916 H       1  UNL1        0.0427
     39 H          -2.3271   -0.8731    2.5840 H       1  UNL1        0.0476
     40 H          -2.7938   -2.5402    2.0339 H       1  UNL1        0.0476
     41 H          -0.2678    0.1684    1.6977 H       1  UNL1        0.0627
     42 H           3.1458   -2.7608   -1.0495 H       1  UNL1        0.1660
     43 H           2.3684    0.8023    0.9651 H       1  UNL1        0.0645
     44 H           7.3927   -1.2445   -1.9922 H       1  UNL1        0.1889
     45 H           4.2946    1.9956    0.7800 H       1  UNL1        0.0625
     46 H           5.9741    3.7343    0.9534 H       1  UNL1        0.0631
     47 H           8.6306    1.2195   -1.2973 H       1  UNL1        0.0652
     48 H           0.7251   -3.9584   -0.6720 H       1  UNL1        0.0638
     49 H          -1.4747   -3.6269    0.3521 H       1  UNL1        0.0621
     50 H          -4.3953   -2.2026   -0.4327 H       1  UNL1        0.0427
     51 H          -4.7359   -2.3183    1.2945 H       1  UNL1        0.0427
     52 H          -6.5162   -0.9641    0.9899 H       1  UNL1        0.0281
     53 H          -6.1644   -0.8229   -0.7346 H       1  UNL1        0.0281
@<TRIPOS>BOND
     1     1     2    1
     2     2     3    1
     3     3     4    1
     4     4     5    1
     5     5     6    1
     6     6     7    1
     7     7     8    1
     8     8     9   ar
     9     9    10   ar
    10    10    11   ar
    11    11    12   ar
    12    12    13   ar
    13    13    14   ar
    14    13    15    1
    15    15    16   ar
    16    16    17   ar
    17    17    18   ar
    18    18    19   ar
    19    19    20   ar
    20    20    21   ar
    21    21    22   ar
    22    22    23   ar
    23    22    24    1
    24    24    25    3
    25    11    26   ar
    26    26    27   ar
    27     6    28    1
    28    28    29    1
    29    29     3    1
    30    27     8   ar
    31    14    10   ar
    32    19    15   ar
    33    23    18   ar
    34     1    30    1
    35     1    31    1
    36     2    32    1
    37     2    33    1
    38     3    34    1
    39     4    35    1
    40     4    36    1
    41     5    37    1
    42     5    38    1
    43     7    39    1
    44     7    40    1
    45     9    41    1
    46    12    42    1
    47    14    43    1
    48    17    44    1
    49    20    45    1
    50    21    46    1
    51    23    47    1
    52    26    48    1
    53    27    49    1
    54    28    50    1
    55    28    51    1
    56    29    52    1
    57    29    53    1
