@<TRIPOS>MOLECULE
*****
 55 59 0 0 0
SMALL
GASTEIGER

@<TRIPOS>ATOM
      1 C           6.0582    2.5231    0.5034 C.3     1  UNL1       -0.0130
      2 N           4.8655    1.8904   -0.0165 N.3     1  UNL1       -0.3083
      3 C           4.9862    1.8221   -1.4536 C.3     1  UNL1       -0.0130
      4 C           4.7630    0.5943    0.5575 C.3     1  UNL1       -0.0001
      5 C           3.5797   -0.2247    0.0648 C.3     1  UNL1       -0.0222
      6 C           2.3273    0.4879    0.3808 C.3     1  UNL1        0.0245
      7 N           1.1236   -0.1792   -0.0366 N.ar    1  UNL1       -0.3460
      8 C           0.4490   -0.0656   -1.1880 C.ar    1  UNL1        0.0136
      9 C          -0.6590   -0.8764   -1.1699 C.ar    1  UNL1        0.0131
     10 C          -1.6779   -1.0925   -2.2075 C.2     1  UNL1        0.0590
     11 C          -3.0047   -0.9956   -2.0719 C.2     1  UNL1        0.0589
     12 C          -3.7538   -0.6487   -0.8737 C.ar    1  UNL1        0.0129
     13 C          -4.8079   -1.3443   -0.3211 C.ar    1  UNL1        0.0106
     14 N          -5.2570   -0.7009    0.7747 N.ar    1  UNL1       -0.3600
     15 C          -4.5123    0.4166    0.9569 C.ar    1  UNL1        0.0471
     16 C          -4.5730    1.3996    1.9084 C.ar    1  UNL1       -0.0378
     17 C          -3.7086    2.4548    1.8770 C.ar    1  UNL1       -0.0598
     18 C          -2.7758    2.5061    0.8659 C.ar    1  UNL1       -0.0611
     19 C          -2.7082    1.5204   -0.0945 C.ar    1  UNL1       -0.0520
     20 C          -3.5673    0.4546   -0.0767 C.ar    1  UNL1        0.0075
     21 C          -3.6075   -1.3049   -3.3862 C.2     1  UNL1        0.2519
     22 O          -4.8365   -1.3146   -3.6486 O.2     1  UNL1       -0.2697
     23 N          -2.5875   -1.5930   -4.3223 N.am    1  UNL1       -0.2483
     24 C          -1.3746   -1.4638   -3.5978 C.2     1  UNL1        0.2519
     25 O          -0.2243   -1.6477   -4.1065 O.2     1  UNL1       -0.2697
     26 C          -0.6833   -1.5311    0.0454 C.ar    1  UNL1        0.0077
     27 C          -1.5001   -2.4617    0.6541 C.ar    1  UNL1       -0.0520
     28 C          -1.2272   -2.9500    1.9331 C.ar    1  UNL1       -0.0611
     29 C          -0.1127   -2.4871    2.5961 C.ar    1  UNL1       -0.0598
     30 C           0.6992   -1.5548    1.9738 C.ar    1  UNL1       -0.0376
     31 C           0.4482   -1.0659    0.7234 C.ar    1  UNL1        0.0497
     32 H           6.9220    1.7944    0.5102 H       1  UNL1        0.0391
     33 H           5.9539    2.8494    1.5597 H       1  UNL1        0.0391
     34 H           6.3793    3.3858   -0.1212 H       1  UNL1        0.0391
     35 H           4.0992    1.3400   -1.9179 H       1  UNL1        0.0391
     36 H           5.0451    2.9010   -1.7905 H       1  UNL1        0.0391
     37 H           5.9254    1.3520   -1.8073 H       1  UNL1        0.0391
     38 H           4.6387    0.7175    1.6593 H       1  UNL1        0.0427
     39 H           5.7255    0.0530    0.3559 H       1  UNL1        0.0427
     40 H           3.7509   -0.4573   -0.9897 H       1  UNL1        0.0295
     41 H           3.6104   -1.1452    0.7269 H       1  UNL1        0.0295
     42 H           2.3523    1.4815   -0.1381 H       1  UNL1        0.0492
     43 H           2.3220    0.7303    1.4737 H       1  UNL1        0.0492
     44 H           0.7269    0.5675   -2.0163 H       1  UNL1        0.0815
     45 H          -5.2136   -2.2776   -0.7178 H       1  UNL1        0.0813
     46 H          -6.0452   -0.9621    1.4261 H       1  UNL1        0.1654
     47 H          -5.3053    1.3455    2.6877 H       1  UNL1        0.0638
     48 H          -3.7190    3.2658    2.6173 H       1  UNL1        0.0618
     49 H          -2.0646    3.3371    0.8063 H       1  UNL1        0.0618
     50 H          -1.9823    1.5644   -0.9073 H       1  UNL1        0.0624
     51 H          -2.7493   -1.8463   -5.3319 H       1  UNL1        0.1581
     52 H          -2.3783   -2.8557    0.1506 H       1  UNL1        0.0624
     53 H          -1.8408   -3.6693    2.4341 H       1  UNL1        0.0618
     54 H           0.1359   -2.8400    3.5951 H       1  UNL1        0.0618
     55 H           1.5699   -1.1989    2.5014 H       1  UNL1        0.0638
@<TRIPOS>BOND
     1     1     2    1
     2     2     3    1
     3     2     4    1
     4     4     5    1
     5     5     6    1
     6     6     7    1
     7     7     8   ar
     8     8     9   ar
     9     9    10    1
    10    10    11    2
    11    11    12    1
    12    12    13   ar
    13    13    14   ar
    14    14    15   ar
    15    15    16   ar
    16    16    17   ar
    17    17    18   ar
    18    18    19   ar
    19    19    20   ar
    20    11    21    1
    21    21    22    2
    22    21    23   am
    23    23    24   am
    24    24    25    2
    25     9    26   ar
    26    26    27   ar
    27    27    28   ar
    28    28    29   ar
    29    29    30   ar
    30    30    31   ar
    31    31     7   ar
    32    24    10    1
    33    31    26   ar
    34    20    12   ar
    35    20    15   ar
    36     1    32    1
    37     1    33    1
    38     1    34    1
    39     3    35    1
    40     3    36    1
    41     3    37    1
    42     4    38    1
    43     4    39    1
    44     5    40    1
    45     5    41    1
    46     6    42    1
    47     6    43    1
    48     8    44    1
    49    13    45    1
    50    14    46    1
    51    16    47    1
    52    17    48    1
    53    18    49    1
    54    19    50    1
    55    23    51    1
    56    27    52    1
    57    28    53    1
    58    29    54    1
    59    30    55    1
