
     RDKit          3D

 29 30  0  0  0  0  0  0  0  0999 V2000
   -2.2963    2.4203    1.0512 C   0  0  0  0  0  0  0  0  0  0  0  0
   -2.6495    1.1218    0.6995 O   0  0  0  0  0  0  0  0  0  0  0  0
   -1.7384    0.1681    0.2632 C   0  0  0  0  0  0  0  0  0  0  0  0
   -0.4204    0.6401    0.2100 C   0  0  0  0  0  0  0  0  0  0  0  0
    0.5875   -0.1843   -0.2007 C   0  0  0  0  0  0  0  0  0  0  0  0
    0.2559   -1.4739   -0.5527 C   0  0  0  0  0  0  0  0  0  0  0  0
   -1.0460   -1.9153   -0.4923 C   0  0  0  0  0  0  0  0  0  0  0  0
   -2.0882   -1.1419   -0.0924 C   0  0  0  0  0  0  0  0  0  0  0  0
   -3.4374   -1.3457    0.0493 O   0  0  0  0  0  0  0  0  0  0  0  0
   -4.0119   -2.5854   -0.2501 C   0  0  0  0  0  0  0  0  0  0  0  0
   -4.9367   -2.3408   -1.2710 F   0  0  0  0  0  0  0  0  0  0  0  0
   -4.7243   -3.1036    0.8276 F   0  0  0  0  0  0  0  0  0  0  0  0
    1.9546    0.3101   -0.2545 C   0  0  0  0  0  0  0  0  0  0  0  0
    2.2062    1.5791    0.1032 N   0  0  0  0  0  0  0  0  0  0  0  0
    3.4210    2.1063    0.0827 N   0  0  0  0  0  0  0  0  0  0  0  0
    4.5111    1.4114   -0.3000 C   0  0  0  0  0  0  0  0  0  0  0  0
    5.6693    1.8796   -0.3302 O   0  0  0  0  0  0  0  0  0  0  0  0
    4.3146    0.0972   -0.6802 C   0  0  0  0  0  0  0  0  0  0  0  0
    3.0400   -0.4378   -0.6531 C   0  0  0  0  0  0  0  0  0  0  0  0
   -1.4736    2.4340    1.8229 H   0  0  0  0  0  0  0  0  0  0  0  0
   -1.8737    2.9546    0.1563 H   0  0  0  0  0  0  0  0  0  0  0  0
   -3.1643    3.0152    1.3996 H   0  0  0  0  0  0  0  0  0  0  0  0
   -0.1565    1.6417    0.4824 H   0  0  0  0  0  0  0  0  0  0  0  0
    1.0004   -2.1758   -0.8850 H   0  0  0  0  0  0  0  0  0  0  0  0
   -1.3205   -2.9217   -0.7647 H   0  0  0  0  0  0  0  0  0  0  0  0
   -3.2525   -3.3011   -0.5893 H   0  0  0  0  0  0  0  0  0  0  0  0
    3.5748    3.1084    0.3720 H   0  0  0  0  0  0  0  0  0  0  0  0
    5.1577   -0.5135   -0.9991 H   0  0  0  0  0  0  0  0  0  0  0  0
    2.8972   -1.4474   -0.9464 H   0  0  0  0  0  0  0  0  0  0  0  0
  1  2  1  0
  2  3  1  0
  3  4  2  0
  4  5  1  0
  5  6  2  0
  6  7  1  0
  7  8  2  0
  8  9  1  0
  9 10  1  0
 10 11  1  0
 10 12  1  0
  5 13  1  0
 13 14  2  0
 14 15  1  0
 15 16  1  0
 16 17  2  0
 16 18  1  0
 18 19  2  0
  8  3  1  0
 19 13  1  0
  1 20  1  0
  1 21  1  0
  1 22  1  0
  4 23  1  0
  6 24  1  0
  7 25  1  0
 10 26  1  0
 15 27  1  0
 18 28  1  0
 19 29  1  0
M  END
$$$$
