@<TRIPOS>MOLECULE
*****
 29 30 0 0 0
SMALL
GASTEIGER

@<TRIPOS>ATOM
      1 C          -2.2963    2.4203    1.0512 C.3     1  UNL1        0.0790
      2 O          -2.6495    1.1218    0.6995 O.3     1  UNL1       -0.4914
      3 C          -1.7384    0.1681    0.2632 C.ar    1  UNL1        0.1623
      4 C          -0.4204    0.6401    0.2100 C.ar    1  UNL1       -0.0071
      5 C           0.5875   -0.1843   -0.2007 C.ar    1  UNL1        0.0057
      6 C           0.2559   -1.4739   -0.5527 C.ar    1  UNL1       -0.0488
      7 C          -1.0460   -1.9153   -0.4923 C.ar    1  UNL1       -0.0155
      8 C          -2.0882   -1.1419   -0.0924 C.ar    1  UNL1        0.1683
      9 O          -3.4374   -1.3457    0.0493 O.3     1  UNL1       -0.4305
     10 C          -4.0119   -2.5854   -0.2501 C.3     1  UNL1        0.3894
     11 F          -4.9367   -2.3408   -1.2710 F       1  UNL1       -0.1663
     12 F          -4.7243   -3.1036    0.8276 F       1  UNL1       -0.1663
     13 C           1.9546    0.3101   -0.2545 C.ar    1  UNL1        0.0915
     14 N           2.2062    1.5791    0.1032 N.ar    1  UNL1       -0.1709
     15 N           3.4210    2.1063    0.0827 N.ar    1  UNL1       -0.2427
     16 C           4.5111    1.4114   -0.3000 C.ar    1  UNL1        0.2647
     17 O           5.6693    1.8796   -0.3302 O.2     1  UNL1       -0.2664
     18 C           4.3146    0.0972   -0.6802 C.ar    1  UNL1        0.0062
     19 C           3.0400   -0.4378   -0.6531 C.ar    1  UNL1       -0.0289
     20 H          -1.4736    2.4340    1.8229 H       1  UNL1        0.0660
     21 H          -1.8737    2.9546    0.1563 H       1  UNL1        0.0660
     22 H          -3.1643    3.0152    1.3996 H       1  UNL1        0.0660
     23 H          -0.1565    1.6417    0.4824 H       1  UNL1        0.0662
     24 H           1.0004   -2.1758   -0.8850 H       1  UNL1        0.0625
     25 H          -1.3205   -2.9217   -0.7647 H       1  UNL1        0.0655
     26 H          -3.2525   -3.3011   -0.5893 H       1  UNL1        0.1520
     27 H           3.5748    3.1084    0.3720 H       1  UNL1        0.1921
     28 H           5.1577   -0.5135   -0.9991 H       1  UNL1        0.0673
     29 H           2.8972   -1.4474   -0.9464 H       1  UNL1        0.0641
@<TRIPOS>BOND
     1     1     2    1
     2     2     3    1
     3     3     4   ar
     4     4     5   ar
     5     5     6   ar
     6     6     7   ar
     7     7     8   ar
     8     8     9    1
     9     9    10    1
    10    10    11    1
    11    10    12    1
    12     5    13    1
    13    13    14   ar
    14    14    15   ar
    15    15    16   ar
    16    16    17    2
    17    16    18   ar
    18    18    19   ar
    19     8     3   ar
    20    19    13   ar
    21     1    20    1
    22     1    21    1
    23     1    22    1
    24     4    23    1
    25     6    24    1
    26     7    25    1
    27    10    26    1
    28    15    27    1
    29    18    28    1
    30    19    29    1
