@<TRIPOS>MOLECULE
*****
 53 56 0 0 0
SMALL
GASTEIGER

@<TRIPOS>ATOM
      1 O           1.7015   -1.8014    2.2745 O.2     1  UNL1       -0.2702
      2 C           2.3029   -0.7245    2.0455 C.2     1  UNL1        0.2441
      3 N           3.7117   -0.6934    2.0894 N.am    1  UNL1       -0.3110
      4 C           4.5031   -1.8804    2.3946 C.3     1  UNL1        0.0159
      5 C           4.2854   -2.9900    1.4125 C.3     1  UNL1       -0.0120
      6 C           4.6474   -2.6072    0.0279 C.ar    1  UNL1       -0.0430
      7 C           3.7430   -2.0538   -0.8541 C.ar    1  UNL1       -0.0404
      8 C           4.1350   -1.7130   -2.1341 C.ar    1  UNL1        0.0278
      9 N           5.3985   -1.9058   -2.5638 N.ar    1  UNL1       -0.2632
     10 C           6.3074   -2.4409   -1.7379 C.ar    1  UNL1        0.0278
     11 C           5.9366   -2.7899   -0.4507 C.ar    1  UNL1       -0.0404
     12 C           1.5548    0.4802    1.7379 C.ar    1  UNL1        0.0385
     13 C           2.1424    1.6889    1.4673 C.ar    1  UNL1       -0.0495
     14 C           1.4123    2.8463    1.1727 C.ar    1  UNL1       -0.0592
     15 C           0.0584    2.7571    1.1568 C.ar    1  UNL1       -0.0353
     16 C          -0.5818    1.5462    1.4266 C.ar    1  UNL1        0.1062
     17 S          -2.3222    1.5546    1.3780 S.O2    1  UNL1        0.0612
     18 O          -2.7974    2.9015    1.8383 O.2     1  UNL1       -0.1528
     19 O          -2.8667    0.5450    2.3503 O.2     1  UNL1       -0.1528
     20 N          -2.9556    1.1973   -0.1721 N.3     1  UNL1       -0.1720
     21 C          -2.5615    2.1525   -1.1629 C.3     1  UNL1        0.0248
     22 C          -3.1875    1.8904   -2.4824 C.3     1  UNL1       -0.0129
     23 C          -4.3407    0.9663   -2.4705 C.ar    1  UNL1       -0.0416
     24 C          -4.8284    0.3743   -3.6122 C.ar    1  UNL1       -0.0582
     25 C          -5.9093   -0.4819   -3.5682 C.ar    1  UNL1       -0.0615
     26 C          -6.5455   -0.7797   -2.3770 C.ar    1  UNL1       -0.0614
     27 C          -6.0417   -0.1765   -1.2445 C.ar    1  UNL1       -0.0570
     28 C          -4.9575    0.6842   -1.2778 C.ar    1  UNL1       -0.0285
     29 C          -4.4195    1.3264   -0.0525 C.3     1  UNL1        0.0458
     30 C           0.1563    0.4455    1.7079 C.ar    1  UNL1       -0.0232
     31 H           4.2656    0.1707    1.9081 H       1  UNL1        0.1490
     32 H           5.5862   -1.6593    2.4483 H       1  UNL1        0.0465
     33 H           4.1861   -2.2201    3.4085 H       1  UNL1        0.0465
     34 H           3.2406   -3.3768    1.4352 H       1  UNL1        0.0328
     35 H           4.9293   -3.8316    1.7161 H       1  UNL1        0.0328
     36 H           2.7171   -1.8759   -0.5709 H       1  UNL1        0.0635
     37 H           3.4426   -1.2779   -2.8413 H       1  UNL1        0.0829
     38 H           7.3285   -2.5919   -2.0989 H       1  UNL1        0.0829
     39 H           6.6654   -3.2176    0.2072 H       1  UNL1        0.0635
     40 H           3.2073    1.7858    1.4733 H       1  UNL1        0.0625
     41 H           1.9233    3.7751    0.9664 H       1  UNL1        0.0618
     42 H          -0.5188    3.6566    0.9276 H       1  UNL1        0.0637
     43 H          -1.4535    2.2138   -1.2622 H       1  UNL1        0.0447
     44 H          -2.8945    3.1755   -0.8305 H       1  UNL1        0.0447
     45 H          -2.3974    1.4995   -3.1851 H       1  UNL1        0.0326
     46 H          -3.5736    2.8361   -2.9695 H       1  UNL1        0.0326
     47 H          -4.3748    0.5679   -4.5665 H       1  UNL1        0.0620
     48 H          -6.2833   -0.9406   -4.4709 H       1  UNL1        0.0618
     49 H          -7.3947   -1.4452   -2.3023 H       1  UNL1        0.0618
     50 H          -6.4987   -0.3714   -0.2838 H       1  UNL1        0.0621
     51 H          -4.7928    0.8716    0.8728 H       1  UNL1        0.0493
     52 H          -4.6408    2.4301   -0.1130 H       1  UNL1        0.0493
     53 H          -0.3505   -0.4926    1.9165 H       1  UNL1        0.0644
@<TRIPOS>BOND
     1     1     2    2
     2     2     3   am
     3     3     4    1
     4     4     5    1
     5     5     6    1
     6     6     7   ar
     7     7     8   ar
     8     8     9   ar
     9     9    10   ar
    10    10    11   ar
    11     2    12    1
    12    12    13   ar
    13    13    14   ar
    14    14    15   ar
    15    15    16   ar
    16    16    17    1
    17    17    18    2
    18    17    19    2
    19    17    20    1
    20    20    21    1
    21    21    22    1
    22    22    23    1
    23    23    24   ar
    24    24    25   ar
    25    25    26   ar
    26    26    27   ar
    27    27    28   ar
    28    28    29    1
    29    16    30   ar
    30    11     6   ar
    31    30    12   ar
    32    29    20    1
    33    28    23   ar
    34     3    31    1
    35     4    32    1
    36     4    33    1
    37     5    34    1
    38     5    35    1
    39     7    36    1
    40     8    37    1
    41    10    38    1
    42    11    39    1
    43    13    40    1
    44    14    41    1
    45    15    42    1
    46    21    43    1
    47    21    44    1
    48    22    45    1
    49    22    46    1
    50    24    47    1
    51    25    48    1
    52    26    49    1
    53    27    50    1
    54    29    51    1
    55    29    52    1
    56    30    53    1
