@<TRIPOS>MOLECULE
*****
 35 35 0 0 0
SMALL
GASTEIGER

@<TRIPOS>ATOM
      1 C           3.9862   -0.8249   -0.7578 C.3     1  UNL1       -0.0653
      2 C           2.9207    0.0031   -0.0829 C.3     1  UNL1       -0.0556
      3 C           1.5293   -0.4638   -0.4568 C.3     1  UNL1       -0.0493
      4 C           0.5237    0.4391    0.2779 C.3     1  UNL1       -0.0212
      5 C           0.8363    0.2294    1.7261 C.3     1  UNL1       -0.0610
      6 C          -0.8699    0.1637   -0.1538 C.3     1  UNL1        0.1291
      7 C          -1.9662    0.9650    0.4273 C.3     1  UNL1       -0.0123
      8 C          -2.2109    0.9644    1.8520 C.2     1  UNL1       -0.0897
      9 C          -2.1888    2.1392    2.5279 C.2     1  UNL1       -0.1026
     10 C          -1.1609   -1.3160   -0.0339 C.2     1  UNL1        0.2341
     11 O          -0.6162   -1.8999    0.9615 O.2     1  UNL1       -0.2743
     12 N          -1.9718   -2.0969   -0.9155 N.am    1  UNL1       -0.2667
     13 C          -2.2279   -1.4803   -2.1729 C.2     1  UNL1        0.1429
     14 S          -3.1567   -2.3227   -3.2417 S.2     1  UNL1       -0.0181
     15 N          -1.7617   -0.2248   -2.5808 N.am    1  UNL1       -0.2667
     16 C          -0.9613    0.4811   -1.6368 C.2     1  UNL1        0.2341
     17 O          -0.2505    1.4659   -2.0355 O.2     1  UNL1       -0.2743
     18 H           4.8370   -0.1635   -1.0051 H       1  UNL1        0.0230
     19 H           4.2375   -1.6621   -0.0935 H       1  UNL1        0.0230
     20 H           3.5051   -1.2612   -1.6677 H       1  UNL1        0.0230
     21 H           3.0810   -0.0739    1.0108 H       1  UNL1        0.0263
     22 H           3.0312    1.0906   -0.3129 H       1  UNL1        0.0263
     23 H           1.4263   -1.5130   -0.1127 H       1  UNL1        0.0268
     24 H           1.3716   -0.4720   -1.5462 H       1  UNL1        0.0268
     25 H           0.7446    1.4944    0.0252 H       1  UNL1        0.0313
     26 H           0.0455    0.3919    2.4420 H       1  UNL1        0.0233
     27 H           1.3837   -0.7474    1.9080 H       1  UNL1        0.0233
     28 H           1.6399    0.9805    1.9987 H       1  UNL1        0.0233
     29 H          -1.9009    2.0058    0.0247 H       1  UNL1        0.0322
     30 H          -2.9227    0.5784   -0.0537 H       1  UNL1        0.0322
     31 H          -2.4142    0.0635    2.4181 H       1  UNL1        0.0567
     32 H          -2.2550    2.8038    3.3686 H       1  UNL1        0.0532
     33 H          -1.9904    3.0718    2.0114 H       1  UNL1        0.0532
     34 H          -2.3114   -3.0160   -0.6133 H       1  UNL1        0.1565
     35 H          -1.9620    0.2068   -3.5066 H       1  UNL1        0.1565
@<TRIPOS>BOND
     1     1     2    1
     2     2     3    1
     3     3     4    1
     4     4     5    1
     5     4     6    1
     6     6     7    1
     7     7     8    1
     8     8     9    2
     9     6    10    1
    10    10    11    2
    11    10    12   am
    12    12    13    1
    13    13    14    2
    14    13    15    1
    15    15    16   am
    16    16    17    2
    17    16     6    1
    18     1    18    1
    19     1    19    1
    20     1    20    1
    21     2    21    1
    22     2    22    1
    23     3    23    1
    24     3    24    1
    25     4    25    1
    26     5    26    1
    27     5    27    1
    28     5    28    1
    29     7    29    1
    30     7    30    1
    31     8    31    1
    32     9    32    1
    33     9    33    1
    34    12    34    1
    35    15    35    1
