
     RDKit          3D

 35 35  0  0  0  0  0  0  0  0999 V2000
    3.9862   -0.8249   -0.7578 C   0  0  0  0  0  0  0  0  0  0  0  0
    2.9207    0.0031   -0.0829 C   0  0  0  0  0  0  0  0  0  0  0  0
    1.5293   -0.4638   -0.4568 C   0  0  0  0  0  0  0  0  0  0  0  0
    0.5237    0.4391    0.2779 C   0  0  0  0  0  0  0  0  0  0  0  0
    0.8363    0.2294    1.7261 C   0  0  0  0  0  0  0  0  0  0  0  0
   -0.8699    0.1637   -0.1538 C   0  0  0  0  0  0  0  0  0  0  0  0
   -1.9662    0.9650    0.4273 C   0  0  0  0  0  0  0  0  0  0  0  0
   -2.2109    0.9644    1.8520 C   0  0  0  0  0  0  0  0  0  0  0  0
   -2.1888    2.1392    2.5279 C   0  0  0  0  0  0  0  0  0  0  0  0
   -1.1609   -1.3160   -0.0339 C   0  0  0  0  0  0  0  0  0  0  0  0
   -0.6162   -1.8999    0.9615 O   0  0  0  0  0  0  0  0  0  0  0  0
   -1.9718   -2.0969   -0.9155 N   0  0  0  0  0  0  0  0  0  0  0  0
   -2.2279   -1.4803   -2.1729 C   0  0  0  0  0  0  0  0  0  0  0  0
   -3.1567   -2.3227   -3.2417 S   0  0  0  0  0  0  0  0  0  0  0  0
   -1.7617   -0.2248   -2.5808 N   0  0  0  0  0  0  0  0  0  0  0  0
   -0.9613    0.4811   -1.6368 C   0  0  0  0  0  0  0  0  0  0  0  0
   -0.2505    1.4659   -2.0355 O   0  0  0  0  0  0  0  0  0  0  0  0
    4.8370   -0.1635   -1.0051 H   0  0  0  0  0  0  0  0  0  0  0  0
    4.2375   -1.6621   -0.0935 H   0  0  0  0  0  0  0  0  0  0  0  0
    3.5051   -1.2612   -1.6677 H   0  0  0  0  0  0  0  0  0  0  0  0
    3.0810   -0.0739    1.0108 H   0  0  0  0  0  0  0  0  0  0  0  0
    3.0312    1.0906   -0.3129 H   0  0  0  0  0  0  0  0  0  0  0  0
    1.4263   -1.5130   -0.1127 H   0  0  0  0  0  0  0  0  0  0  0  0
    1.3716   -0.4720   -1.5462 H   0  0  0  0  0  0  0  0  0  0  0  0
    0.7446    1.4944    0.0252 H   0  0  0  0  0  0  0  0  0  0  0  0
    0.0455    0.3919    2.4420 H   0  0  0  0  0  0  0  0  0  0  0  0
    1.3837   -0.7474    1.9080 H   0  0  0  0  0  0  0  0  0  0  0  0
    1.6399    0.9805    1.9987 H   0  0  0  0  0  0  0  0  0  0  0  0
   -1.9009    2.0058    0.0247 H   0  0  0  0  0  0  0  0  0  0  0  0
   -2.9227    0.5784   -0.0537 H   0  0  0  0  0  0  0  0  0  0  0  0
   -2.4142    0.0635    2.4181 H   0  0  0  0  0  0  0  0  0  0  0  0
   -2.2550    2.8038    3.3686 H   0  0  0  0  0  0  0  0  0  0  0  0
   -1.9904    3.0718    2.0114 H   0  0  0  0  0  0  0  0  0  0  0  0
   -2.3114   -3.0160   -0.6133 H   0  0  0  0  0  0  0  0  0  0  0  0
   -1.9620    0.2068   -3.5066 H   0  0  0  0  0  0  0  0  0  0  0  0
  1  2  1  0
  2  3  1  0
  3  4  1  0
  4  5  1  0
  4  6  1  0
  6  7  1  0
  7  8  1  0
  8  9  2  0
  6 10  1  0
 10 11  2  0
 10 12  1  0
 12 13  1  0
 13 14  2  0
 13 15  1  0
 15 16  1  0
 16 17  2  0
 16  6  1  0
  1 18  1  0
  1 19  1  0
  1 20  1  0
  2 21  1  0
  2 22  1  0
  3 23  1  0
  3 24  1  0
  4 25  1  0
  5 26  1  0
  5 27  1  0
  5 28  1  0
  7 29  1  0
  7 30  1  0
  8 31  1  0
  9 32  1  0
  9 33  1  0
 12 34  1  0
 15 35  1  0
M  END
$$$$
