
     RDKit          3D

 48 50  0  0  0  0  0  0  0  0999 V2000
   -1.5954    0.8961   -3.4519 C   0  0  0  0  0  0  0  0  0  0  0  0
   -2.2296    0.3808   -2.2942 O   0  0  0  0  0  0  0  0  0  0  0  0
   -1.4336    0.0669   -1.2022 C   0  0  0  0  0  0  0  0  0  0  0  0
   -0.0639    0.2272   -1.1769 C   0  0  0  0  0  0  0  0  0  0  0  0
    0.6987   -0.0955   -0.0728 C   0  0  0  0  0  0  0  0  0  0  0  0
    2.1463    0.0656   -0.0263 C   0  0  0  0  0  0  0  0  0  0  0  0
    2.8282    0.6214    1.0354 C   0  0  0  0  0  0  0  0  0  0  0  0
    4.1538    0.7609    1.0593 N   0  0  0  0  0  0  0  0  0  0  0  0
    4.7610    1.3606    2.2325 C   0  0  0  0  0  0  0  0  0  0  0  0
    4.8973    0.3497    0.0116 C   0  0  0  0  0  0  0  0  0  0  0  0
    6.1270    0.4881    0.0529 O   0  0  0  0  0  0  0  0  0  0  0  0
    4.3023   -0.2152   -1.0872 C   0  0  0  0  0  0  0  0  0  0  0  0
    5.0769   -0.6268   -2.1413 C   0  0  0  0  0  0  0  0  0  0  0  0
    4.4123   -1.1776   -3.1944 N   0  0  0  0  0  0  0  0  0  0  0  0
    3.0680   -1.3065   -3.1913 C   0  0  0  0  0  0  0  0  0  0  0  0
    2.3037   -0.9011   -2.1528 N   0  0  0  0  0  0  0  0  0  0  0  0
    2.9357   -0.3537   -1.1003 C   0  0  0  0  0  0  0  0  0  0  0  0
    0.0280   -0.5969    1.0343 C   0  0  0  0  0  0  0  0  0  0  0  0
   -1.3429   -0.7714    1.0468 C   0  0  0  0  0  0  0  0  0  0  0  0
   -2.0106   -1.2730    2.1558 O   0  0  0  0  0  0  0  0  0  0  0  0
   -1.2513   -1.6112    3.2986 C   0  0  0  0  0  0  0  0  0  0  0  0
   -2.0733   -0.4333   -0.0879 C   0  0  0  0  0  0  0  0  0  0  0  0
   -3.5228   -0.6188   -0.0660 C   0  0  0  0  0  0  0  0  0  0  0  0
   -4.2756    0.5808    0.0949 N   0  0  0  0  0  0  0  0  0  0  0  0
   -5.6845    0.2366    0.0991 C   0  0  0  0  0  0  0  0  0  0  0  0
   -3.9687    1.1486    1.3954 C   0  0  0  0  0  0  0  0  0  0  0  0
   -1.0629    0.0945   -4.0226 H   0  0  0  0  0  0  0  0  0  0  0  0
   -0.8660    1.6782   -3.2461 H   0  0  0  0  0  0  0  0  0  0  0  0
   -2.3485    1.3130   -4.1664 H   0  0  0  0  0  0  0  0  0  0  0  0
    0.4088    0.6190   -2.0565 H   0  0  0  0  0  0  0  0  0  0  0  0
    2.2516    0.9576    1.8852 H   0  0  0  0  0  0  0  0  0  0  0  0
    5.1814    0.5868    2.9180 H   0  0  0  0  0  0  0  0  0  0  0  0
    4.0128    1.9297    2.8016 H   0  0  0  0  0  0  0  0  0  0  0  0
    5.6192    2.0151    1.9118 H   0  0  0  0  0  0  0  0  0  0  0  0
    6.1553   -0.5338   -2.1666 H   0  0  0  0  0  0  0  0  0  0  0  0
    2.5344   -1.7497   -4.0391 H   0  0  0  0  0  0  0  0  0  0  0  0
    0.6363   -0.8505    1.9032 H   0  0  0  0  0  0  0  0  0  0  0  0
   -0.5442   -0.8281    3.5647 H   0  0  0  0  0  0  0  0  0  0  0  0
   -1.9653   -1.7710    4.1350 H   0  0  0  0  0  0  0  0  0  0  0  0
   -0.7373   -2.5842    3.0703 H   0  0  0  0  0  0  0  0  0  0  0  0
   -3.8088   -1.1363   -1.0281 H   0  0  0  0  0  0  0  0  0  0  0  0
   -3.8402   -1.3272    0.7379 H   0  0  0  0  0  0  0  0  0  0  0  0
   -6.1891    0.5435    1.0425 H   0  0  0  0  0  0  0  0  0  0  0  0
   -6.2060    0.6727   -0.7950 H   0  0  0  0  0  0  0  0  0  0  0  0
   -5.8310   -0.8591    0.0115 H   0  0  0  0  0  0  0  0  0  0  0  0
   -4.1693    0.4467    2.2306 H   0  0  0  0  0  0  0  0  0  0  0  0
   -2.9184    1.5172    1.4474 H   0  0  0  0  0  0  0  0  0  0  0  0
   -4.5997    2.0636    1.5894 H   0  0  0  0  0  0  0  0  0  0  0  0
  1  2  1  0
  2  3  1  0
  3  4  2  0
  4  5  1  0
  5  6  1  0
  6  7  2  0
  7  8  1  0
  8  9  1  0
  8 10  1  0
 10 11  2  0
 10 12  1  0
 12 13  2  0
 13 14  1  0
 14 15  2  0
 15 16  1  0
 16 17  2  0
  5 18  2  0
 18 19  1  0
 19 20  1  0
 20 21  1  0
 19 22  2  0
 22 23  1  0
 23 24  1  0
 24 25  1  0
 24 26  1  0
 22  3  1  0
 17  6  1  0
 17 12  1  0
  1 27  1  0
  1 28  1  0
  1 29  1  0
  4 30  1  0
  7 31  1  0
  9 32  1  0
  9 33  1  0
  9 34  1  0
 13 35  1  0
 15 36  1  0
 18 37  1  0
 21 38  1  0
 21 39  1  0
 21 40  1  0
 23 41  1  0
 23 42  1  0
 25 43  1  0
 25 44  1  0
 25 45  1  0
 26 46  1  0
 26 47  1  0
 26 48  1  0
M  END
$$$$
