@<TRIPOS>MOLECULE
*****
 48 50 0 0 0
SMALL
GASTEIGER

@<TRIPOS>ATOM
      1 C          -1.5954    0.8961   -3.4519 C.3     1  UNL1        0.0788
      2 O          -2.2296    0.3808   -2.2942 O.3     1  UNL1       -0.4947
      3 C          -1.4336    0.0669   -1.2022 C.ar    1  UNL1        0.1286
      4 C          -0.0639    0.2272   -1.1769 C.ar    1  UNL1       -0.0116
      5 C           0.6987   -0.0955   -0.0728 C.ar    1  UNL1       -0.0075
      6 C           2.1463    0.0656   -0.0263 C.ar    1  UNL1        0.0247
      7 C           2.8282    0.6214    1.0354 C.ar    1  UNL1        0.0174
      8 N           4.1538    0.7609    1.0593 N.ar    1  UNL1       -0.3170
      9 C           4.7610    1.3606    2.2325 C.3     1  UNL1        0.0147
     10 C           4.8973    0.3497    0.0116 C.ar    1  UNL1        0.2618
     11 O           6.1270    0.4881    0.0529 O.2     1  UNL1       -0.2669
     12 C           4.3023   -0.2152   -1.0872 C.ar    1  UNL1        0.0835
     13 C           5.0769   -0.6268   -2.1413 C.ar    1  UNL1        0.0437
     14 N           4.4123   -1.1776   -3.1944 N.ar    1  UNL1       -0.2429
     15 C           3.0680   -1.3065   -3.1913 C.ar    1  UNL1        0.1166
     16 N           2.3037   -0.9011   -2.1528 N.ar    1  UNL1       -0.2346
     17 C           2.9357   -0.3537   -1.1003 C.ar    1  UNL1        0.0884
     18 C           0.0280   -0.5969    1.0343 C.ar    1  UNL1       -0.0116
     19 C          -1.3429   -0.7714    1.0468 C.ar    1  UNL1        0.1286
     20 O          -2.0106   -1.2730    2.1558 O.3     1  UNL1       -0.4947
     21 C          -1.2513   -1.6112    3.2986 C.3     1  UNL1        0.0788
     22 C          -2.0733   -0.4333   -0.0879 C.ar    1  UNL1        0.0497
     23 C          -3.5228   -0.6188   -0.0660 C.3     1  UNL1        0.0304
     24 N          -4.2756    0.5808    0.0949 N.3     1  UNL1       -0.3039
     25 C          -5.6845    0.2366    0.0991 C.3     1  UNL1       -0.0127
     26 C          -3.9687    1.1486    1.3954 C.3     1  UNL1       -0.0127
     27 H          -1.0629    0.0945   -4.0226 H       1  UNL1        0.0660
     28 H          -0.8660    1.6782   -3.2461 H       1  UNL1        0.0660
     29 H          -2.3485    1.3130   -4.1664 H       1  UNL1        0.0660
     30 H           0.4088    0.6190   -2.0565 H       1  UNL1        0.0660
     31 H           2.2516    0.9576    1.8852 H       1  UNL1        0.0817
     32 H           5.1814    0.5868    2.9180 H       1  UNL1        0.0457
     33 H           4.0128    1.9297    2.8016 H       1  UNL1        0.0457
     34 H           5.6192    2.0151    1.9118 H       1  UNL1        0.0457
     35 H           6.1553   -0.5338   -2.1666 H       1  UNL1        0.0838
     36 H           2.5344   -1.7497   -4.0391 H       1  UNL1        0.1047
     37 H           0.6363   -0.8505    1.9032 H       1  UNL1        0.0660
     38 H          -0.5442   -0.8281    3.5647 H       1  UNL1        0.0660
     39 H          -1.9653   -1.7710    4.1350 H       1  UNL1        0.0660
     40 H          -0.7373   -2.5842    3.0703 H       1  UNL1        0.0660
     41 H          -3.8088   -1.1363   -1.0281 H       1  UNL1        0.0478
     42 H          -3.8402   -1.3272    0.7379 H       1  UNL1        0.0478
     43 H          -6.1891    0.5435    1.0425 H       1  UNL1        0.0391
     44 H          -6.2060    0.6727   -0.7950 H       1  UNL1        0.0391
     45 H          -5.8310   -0.8591    0.0115 H       1  UNL1        0.0391
     46 H          -4.1693    0.4467    2.2306 H       1  UNL1        0.0391
     47 H          -2.9184    1.5172    1.4474 H       1  UNL1        0.0391
     48 H          -4.5997    2.0636    1.5894 H       1  UNL1        0.0391
@<TRIPOS>BOND
     1     1     2    1
     2     2     3    1
     3     3     4   ar
     4     4     5   ar
     5     5     6    1
     6     6     7   ar
     7     7     8   ar
     8     8     9    1
     9     8    10   ar
    10    10    11    2
    11    10    12   ar
    12    12    13   ar
    13    13    14   ar
    14    14    15   ar
    15    15    16   ar
    16    16    17   ar
    17     5    18   ar
    18    18    19   ar
    19    19    20    1
    20    20    21    1
    21    19    22   ar
    22    22    23    1
    23    23    24    1
    24    24    25    1
    25    24    26    1
    26    22     3   ar
    27    17     6   ar
    28    17    12   ar
    29     1    27    1
    30     1    28    1
    31     1    29    1
    32     4    30    1
    33     7    31    1
    34     9    32    1
    35     9    33    1
    36     9    34    1
    37    13    35    1
    38    15    36    1
    39    18    37    1
    40    21    38    1
    41    21    39    1
    42    21    40    1
    43    23    41    1
    44    23    42    1
    45    25    43    1
    46    25    44    1
    47    25    45    1
    48    26    46    1
    49    26    47    1
    50    26    48    1
