@<TRIPOS>MOLECULE
*****
 57 60 0 0 0
SMALL
GASTEIGER

@<TRIPOS>ATOM
      1 C           7.1626   -1.5082   -3.7742 C.2     1  UNL1       -0.0938
      2 C           6.1820   -1.8182   -2.9312 C.2     1  UNL1       -0.0066
      3 C           6.1736   -1.1767   -1.6268 C.2     1  UNL1        0.2406
      4 O           7.0579   -0.3523   -1.2923 O.2     1  UNL1       -0.2705
      5 N           5.1640   -1.4370   -0.6364 N.am    1  UNL1       -0.2804
      6 C           5.1992   -0.7844    0.6227 C.ar    1  UNL1        0.0553
      7 C           5.8726   -1.3002    1.7061 C.ar    1  UNL1       -0.0386
      8 C           5.8918   -0.6327    2.9336 C.ar    1  UNL1       -0.0596
      9 C           5.2230    0.5629    3.0543 C.ar    1  UNL1       -0.0570
     10 C           4.5359    1.1030    1.9731 C.ar    1  UNL1       -0.0274
     11 C           3.8245    2.3990    2.1479 C.3     1  UNL1       -0.0379
     12 C           4.5500    0.4081    0.7971 C.ar    1  UNL1        0.0580
     13 N           3.8359    0.9574   -0.3137 N.pl3   1  UNL1       -0.2819
     14 C           2.4609    0.5791   -0.4131 C.ar    1  UNL1        0.2201
     15 N           2.1027   -0.5425   -1.0502 N.ar    1  UNL1       -0.2220
     16 C           0.7839   -0.8721   -1.1214 C.ar    1  UNL1        0.0404
     17 C          -0.1979   -0.0860   -0.5573 C.ar    1  UNL1        0.0192
     18 C          -1.5414   -0.3868   -0.6085 C.ar    1  UNL1       -0.0433
     19 C          -2.4625    0.4527   -0.0183 C.ar    1  UNL1       -0.0141
     20 C          -3.8714    0.1346   -0.0663 C.ar    1  UNL1        0.0259
     21 C          -4.4190   -0.6088    0.9555 C.ar    1  UNL1        0.0918
     22 CL         -3.4247   -1.1678    2.3131 Cl      1  UNL1       -0.0791
     23 C          -5.7627   -0.9067    0.8947 C.ar    1  UNL1        0.1425
     24 O          -6.3313   -1.6541    1.9151 O.3     1  UNL1       -0.4935
     25 C          -7.6745   -2.0262    1.9799 C.3     1  UNL1        0.0789
     26 C          -6.5380   -0.4732   -0.1594 C.ar    1  UNL1        0.0247
     27 C          -5.9978    0.2752   -1.1931 C.ar    1  UNL1        0.1425
     28 O          -6.7535    0.7260   -2.2685 O.3     1  UNL1       -0.4935
     29 C          -8.1315    0.3876   -2.2754 C.3     1  UNL1        0.0789
     30 C          -4.6524    0.5652   -1.1181 C.ar    1  UNL1        0.0918
     31 CL         -3.9678    1.5205   -2.4412 Cl      1  UNL1       -0.0791
     32 C          -2.0596    1.6055    0.6324 C.ar    1  UNL1       -0.0519
     33 C          -0.7122    1.8995    0.6795 C.ar    1  UNL1       -0.0350
     34 C           0.2267    1.0704    0.0941 C.ar    1  UNL1        0.0761
     35 N           1.5412    1.3592    0.1415 N.ar    1  UNL1       -0.2142
     36 H           7.9403   -0.7995   -3.5094 H       1  UNL1        0.0536
     37 H           7.2132   -1.9583   -4.7572 H       1  UNL1        0.0536
     38 H           5.4165   -2.5226   -3.2049 H       1  UNL1        0.0663
     39 H           4.4192   -2.1115   -0.8756 H       1  UNL1        0.1552
     40 H           6.3952   -2.2358    1.6090 H       1  UNL1        0.0637
     41 H           6.4221   -1.0419    3.7821 H       1  UNL1        0.0618
     42 H           5.2234    1.0982    3.9937 H       1  UNL1        0.0621
     43 H           4.4420    3.0301    2.8250 H       1  UNL1        0.0278
     44 H           3.7642    2.9134    1.1750 H       1  UNL1        0.0278
     45 H           2.8318    2.2607    2.6258 H       1  UNL1        0.0278
     46 H           4.2872    1.5922   -1.0067 H       1  UNL1        0.1551
     47 H           0.4980   -1.7874   -1.6420 H       1  UNL1        0.0837
     48 H          -1.8093   -1.3003   -1.1294 H       1  UNL1        0.0631
     49 H          -7.7400   -2.9507    2.6065 H       1  UNL1        0.0660
     50 H          -8.2447   -1.2214    2.4912 H       1  UNL1        0.0660
     51 H          -8.1421   -2.2444    1.0083 H       1  UNL1        0.0660
     52 H          -7.5973   -0.6958   -0.2278 H       1  UNL1        0.0692
     53 H          -8.6900    0.8519   -1.4643 H       1  UNL1        0.0660
     54 H          -8.5144    0.7416   -3.2733 H       1  UNL1        0.0660
     55 H          -8.2443   -0.7320   -2.3102 H       1  UNL1        0.0660
     56 H          -2.7508    2.2922    1.1085 H       1  UNL1        0.0624
     57 H          -0.4101    2.8206    1.2004 H       1  UNL1        0.0639
@<TRIPOS>BOND
     1     1     2    2
     2     2     3    1
     3     3     4    2
     4     3     5   am
     5     5     6    1
     6     6     7   ar
     7     7     8   ar
     8     8     9   ar
     9     9    10   ar
    10    10    11    1
    11    10    12   ar
    12    12    13    1
    13    13    14    1
    14    14    15   ar
    15    15    16   ar
    16    16    17   ar
    17    17    18   ar
    18    18    19   ar
    19    19    20    1
    20    20    21   ar
    21    21    22    1
    22    21    23   ar
    23    23    24    1
    24    24    25    1
    25    23    26   ar
    26    26    27   ar
    27    27    28    1
    28    28    29    1
    29    27    30   ar
    30    30    31    1
    31    19    32   ar
    32    32    33   ar
    33    33    34   ar
    34    34    35   ar
    35    12     6   ar
    36    35    14   ar
    37    34    17   ar
    38    30    20   ar
    39     1    36    1
    40     1    37    1
    41     2    38    1
    42     5    39    1
    43     7    40    1
    44     8    41    1
    45     9    42    1
    46    11    43    1
    47    11    44    1
    48    11    45    1
    49    13    46    1
    50    16    47    1
    51    18    48    1
    52    25    49    1
    53    25    50    1
    54    25    51    1
    55    26    52    1
    56    29    53    1
    57    29    54    1
    58    29    55    1
    59    32    56    1
    60    33    57    1
