
     RDKit          3D

 57 60  0  0  0  0  0  0  0  0999 V2000
    7.1626   -1.5082   -3.7742 C   0  0  0  0  0  0  0  0  0  0  0  0
    6.1820   -1.8182   -2.9312 C   0  0  0  0  0  0  0  0  0  0  0  0
    6.1736   -1.1767   -1.6268 C   0  0  0  0  0  0  0  0  0  0  0  0
    7.0579   -0.3523   -1.2923 O   0  0  0  0  0  0  0  0  0  0  0  0
    5.1640   -1.4370   -0.6364 N   0  0  0  0  0  0  0  0  0  0  0  0
    5.1992   -0.7844    0.6227 C   0  0  0  0  0  0  0  0  0  0  0  0
    5.8726   -1.3002    1.7061 C   0  0  0  0  0  0  0  0  0  0  0  0
    5.8918   -0.6327    2.9336 C   0  0  0  0  0  0  0  0  0  0  0  0
    5.2230    0.5629    3.0543 C   0  0  0  0  0  0  0  0  0  0  0  0
    4.5359    1.1030    1.9731 C   0  0  0  0  0  0  0  0  0  0  0  0
    3.8245    2.3990    2.1479 C   0  0  0  0  0  0  0  0  0  0  0  0
    4.5500    0.4081    0.7971 C   0  0  0  0  0  0  0  0  0  0  0  0
    3.8359    0.9574   -0.3137 N   0  0  0  0  0  0  0  0  0  0  0  0
    2.4609    0.5791   -0.4131 C   0  0  0  0  0  0  0  0  0  0  0  0
    2.1027   -0.5425   -1.0502 N   0  0  0  0  0  0  0  0  0  0  0  0
    0.7839   -0.8721   -1.1214 C   0  0  0  0  0  0  0  0  0  0  0  0
   -0.1979   -0.0860   -0.5573 C   0  0  0  0  0  0  0  0  0  0  0  0
   -1.5414   -0.3868   -0.6085 C   0  0  0  0  0  0  0  0  0  0  0  0
   -2.4625    0.4527   -0.0183 C   0  0  0  0  0  0  0  0  0  0  0  0
   -3.8714    0.1346   -0.0663 C   0  0  0  0  0  0  0  0  0  0  0  0
   -4.4190   -0.6088    0.9555 C   0  0  0  0  0  0  0  0  0  0  0  0
   -3.4247   -1.1678    2.3131 Cl  0  0  0  0  0  0  0  0  0  0  0  0
   -5.7627   -0.9067    0.8947 C   0  0  0  0  0  0  0  0  0  0  0  0
   -6.3313   -1.6541    1.9151 O   0  0  0  0  0  0  0  0  0  0  0  0
   -7.6745   -2.0262    1.9799 C   0  0  0  0  0  0  0  0  0  0  0  0
   -6.5380   -0.4732   -0.1594 C   0  0  0  0  0  0  0  0  0  0  0  0
   -5.9978    0.2752   -1.1931 C   0  0  0  0  0  0  0  0  0  0  0  0
   -6.7535    0.7260   -2.2685 O   0  0  0  0  0  0  0  0  0  0  0  0
   -8.1315    0.3876   -2.2754 C   0  0  0  0  0  0  0  0  0  0  0  0
   -4.6524    0.5652   -1.1181 C   0  0  0  0  0  0  0  0  0  0  0  0
   -3.9678    1.5205   -2.4412 Cl  0  0  0  0  0  0  0  0  0  0  0  0
   -2.0596    1.6055    0.6324 C   0  0  0  0  0  0  0  0  0  0  0  0
   -0.7122    1.8995    0.6795 C   0  0  0  0  0  0  0  0  0  0  0  0
    0.2267    1.0704    0.0941 C   0  0  0  0  0  0  0  0  0  0  0  0
    1.5412    1.3592    0.1415 N   0  0  0  0  0  0  0  0  0  0  0  0
    7.9403   -0.7995   -3.5094 H   0  0  0  0  0  0  0  0  0  0  0  0
    7.2132   -1.9583   -4.7572 H   0  0  0  0  0  0  0  0  0  0  0  0
    5.4165   -2.5226   -3.2049 H   0  0  0  0  0  0  0  0  0  0  0  0
    4.4192   -2.1115   -0.8756 H   0  0  0  0  0  0  0  0  0  0  0  0
    6.3952   -2.2358    1.6090 H   0  0  0  0  0  0  0  0  0  0  0  0
    6.4221   -1.0419    3.7821 H   0  0  0  0  0  0  0  0  0  0  0  0
    5.2234    1.0982    3.9937 H   0  0  0  0  0  0  0  0  0  0  0  0
    4.4420    3.0301    2.8250 H   0  0  0  0  0  0  0  0  0  0  0  0
    3.7642    2.9134    1.1750 H   0  0  0  0  0  0  0  0  0  0  0  0
    2.8318    2.2607    2.6258 H   0  0  0  0  0  0  0  0  0  0  0  0
    4.2872    1.5922   -1.0067 H   0  0  0  0  0  0  0  0  0  0  0  0
    0.4980   -1.7874   -1.6420 H   0  0  0  0  0  0  0  0  0  0  0  0
   -1.8093   -1.3003   -1.1294 H   0  0  0  0  0  0  0  0  0  0  0  0
   -7.7400   -2.9507    2.6065 H   0  0  0  0  0  0  0  0  0  0  0  0
   -8.2447   -1.2214    2.4912 H   0  0  0  0  0  0  0  0  0  0  0  0
   -8.1421   -2.2444    1.0083 H   0  0  0  0  0  0  0  0  0  0  0  0
   -7.5973   -0.6958   -0.2278 H   0  0  0  0  0  0  0  0  0  0  0  0
   -8.6900    0.8519   -1.4643 H   0  0  0  0  0  0  0  0  0  0  0  0
   -8.5144    0.7416   -3.2733 H   0  0  0  0  0  0  0  0  0  0  0  0
   -8.2443   -0.7320   -2.3102 H   0  0  0  0  0  0  0  0  0  0  0  0
   -2.7508    2.2922    1.1085 H   0  0  0  0  0  0  0  0  0  0  0  0
   -0.4101    2.8206    1.2004 H   0  0  0  0  0  0  0  0  0  0  0  0
  1  2  2  3
  2  3  1  0
  3  4  2  0
  3  5  1  0
  5  6  1  0
  6  7  2  0
  7  8  1  0
  8  9  2  0
  9 10  1  0
 10 11  1  0
 10 12  2  0
 12 13  1  0
 13 14  1  0
 14 15  2  0
 15 16  1  0
 16 17  2  0
 17 18  1  0
 18 19  2  0
 19 20  1  0
 20 21  2  0
 21 22  1  0
 21 23  1  0
 23 24  1  0
 24 25  1  0
 23 26  2  0
 26 27  1  0
 27 28  1  0
 28 29  1  0
 27 30  2  0
 30 31  1  0
 19 32  1  0
 32 33  2  0
 33 34  1  0
 34 35  2  0
 12  6  1  0
 35 14  1  0
 34 17  1  0
 30 20  1  0
  1 36  1  0
  1 37  1  0
  2 38  1  0
  5 39  1  0
  7 40  1  0
  8 41  1  0
  9 42  1  0
 11 43  1  0
 11 44  1  0
 11 45  1  0
 13 46  1  0
 16 47  1  0
 18 48  1  0
 25 49  1  0
 25 50  1  0
 25 51  1  0
 26 52  1  0
 29 53  1  0
 29 54  1  0
 29 55  1  0
 32 56  1  0
 33 57  1  0
M  END
$$$$
