
     RDKit          3D

 59 63  0  0  0  0  0  0  0  0999 V2000
    8.5076   -0.8922   -0.4533 C   0  0  0  0  0  0  0  0  0  0  0  0
    7.1227   -0.7543   -0.7115 O   0  0  0  0  0  0  0  0  0  0  0  0
    6.2027   -0.9199    0.3115 C   0  0  0  0  0  0  0  0  0  0  0  0
    6.6626   -1.1925    1.4512 O   0  0  0  0  0  0  0  0  0  0  0  0
    4.8262   -0.7799    0.0406 N   0  0  0  0  0  0  0  0  0  0  0  0
    3.8266   -0.9436    1.0771 C   0  0  0  0  0  0  0  0  0  0  0  0
    2.6650   -1.7809    0.6245 C   0  0  0  0  0  0  0  0  0  0  0  0
    2.1048   -1.3709   -0.7028 C   0  0  0  0  0  0  0  0  0  0  0  0
    1.3144   -0.1441   -0.6040 N   0  0  0  0  0  0  0  0  0  0  0  0
    1.7558    1.0960   -0.6295 N   0  0  0  0  0  0  0  0  0  0  0  0
    0.7631    1.9826   -0.5156 C   0  0  0  0  0  0  0  0  0  0  0  0
   -0.4040    1.2770   -0.4085 C   0  0  0  0  0  0  0  0  0  0  0  0
   -1.7259    1.6439   -0.2694 C   0  0  0  0  0  0  0  0  0  0  0  0
   -2.1253    3.0079   -0.2080 N   0  0  0  0  0  0  0  0  0  0  0  0
   -1.6731    3.9304    0.8048 C   0  0  0  0  0  0  0  0  0  0  0  0
   -2.7738    4.9509    1.1262 C   0  0  0  0  0  0  0  0  0  0  0  0
   -4.0103    4.4281    0.8203 O   0  0  0  0  0  0  0  0  0  0  0  0
   -4.1687    4.3218   -0.5382 C   0  0  0  0  0  0  0  0  0  0  0  0
   -3.0509    3.5553   -1.2128 C   0  0  0  0  0  0  0  0  0  0  0  0
   -2.6325    0.6435   -0.1932 N   0  0  0  0  0  0  0  0  0  0  0  0
   -2.2610   -0.6642   -0.2509 C   0  0  0  0  0  0  0  0  0  0  0  0
   -3.2683   -1.7218   -0.1654 C   0  0  0  0  0  0  0  0  0  0  0  0
   -2.9041   -3.0465   -0.2226 C   0  0  0  0  0  0  0  0  0  0  0  0
   -3.8381   -4.0461   -0.1437 C   0  0  0  0  0  0  0  0  0  0  0  0
   -5.1890   -3.7742   -0.0031 C   0  0  0  0  0  0  0  0  0  0  0  0
   -6.1597   -4.7892    0.0793 N   0  0  0  0  0  0  0  0  0  0  0  0
   -5.5517   -2.4390    0.0542 C   0  0  0  0  0  0  0  0  0  0  0  0
   -4.6142   -1.4332   -0.0250 C   0  0  0  0  0  0  0  0  0  0  0  0
   -0.9803   -1.0033   -0.3855 N   0  0  0  0  0  0  0  0  0  0  0  0
   -0.0214   -0.0629   -0.4678 C   0  0  0  0  0  0  0  0  0  0  0  0
    3.1952   -1.2687   -1.7218 C   0  0  0  0  0  0  0  0  0  0  0  0
    4.3785   -0.4691   -1.2799 C   0  0  0  0  0  0  0  0  0  0  0  0
    8.8136   -0.0614    0.2046 H   0  0  0  0  0  0  0  0  0  0  0  0
    9.0749   -0.8839   -1.4053 H   0  0  0  0  0  0  0  0  0  0  0  0
    8.6940   -1.8847    0.0102 H   0  0  0  0  0  0  0  0  0  0  0  0
    3.4503    0.0151    1.4719 H   0  0  0  0  0  0  0  0  0  0  0  0
    4.3179   -1.4734    1.9194 H   0  0  0  0  0  0  0  0  0  0  0  0
    1.9270   -1.8047    1.4298 H   0  0  0  0  0  0  0  0  0  0  0  0
    3.0435   -2.8280    0.5091 H   0  0  0  0  0  0  0  0  0  0  0  0
    1.4316   -2.2143   -1.0379 H   0  0  0  0  0  0  0  0  0  0  0  0
    0.8541    3.0626   -0.5081 H   0  0  0  0  0  0  0  0  0  0  0  0
   -0.8379    4.5174    0.3778 H   0  0  0  0  0  0  0  0  0  0  0  0
   -1.4285    3.4454    1.7585 H   0  0  0  0  0  0  0  0  0  0  0  0
   -2.6353    5.8809    0.5352 H   0  0  0  0  0  0  0  0  0  0  0  0
   -2.7521    5.2391    2.1983 H   0  0  0  0  0  0  0  0  0  0  0  0
   -4.2250    5.3142   -1.0611 H   0  0  0  0  0  0  0  0  0  0  0  0
   -5.1689    3.8440   -0.7159 H   0  0  0  0  0  0  0  0  0  0  0  0
   -2.5041    4.1587   -1.9505 H   0  0  0  0  0  0  0  0  0  0  0  0
   -3.5232    2.7197   -1.7722 H   0  0  0  0  0  0  0  0  0  0  0  0
   -1.8610   -3.3597   -0.3328 H   0  0  0  0  0  0  0  0  0  0  0  0
   -3.5480   -5.0778   -0.1889 H   0  0  0  0  0  0  0  0  0  0  0  0
   -6.9388   -4.6713    0.7509 H   0  0  0  0  0  0  0  0  0  0  0  0
   -6.1489   -5.6583   -0.4932 H   0  0  0  0  0  0  0  0  0  0  0  0
   -6.6008   -2.2131    0.1636 H   0  0  0  0  0  0  0  0  0  0  0  0
   -4.9426   -0.3838    0.0244 H   0  0  0  0  0  0  0  0  0  0  0  0
    2.7588   -0.7347   -2.6164 H   0  0  0  0  0  0  0  0  0  0  0  0
    3.4642   -2.2837   -2.0830 H   0  0  0  0  0  0  0  0  0  0  0  0
    4.1289    0.6113   -1.3132 H   0  0  0  0  0  0  0  0  0  0  0  0
    5.1836   -0.6166   -2.0337 H   0  0  0  0  0  0  0  0  0  0  0  0
  1  2  1  0
  2  3  1  0
  3  4  2  0
  3  5  1  0
  5  6  1  0
  6  7  1  0
  7  8  1  0
  8  9  1  0
  9 10  1  0
 10 11  2  0
 11 12  1  0
 12 13  2  0
 13 14  1  0
 14 15  1  0
 15 16  1  0
 16 17  1  0
 17 18  1  0
 18 19  1  0
 13 20  1  0
 20 21  2  0
 21 22  1  0
 22 23  2  0
 23 24  1  0
 24 25  2  0
 25 26  1  0
 25 27  1  0
 27 28  2  0
 21 29  1  0
 29 30  2  0
  8 31  1  0
 31 32  1  0
 32  5  1  0
 30  9  1  0
 30 12  1  0
 19 14  1  0
 28 22  1  0
  1 33  1  0
  1 34  1  0
  1 35  1  0
  6 36  1  0
  6 37  1  0
  7 38  1  0
  7 39  1  0
  8 40  1  0
 11 41  1  0
 15 42  1  0
 15 43  1  0
 16 44  1  0
 16 45  1  0
 18 46  1  0
 18 47  1  0
 19 48  1  0
 19 49  1  0
 23 50  1  0
 24 51  1  0
 26 52  1  0
 26 53  1  0
 27 54  1  0
 28 55  1  0
 31 56  1  0
 31 57  1  0
 32 58  1  0
 32 59  1  0
M  END
$$$$
