@<TRIPOS>MOLECULE
*****
 59 63 0 0 0
SMALL
GASTEIGER

@<TRIPOS>ATOM
      1 C           8.5076   -0.8922   -0.4533 C.3     1  UNL1        0.0833
      2 O           7.1227   -0.7543   -0.7115 O.3     1  UNL1       -0.4536
      3 C           6.2027   -0.9199    0.3115 C.2     1  UNL1        0.4026
      4 O           6.6626   -1.1925    1.4512 O.2     1  UNL1       -0.2263
      5 N           4.8262   -0.7799    0.0406 N.am    1  UNL1       -0.2673
      6 C           3.8266   -0.9436    1.0771 C.3     1  UNL1        0.0197
      7 C           2.6650   -1.7809    0.6245 C.3     1  UNL1       -0.0144
      8 C           2.1048   -1.3709   -0.7028 C.3     1  UNL1        0.0578
      9 N           1.3144   -0.1441   -0.6040 N.ar    1  UNL1       -0.2431
     10 N           1.7558    1.0960   -0.6295 N.ar    1  UNL1       -0.1768
     11 C           0.7631    1.9826   -0.5156 C.ar    1  UNL1        0.0620
     12 C          -0.4040    1.2770   -0.4085 C.ar    1  UNL1        0.0785
     13 C          -1.7259    1.6439   -0.2694 C.ar    1  UNL1        0.1361
     14 N          -2.1253    3.0079   -0.2080 N.pl3   1  UNL1       -0.3101
     15 C          -1.6731    3.9304    0.8048 C.3     1  UNL1        0.0370
     16 C          -2.7738    4.9509    1.1262 C.3     1  UNL1        0.0634
     17 O          -4.0103    4.4281    0.8203 O.3     1  UNL1       -0.3767
     18 C          -4.1687    4.3218   -0.5382 C.3     1  UNL1        0.0634
     19 C          -3.0509    3.5553   -1.2128 C.3     1  UNL1        0.0370
     20 N          -2.6325    0.6435   -0.1932 N.ar    1  UNL1       -0.2118
     21 C          -2.2610   -0.6642   -0.2509 C.ar    1  UNL1        0.1641
     22 C          -3.2683   -1.7218   -0.1654 C.ar    1  UNL1        0.0194
     23 C          -2.9041   -3.0465   -0.2226 C.ar    1  UNL1       -0.0493
     24 C          -3.8381   -4.0461   -0.1437 C.ar    1  UNL1       -0.0404
     25 C          -5.1890   -3.7742   -0.0031 C.ar    1  UNL1        0.0246
     26 N          -6.1597   -4.7892    0.0793 N.pl3   1  UNL1       -0.3580
     27 C          -5.5517   -2.4390    0.0542 C.ar    1  UNL1       -0.0404
     28 C          -4.6142   -1.4332   -0.0250 C.ar    1  UNL1       -0.0493
     29 N          -0.9803   -1.0033   -0.3855 N.ar    1  UNL1       -0.2080
     30 C          -0.0214   -0.0629   -0.4678 C.ar    1  UNL1        0.1642
     31 C           3.1952   -1.2687   -1.7218 C.3     1  UNL1       -0.0144
     32 C           4.3785   -0.4691   -1.2799 C.3     1  UNL1        0.0197
     33 H           8.8136   -0.0614    0.2046 H       1  UNL1        0.0661
     34 H           9.0749   -0.8839   -1.4053 H       1  UNL1        0.0661
     35 H           8.6940   -1.8847    0.0102 H       1  UNL1        0.0661
     36 H           3.4503    0.0151    1.4719 H       1  UNL1        0.0466
     37 H           4.3179   -1.4734    1.9194 H       1  UNL1        0.0466
     38 H           1.9270   -1.8047    1.4298 H       1  UNL1        0.0301
     39 H           3.0435   -2.8280    0.5091 H       1  UNL1        0.0301
     40 H           1.4316   -2.2143   -1.0379 H       1  UNL1        0.0546
     41 H           0.8541    3.0626   -0.5081 H       1  UNL1        0.0856
     42 H          -0.8379    4.5174    0.3778 H       1  UNL1        0.0487
     43 H          -1.4285    3.4454    1.7585 H       1  UNL1        0.0487
     44 H          -2.6353    5.8809    0.5352 H       1  UNL1        0.0575
     45 H          -2.7521    5.2391    2.1983 H       1  UNL1        0.0575
     46 H          -4.2250    5.3142   -1.0611 H       1  UNL1        0.0575
     47 H          -5.1689    3.8440   -0.7159 H       1  UNL1        0.0575
     48 H          -2.5041    4.1587   -1.9505 H       1  UNL1        0.0487
     49 H          -3.5232    2.7197   -1.7722 H       1  UNL1        0.0487
     50 H          -1.8610   -3.3597   -0.3328 H       1  UNL1        0.0625
     51 H          -3.5480   -5.0778   -0.1889 H       1  UNL1        0.0636
     52 H          -6.9388   -4.6713    0.7509 H       1  UNL1        0.1423
     53 H          -6.1489   -5.6583   -0.4932 H       1  UNL1        0.1423
     54 H          -6.6008   -2.2131    0.1636 H       1  UNL1        0.0636
     55 H          -4.9426   -0.3838    0.0244 H       1  UNL1        0.0625
     56 H           2.7588   -0.7347   -2.6164 H       1  UNL1        0.0301
     57 H           3.4642   -2.2837   -2.0830 H       1  UNL1        0.0301
     58 H           4.1289    0.6113   -1.3132 H       1  UNL1        0.0466
     59 H           5.1836   -0.6166   -2.0337 H       1  UNL1        0.0466
@<TRIPOS>BOND
     1     1     2    1
     2     2     3    1
     3     3     4    2
     4     3     5   am
     5     5     6    1
     6     6     7    1
     7     7     8    1
     8     8     9    1
     9     9    10   ar
    10    10    11   ar
    11    11    12   ar
    12    12    13   ar
    13    13    14    1
    14    14    15    1
    15    15    16    1
    16    16    17    1
    17    17    18    1
    18    18    19    1
    19    13    20   ar
    20    20    21   ar
    21    21    22    1
    22    22    23   ar
    23    23    24   ar
    24    24    25   ar
    25    25    26    1
    26    25    27   ar
    27    27    28   ar
    28    21    29   ar
    29    29    30   ar
    30     8    31    1
    31    31    32    1
    32    32     5    1
    33    30     9   ar
    34    30    12   ar
    35    19    14    1
    36    28    22   ar
    37     1    33    1
    38     1    34    1
    39     1    35    1
    40     6    36    1
    41     6    37    1
    42     7    38    1
    43     7    39    1
    44     8    40    1
    45    11    41    1
    46    15    42    1
    47    15    43    1
    48    16    44    1
    49    16    45    1
    50    18    46    1
    51    18    47    1
    52    19    48    1
    53    19    49    1
    54    23    50    1
    55    24    51    1
    56    26    52    1
    57    26    53    1
    58    27    54    1
    59    28    55    1
    60    31    56    1
    61    31    57    1
    62    32    58    1
    63    32    59    1
