@<TRIPOS>MOLECULE
*****
 56 60 0 0 0
SMALL
GASTEIGER

@<TRIPOS>ATOM
      1 O           2.0142   -0.8669   -1.4763 O.2     1  UNL1       -0.2755
      2 C           2.2677   -0.2176   -0.4519 C.2     1  UNL1        0.2176
      3 C           3.7062   -0.1051   -0.0048 C.3     1  UNL1        0.0311
      4 C           4.5469   -0.8580   -0.9750 C.3     1  UNL1        0.0138
      5 C           5.9817   -0.8320   -0.6593 C.ar    1  UNL1        0.1108
      6 N           6.5065   -0.1960    0.3986 N.ar    1  UNL1       -0.2337
      7 C           7.8378   -0.2192    0.6198 C.ar    1  UNL1        0.0781
      8 C           8.4158    0.4219    1.6956 C.ar    1  UNL1       -0.0355
      9 C           9.7696    0.4194    1.9524 C.ar    1  UNL1       -0.0597
     10 C          10.6182   -0.2639    1.0874 C.ar    1  UNL1       -0.0609
     11 C          10.0606   -0.9112    0.0062 C.ar    1  UNL1       -0.0474
     12 C           8.7101   -0.9005   -0.2375 C.ar    1  UNL1        0.0647
     13 C           8.1335   -1.5401   -1.3109 C.ar    1  UNL1        0.2592
     14 O           8.8726   -2.1673   -2.1124 O.2     1  UNL1       -0.2672
     15 N           6.8045   -1.5026   -1.5101 N.ar    1  UNL1       -0.3103
     16 N           1.2327    0.4024    0.2796 N.am    1  UNL1       -0.2855
     17 C          -0.1393    0.4001    0.0106 C.ar    1  UNL1        0.0334
     18 C          -0.7108   -0.2391   -1.0602 C.ar    1  UNL1       -0.0398
     19 C          -2.0914   -0.2053   -1.2769 C.ar    1  UNL1       -0.0479
     20 C          -2.9516    0.4734   -0.4240 C.ar    1  UNL1        0.0371
     21 C          -4.3784    0.4905   -0.6750 C.2     1  UNL1        0.2483
     22 O          -4.8248   -0.1177   -1.6751 O.2     1  UNL1       -0.2699
     23 N          -5.2817    1.1677    0.1672 N.am    1  UNL1       -0.2797
     24 C          -6.6789    1.2036   -0.0498 C.ar    1  UNL1        0.0598
     25 C          -7.2297    2.2020   -0.8073 C.ar    1  UNL1       -0.0384
     26 C          -8.5827    2.2888   -1.0529 C.ar    1  UNL1       -0.0593
     27 C          -9.3775    1.3155   -0.4979 C.ar    1  UNL1       -0.0524
     28 C          -8.8255    0.2976    0.2732 C.ar    1  UNL1        0.0022
     29 C          -9.6332   -0.6785    0.8283 C.ar    1  UNL1       -0.0511
     30 C          -9.0794   -1.6691    1.5808 C.ar    1  UNL1       -0.0430
     31 C          -7.7157   -1.7186    1.8024 C.ar    1  UNL1        0.0283
     32 N          -6.9423   -0.7683    1.2602 N.ar    1  UNL1       -0.2531
     33 C          -7.4699    0.2228    0.5109 C.ar    1  UNL1        0.0921
     34 C          -2.3482    1.1045    0.6409 C.ar    1  UNL1       -0.0479
     35 C          -0.9887    1.0726    0.8563 C.ar    1  UNL1       -0.0398
     36 H           3.9184    0.9921   -0.0125 H       1  UNL1        0.0363
     37 H           3.8239   -0.4781    1.0383 H       1  UNL1        0.0363
     38 H           4.4138   -0.3980   -1.9787 H       1  UNL1        0.0348
     39 H           4.2212   -1.9206   -0.9564 H       1  UNL1        0.0348
     40 H           7.7328    0.9585    2.3717 H       1  UNL1        0.0639
     41 H          10.1882    0.9411    2.8179 H       1  UNL1        0.0618
     42 H          11.6844   -0.2910    1.2518 H       1  UNL1        0.0618
     43 H          10.7113   -1.4432   -0.6691 H       1  UNL1        0.0626
     44 H           6.3996   -2.0084   -2.3491 H       1  UNL1        0.1700
     45 H           1.5648    0.9325    1.1403 H       1  UNL1        0.1548
     46 H          -0.1443   -0.7984   -1.7905 H       1  UNL1        0.0636
     47 H          -2.5369   -0.7111   -2.1230 H       1  UNL1        0.0626
     48 H          -4.9112    1.6735    0.9990 H       1  UNL1        0.1552
     49 H          -6.5979    2.9647   -1.2410 H       1  UNL1        0.0637
     50 H          -9.0404    3.0574   -1.6408 H       1  UNL1        0.0618
     51 H         -10.4315    1.3508   -0.6671 H       1  UNL1        0.0624
     52 H         -10.6940   -0.6060    0.6326 H       1  UNL1        0.0625
     53 H          -9.6942   -2.4452    2.0260 H       1  UNL1        0.0633
     54 H          -7.2994   -2.5292    2.4131 H       1  UNL1        0.0830
     55 H          -2.9575    1.6654    1.3654 H       1  UNL1        0.0626
     56 H          -0.5799    1.5875    1.7089 H       1  UNL1        0.0636
@<TRIPOS>BOND
     1     1     2    2
     2     2     3    1
     3     3     4    1
     4     4     5    1
     5     5     6   ar
     6     6     7   ar
     7     7     8   ar
     8     8     9   ar
     9     9    10   ar
    10    10    11   ar
    11    11    12   ar
    12    12    13   ar
    13    13    14    2
    14    13    15   ar
    15     2    16   am
    16    16    17    1
    17    17    18   ar
    18    18    19   ar
    19    19    20   ar
    20    20    21    1
    21    21    22    2
    22    21    23   am
    23    23    24    1
    24    24    25   ar
    25    25    26   ar
    26    26    27   ar
    27    27    28   ar
    28    28    29   ar
    29    29    30   ar
    30    30    31   ar
    31    31    32   ar
    32    32    33   ar
    33    20    34   ar
    34    34    35   ar
    35    15     5   ar
    36    35    17   ar
    37    12     7   ar
    38    33    24   ar
    39    33    28   ar
    40     3    36    1
    41     3    37    1
    42     4    38    1
    43     4    39    1
    44     8    40    1
    45     9    41    1
    46    10    42    1
    47    11    43    1
    48    15    44    1
    49    16    45    1
    50    18    46    1
    51    19    47    1
    52    23    48    1
    53    25    49    1
    54    26    50    1
    55    27    51    1
    56    29    52    1
    57    30    53    1
    58    31    54    1
    59    34    55    1
    60    35    56    1
