
     RDKit          3D

 56 60  0  0  0  0  0  0  0  0999 V2000
    2.0142   -0.8669   -1.4763 O   0  0  0  0  0  0  0  0  0  0  0  0
    2.2677   -0.2176   -0.4519 C   0  0  0  0  0  0  0  0  0  0  0  0
    3.7062   -0.1051   -0.0048 C   0  0  0  0  0  0  0  0  0  0  0  0
    4.5469   -0.8580   -0.9750 C   0  0  0  0  0  0  0  0  0  0  0  0
    5.9817   -0.8320   -0.6593 C   0  0  0  0  0  0  0  0  0  0  0  0
    6.5065   -0.1960    0.3986 N   0  0  0  0  0  0  0  0  0  0  0  0
    7.8378   -0.2192    0.6198 C   0  0  0  0  0  0  0  0  0  0  0  0
    8.4158    0.4219    1.6956 C   0  0  0  0  0  0  0  0  0  0  0  0
    9.7696    0.4194    1.9524 C   0  0  0  0  0  0  0  0  0  0  0  0
   10.6182   -0.2639    1.0874 C   0  0  0  0  0  0  0  0  0  0  0  0
   10.0606   -0.9112    0.0062 C   0  0  0  0  0  0  0  0  0  0  0  0
    8.7101   -0.9005   -0.2375 C   0  0  0  0  0  0  0  0  0  0  0  0
    8.1335   -1.5401   -1.3109 C   0  0  0  0  0  0  0  0  0  0  0  0
    8.8726   -2.1673   -2.1124 O   0  0  0  0  0  0  0  0  0  0  0  0
    6.8045   -1.5026   -1.5101 N   0  0  0  0  0  0  0  0  0  0  0  0
    1.2327    0.4024    0.2796 N   0  0  0  0  0  0  0  0  0  0  0  0
   -0.1393    0.4001    0.0106 C   0  0  0  0  0  0  0  0  0  0  0  0
   -0.7108   -0.2391   -1.0602 C   0  0  0  0  0  0  0  0  0  0  0  0
   -2.0914   -0.2053   -1.2769 C   0  0  0  0  0  0  0  0  0  0  0  0
   -2.9516    0.4734   -0.4240 C   0  0  0  0  0  0  0  0  0  0  0  0
   -4.3784    0.4905   -0.6750 C   0  0  0  0  0  0  0  0  0  0  0  0
   -4.8248   -0.1177   -1.6751 O   0  0  0  0  0  0  0  0  0  0  0  0
   -5.2817    1.1677    0.1672 N   0  0  0  0  0  0  0  0  0  0  0  0
   -6.6789    1.2036   -0.0498 C   0  0  0  0  0  0  0  0  0  0  0  0
   -7.2297    2.2020   -0.8073 C   0  0  0  0  0  0  0  0  0  0  0  0
   -8.5827    2.2888   -1.0529 C   0  0  0  0  0  0  0  0  0  0  0  0
   -9.3775    1.3155   -0.4979 C   0  0  0  0  0  0  0  0  0  0  0  0
   -8.8255    0.2976    0.2732 C   0  0  0  0  0  0  0  0  0  0  0  0
   -9.6332   -0.6785    0.8283 C   0  0  0  0  0  0  0  0  0  0  0  0
   -9.0794   -1.6691    1.5808 C   0  0  0  0  0  0  0  0  0  0  0  0
   -7.7157   -1.7186    1.8024 C   0  0  0  0  0  0  0  0  0  0  0  0
   -6.9423   -0.7683    1.2602 N   0  0  0  0  0  0  0  0  0  0  0  0
   -7.4699    0.2228    0.5109 C   0  0  0  0  0  0  0  0  0  0  0  0
   -2.3482    1.1045    0.6409 C   0  0  0  0  0  0  0  0  0  0  0  0
   -0.9887    1.0726    0.8563 C   0  0  0  0  0  0  0  0  0  0  0  0
    3.9184    0.9921   -0.0125 H   0  0  0  0  0  0  0  0  0  0  0  0
    3.8239   -0.4781    1.0383 H   0  0  0  0  0  0  0  0  0  0  0  0
    4.4138   -0.3980   -1.9787 H   0  0  0  0  0  0  0  0  0  0  0  0
    4.2212   -1.9206   -0.9564 H   0  0  0  0  0  0  0  0  0  0  0  0
    7.7328    0.9585    2.3717 H   0  0  0  0  0  0  0  0  0  0  0  0
   10.1882    0.9411    2.8179 H   0  0  0  0  0  0  0  0  0  0  0  0
   11.6844   -0.2910    1.2518 H   0  0  0  0  0  0  0  0  0  0  0  0
   10.7113   -1.4432   -0.6691 H   0  0  0  0  0  0  0  0  0  0  0  0
    6.3996   -2.0084   -2.3491 H   0  0  0  0  0  0  0  0  0  0  0  0
    1.5648    0.9325    1.1403 H   0  0  0  0  0  0  0  0  0  0  0  0
   -0.1443   -0.7984   -1.7905 H   0  0  0  0  0  0  0  0  0  0  0  0
   -2.5369   -0.7111   -2.1230 H   0  0  0  0  0  0  0  0  0  0  0  0
   -4.9112    1.6735    0.9990 H   0  0  0  0  0  0  0  0  0  0  0  0
   -6.5979    2.9647   -1.2410 H   0  0  0  0  0  0  0  0  0  0  0  0
   -9.0404    3.0574   -1.6408 H   0  0  0  0  0  0  0  0  0  0  0  0
  -10.4315    1.3508   -0.6671 H   0  0  0  0  0  0  0  0  0  0  0  0
  -10.6940   -0.6060    0.6326 H   0  0  0  0  0  0  0  0  0  0  0  0
   -9.6942   -2.4452    2.0260 H   0  0  0  0  0  0  0  0  0  0  0  0
   -7.2994   -2.5292    2.4131 H   0  0  0  0  0  0  0  0  0  0  0  0
   -2.9575    1.6654    1.3654 H   0  0  0  0  0  0  0  0  0  0  0  0
   -0.5799    1.5875    1.7089 H   0  0  0  0  0  0  0  0  0  0  0  0
  1  2  2  0
  2  3  1  0
  3  4  1  0
  4  5  1  0
  5  6  2  0
  6  7  1  0
  7  8  2  0
  8  9  1  0
  9 10  2  0
 10 11  1  0
 11 12  2  0
 12 13  1  0
 13 14  2  0
 13 15  1  0
  2 16  1  0
 16 17  1  0
 17 18  2  0
 18 19  1  0
 19 20  2  0
 20 21  1  0
 21 22  2  0
 21 23  1  0
 23 24  1  0
 24 25  2  0
 25 26  1  0
 26 27  2  0
 27 28  1  0
 28 29  2  0
 29 30  1  0
 30 31  2  0
 31 32  1  0
 32 33  2  0
 20 34  1  0
 34 35  2  0
 15  5  1  0
 35 17  1  0
 12  7  1  0
 33 24  1  0
 33 28  1  0
  3 36  1  0
  3 37  1  0
  4 38  1  0
  4 39  1  0
  8 40  1  0
  9 41  1  0
 10 42  1  0
 11 43  1  0
 15 44  1  0
 16 45  1  0
 18 46  1  0
 19 47  1  0
 23 48  1  0
 25 49  1  0
 26 50  1  0
 27 51  1  0
 29 52  1  0
 30 53  1  0
 31 54  1  0
 34 55  1  0
 35 56  1  0
M  END
$$$$
