
     RDKit          3D

 38 41  0  0  0  0  0  0  0  0999 V2000
    1.5953    4.7494    0.6520 F   0  0  0  0  0  0  0  0  0  0  0  0
    0.5524    3.8770    0.4613 C   0  0  0  0  0  0  0  0  0  0  0  0
    0.7014    3.0915   -0.8437 C   0  0  0  0  0  0  0  0  0  0  0  0
   -0.4584    2.1970   -0.9436 N   0  0  0  0  0  0  0  0  0  0  0  0
   -1.6134    2.5374   -1.5217 C   0  0  0  0  0  0  0  0  0  0  0  0
   -2.4291    1.4894   -1.4206 N   0  0  0  0  0  0  0  0  0  0  0  0
   -1.7807    0.4811   -0.7733 C   0  0  0  0  0  0  0  0  0  0  0  0
   -2.3006   -0.8368   -0.4529 C   0  0  0  0  0  0  0  0  0  0  0  0
   -2.5427   -1.7616   -1.4457 C   0  0  0  0  0  0  0  0  0  0  0  0
   -3.0459   -3.0315   -1.1479 C   0  0  0  0  0  0  0  0  0  0  0  0
   -3.3090   -3.3784    0.1621 C   0  0  0  0  0  0  0  0  0  0  0  0
   -3.8006   -4.6119    0.4935 F   0  0  0  0  0  0  0  0  0  0  0  0
   -3.0752   -2.4764    1.1575 C   0  0  0  0  0  0  0  0  0  0  0  0
   -3.4136   -2.9261    2.8253 Cl  0  0  0  0  0  0  0  0  0  0  0  0
   -2.5760   -1.2207    0.8401 C   0  0  0  0  0  0  0  0  0  0  0  0
   -0.5127    0.9398   -0.4676 C   0  0  0  0  0  0  0  0  0  0  0  0
    0.5808    0.2662    0.2170 C   0  0  0  0  0  0  0  0  0  0  0  0
    0.5923   -0.0432    1.5476 C   0  0  0  0  0  0  0  0  0  0  0  0
    1.6764   -0.6928    2.0681 C   0  0  0  0  0  0  0  0  0  0  0  0
    2.7586   -1.0389    1.2616 C   0  0  0  0  0  0  0  0  0  0  0  0
    3.9257   -1.6617    1.4876 N   0  0  0  0  0  0  0  0  0  0  0  0
    4.6373   -1.7496    0.3475 C   0  0  0  0  0  0  0  0  0  0  0  0
    3.8803   -1.1567   -0.6275 C   0  0  0  0  0  0  0  0  0  0  0  0
    2.7268   -0.7226   -0.0548 N   0  0  0  0  0  0  0  0  0  0  0  0
    1.6831   -0.0910   -0.5839 C   0  0  0  0  0  0  0  0  0  0  0  0
    0.5499    3.1178    1.2749 H   0  0  0  0  0  0  0  0  0  0  0  0
   -0.3996    4.4709    0.4379 H   0  0  0  0  0  0  0  0  0  0  0  0
    0.7048    3.8090   -1.6655 H   0  0  0  0  0  0  0  0  0  0  0  0
    1.6072    2.4773   -0.7414 H   0  0  0  0  0  0  0  0  0  0  0  0
   -1.8633    3.5003   -1.9987 H   0  0  0  0  0  0  0  0  0  0  0  0
   -2.3316   -1.4724   -2.4515 H   0  0  0  0  0  0  0  0  0  0  0  0
   -3.2382   -3.7613   -1.9228 H   0  0  0  0  0  0  0  0  0  0  0  0
   -2.4131   -0.5503    1.6412 H   0  0  0  0  0  0  0  0  0  0  0  0
   -0.2222    0.2192    2.1737 H   0  0  0  0  0  0  0  0  0  0  0  0
    1.7378   -0.9576    3.1017 H   0  0  0  0  0  0  0  0  0  0  0  0
    5.6139   -2.2028    0.2382 H   0  0  0  0  0  0  0  0  0  0  0  0
    4.1204   -1.0317   -1.6855 H   0  0  0  0  0  0  0  0  0  0  0  0
    1.6814    0.1526   -1.6402 H   0  0  0  0  0  0  0  0  0  0  0  0
  1  2  1  0
  2  3  1  0
  3  4  1  0
  4  5  1  0
  5  6  2  0
  6  7  1  0
  7  8  1  0
  8  9  2  0
  9 10  1  0
 10 11  2  0
 11 12  1  0
 11 13  1  0
 13 14  1  0
 13 15  2  0
  7 16  2  0
 16 17  1  0
 17 18  1  0
 18 19  2  0
 19 20  1  0
 20 21  2  0
 21 22  1  0
 22 23  2  0
 23 24  1  0
 24 25  1  0
 16  4  1  0
 25 17  2  0
 15  8  1  0
 24 20  1  0
  2 26  1  0
  2 27  1  0
  3 28  1  0
  3 29  1  0
  5 30  1  0
  9 31  1  0
 10 32  1  0
 15 33  1  0
 18 34  1  0
 19 35  1  0
 22 36  1  0
 23 37  1  0
 25 38  1  0
M  END
$$$$
