@<TRIPOS>MOLECULE
*****
 38 41 0 0 0
SMALL
GASTEIGER

@<TRIPOS>ATOM
      1 F           1.5953    4.7494    0.6520 F       1  UNL1       -0.2472
      2 C           0.5524    3.8770    0.4613 C.3     1  UNL1        0.1080
      3 C           0.7014    3.0915   -0.8437 C.3     1  UNL1        0.0530
      4 N          -0.4584    2.1970   -0.9436 N.ar    1  UNL1       -0.3271
      5 C          -1.6134    2.5374   -1.5217 C.ar    1  UNL1        0.0972
      6 N          -2.4291    1.4894   -1.4206 N.ar    1  UNL1       -0.2351
      7 C          -1.7807    0.4811   -0.7733 C.ar    1  UNL1        0.0968
      8 C          -2.3006   -0.8368   -0.4529 C.ar    1  UNL1        0.0040
      9 C          -2.5427   -1.7616   -1.4457 C.ar    1  UNL1       -0.0497
     10 C          -3.0459   -3.0315   -1.1479 C.ar    1  UNL1       -0.0244
     11 C          -3.3090   -3.3784    0.1621 C.ar    1  UNL1        0.1417
     12 F          -3.8006   -4.6119    0.4935 F       1  UNL1       -0.2040
     13 C          -3.0752   -2.4764    1.1575 C.ar    1  UNL1        0.0767
     14 CL         -3.4136   -2.9261    2.8253 Cl      1  UNL1       -0.0806
     15 C          -2.5760   -1.2207    0.8401 C.ar    1  UNL1       -0.0313
     16 C          -0.5127    0.9398   -0.4676 C.ar    1  UNL1        0.0779
     17 C           0.5808    0.2662    0.2170 C.ar    1  UNL1        0.0172
     18 C           0.5923   -0.0432    1.5476 C.ar    1  UNL1       -0.0477
     19 C           1.6764   -0.6928    2.0681 C.ar    1  UNL1       -0.0182
     20 C           2.7586   -1.0389    1.2616 C.ar    1  UNL1        0.1375
     21 N           3.9257   -1.6617    1.4876 N.ar    1  UNL1       -0.2361
     22 C           4.6373   -1.7496    0.3475 C.ar    1  UNL1        0.0464
     23 C           3.8803   -1.1567   -0.6275 C.ar    1  UNL1        0.0293
     24 N           2.7268   -0.7226   -0.0548 N.ar    1  UNL1       -0.3060
     25 C           1.6831   -0.0910   -0.5839 C.ar    1  UNL1        0.0204
     26 H           0.5499    3.1178    1.2749 H       1  UNL1        0.0633
     27 H          -0.3996    4.4709    0.4379 H       1  UNL1        0.0633
     28 H           0.7048    3.8090   -1.6655 H       1  UNL1        0.0518
     29 H           1.6072    2.4773   -0.7414 H       1  UNL1        0.0518
     30 H          -1.8633    3.5003   -1.9987 H       1  UNL1        0.1029
     31 H          -2.3316   -1.4724   -2.4515 H       1  UNL1        0.0625
     32 H          -3.2382   -3.7613   -1.9228 H       1  UNL1        0.0647
     33 H          -2.4131   -0.5503    1.6412 H       1  UNL1        0.0640
     34 H          -0.2222    0.2192    2.1737 H       1  UNL1        0.0626
     35 H           1.7378   -0.9576    3.1017 H       1  UNL1        0.0654
     36 H           5.6139   -2.2028    0.2382 H       1  UNL1        0.0845
     37 H           4.1204   -1.0317   -1.6855 H       1  UNL1        0.0829
     38 H           1.6814    0.1526   -1.6402 H       1  UNL1        0.0820
@<TRIPOS>BOND
     1     1     2    1
     2     2     3    1
     3     3     4    1
     4     4     5   ar
     5     5     6   ar
     6     6     7   ar
     7     7     8    1
     8     8     9   ar
     9     9    10   ar
    10    10    11   ar
    11    11    12    1
    12    11    13   ar
    13    13    14    1
    14    13    15   ar
    15     7    16   ar
    16    16    17    1
    17    17    18   ar
    18    18    19   ar
    19    19    20   ar
    20    20    21   ar
    21    21    22   ar
    22    22    23   ar
    23    23    24   ar
    24    24    25   ar
    25    16     4   ar
    26    25    17   ar
    27    15     8   ar
    28    24    20   ar
    29     2    26    1
    30     2    27    1
    31     3    28    1
    32     3    29    1
    33     5    30    1
    34     9    31    1
    35    10    32    1
    36    15    33    1
    37    18    34    1
    38    19    35    1
    39    22    36    1
    40    23    37    1
    41    25    38    1
