
     RDKit          3D

 32 33  0  0  0  0  0  0  0  0999 V2000
   -2.6399    0.7601    0.2774 C   0  0  1  0  0  0  0  0  0  0  0  0
   -3.6974    1.3706   -0.6443 C   0  0  0  0  0  0  0  0  0  0  0  0
   -2.1305   -0.4455   -0.4098 C   0  0  0  0  0  0  0  0  0  0  0  0
   -0.9651   -1.1415    0.1699 C   0  0  2  0  0  0  0  0  0  0  0  0
   -1.1912   -1.4004    1.5829 N   0  0  0  0  0  0  0  0  0  0  0  0
   -0.0808   -2.0801    2.1976 C   0  0  0  0  0  0  0  0  0  0  0  0
    0.3123   -0.3987    0.0082 C   0  0  0  0  0  0  0  0  0  0  0  0
    0.1224    0.9882    0.1105 C   0  0  0  0  0  0  0  0  0  0  0  0
    1.6908    1.7777   -0.1039 S   0  0  0  0  0  0  0  0  0  0  0  0
    2.5650    0.1188   -0.3313 C   0  0  0  0  0  0  0  0  0  0  0  0
    1.5924   -0.8038   -0.2206 C   0  0  0  0  0  0  0  0  0  0  0  0
    4.2762    0.0213   -0.6144 S   0  0  0  0  0  0  0  0  0  0  0  0
    4.6810    0.8854   -2.0784 N   0  0  0  0  0  0  0  0  0  0  0  0
    5.1071    0.5142    0.5082 O   0  0  0  0  0  0  0  0  0  0  0  0
    4.5783   -1.4184   -0.9088 O   0  0  0  0  0  0  0  0  0  0  0  0
   -1.3318    1.9523    0.3984 S   0  0  0  0  0  0  0  0  0  0  0  0
   -1.4326    2.9779   -0.6931 O   0  0  0  0  0  0  0  0  0  0  0  0
   -1.2850    2.5853    1.7564 O   0  0  0  0  0  0  0  0  0  0  0  0
   -3.0594    0.5747    1.2866 H   0  0  0  0  0  0  0  0  0  0  0  0
   -3.3152    2.2667   -1.1839 H   0  0  0  0  0  0  0  0  0  0  0  0
   -4.5478    1.6822    0.0060 H   0  0  0  0  0  0  0  0  0  0  0  0
   -4.0256    0.6594   -1.4309 H   0  0  0  0  0  0  0  0  0  0  0  0
   -1.9256   -0.1406   -1.4630 H   0  0  0  0  0  0  0  0  0  0  0  0
   -2.9717   -1.1687   -0.4873 H   0  0  0  0  0  0  0  0  0  0  0  0
   -0.9191   -2.1406   -0.3171 H   0  0  0  0  0  0  0  0  0  0  0  0
   -2.0611   -1.9277    1.7376 H   0  0  0  0  0  0  0  0  0  0  0  0
    0.7966   -1.4241    2.2288 H   0  0  0  0  0  0  0  0  0  0  0  0
    0.1295   -3.0664    1.6933 H   0  0  0  0  0  0  0  0  0  0  0  0
   -0.3768   -2.2954    3.2468 H   0  0  0  0  0  0  0  0  0  0  0  0
    1.8409   -1.8487   -0.3146 H   0  0  0  0  0  0  0  0  0  0  0  0
    4.6101    1.9207   -1.8777 H   0  0  0  0  0  0  0  0  0  0  0  0
    5.6541    0.6448   -2.3756 H   0  0  0  0  0  0  0  0  0  0  0  0
  1  2  1  0
  1  3  1  0
  3  4  1  0
  4  5  1  0
  5  6  1  0
  4  7  1  0
  7  8  2  0
  8  9  1  0
  9 10  1  0
 10 11  2  0
 10 12  1  0
 12 13  1  0
 12 14  2  0
 12 15  2  0
  8 16  1  0
 16 17  2  0
 16 18  2  0
 16  1  1  0
 11  7  1  0
  1 19  1  1
  2 20  1  0
  2 21  1  0
  2 22  1  0
  3 23  1  0
  3 24  1  0
  4 25  1  6
  5 26  1  0
  6 27  1  0
  6 28  1  0
  6 29  1  0
 11 30  1  0
 13 31  1  0
 13 32  1  0
M  END
$$$$
