@<TRIPOS>MOLECULE
*****
 32 33 0 0 0
SMALL
GASTEIGER

@<TRIPOS>ATOM
      1 C          -2.6399    0.7601    0.2774 C.3     1  UNL1        0.0815
      2 C          -3.6974    1.3706   -0.6443 C.3     1  UNL1       -0.0424
      3 C          -2.1305   -0.4455   -0.4098 C.3     1  UNL1       -0.0109
      4 C          -0.9651   -1.1415    0.1699 C.3     1  UNL1        0.0367
      5 N          -1.1912   -1.4004    1.5829 N.3     1  UNL1       -0.3122
      6 C          -0.0808   -2.0801    2.1976 C.3     1  UNL1       -0.0152
      7 C           0.3123   -0.3987    0.0082 C.ar    1  UNL1        0.0035
      8 C           0.1224    0.9882    0.1105 C.ar    1  UNL1        0.1321
      9 S           1.6908    1.7777   -0.1039 S.2     1  UNL1       -0.0499
     10 C           2.5650    0.1188   -0.3313 C.ar    1  UNL1        0.1442
     11 C           1.5924   -0.8038   -0.2206 C.ar    1  UNL1       -0.0215
     12 S           4.2762    0.0213   -0.6144 S.O2    1  UNL1        0.0623
     13 N           4.6810    0.8854   -2.0784 N.3     1  UNL1       -0.2030
     14 O           5.1071    0.5142    0.5082 O.2     1  UNL1       -0.1527
     15 O           4.5783   -1.4184   -0.9088 O.2     1  UNL1       -0.1527
     16 S          -1.3318    1.9523    0.3984 S.O2    1  UNL1        0.0061
     17 O          -1.4326    2.9779   -0.6931 O.2     1  UNL1       -0.1686
     18 O          -1.2850    2.5853    1.7564 O.2     1  UNL1       -0.1686
     19 H          -3.0594    0.5747    1.2866 H       1  UNL1        0.0538
     20 H          -3.3152    2.2667   -1.1839 H       1  UNL1        0.0248
     21 H          -4.5478    1.6822    0.0060 H       1  UNL1        0.0248
     22 H          -4.0256    0.6594   -1.4309 H       1  UNL1        0.0248
     23 H          -1.9256   -0.1406   -1.4630 H       1  UNL1        0.0302
     24 H          -2.9717   -1.1687   -0.4873 H       1  UNL1        0.0302
     25 H          -0.9191   -2.1406   -0.3171 H       1  UNL1        0.0511
     26 H          -2.0611   -1.9277    1.7376 H       1  UNL1        0.1222
     27 H           0.7966   -1.4241    2.2288 H       1  UNL1        0.0388
     28 H           0.1295   -3.0664    1.6933 H       1  UNL1        0.0388
     29 H          -0.3768   -2.2954    3.2468 H       1  UNL1        0.0388
     30 H           1.8409   -1.8487   -0.3146 H       1  UNL1        0.0646
     31 H           4.6101    1.9207   -1.8777 H       1  UNL1        0.1443
     32 H           5.6541    0.6448   -2.3756 H       1  UNL1        0.1443
@<TRIPOS>BOND
     1     1     2    1
     2     1     3    1
     3     3     4    1
     4     4     5    1
     5     5     6    1
     6     4     7    1
     7     7     8   ar
     8     8     9   ar
     9     9    10   ar
    10    10    11   ar
    11    10    12    1
    12    12    13    1
    13    12    14    2
    14    12    15    2
    15     8    16    1
    16    16    17    2
    17    16    18    2
    18    16     1    1
    19    11     7   ar
    20     1    19    1
    21     2    20    1
    22     2    21    1
    23     2    22    1
    24     3    23    1
    25     3    24    1
    26     4    25    1
    27     5    26    1
    28     6    27    1
    29     6    28    1
    30     6    29    1
    31    11    30    1
    32    13    31    1
    33    13    32    1
