@<TRIPOS>MOLECULE
*****
 27 28 0 0 0
SMALL
GASTEIGER

@<TRIPOS>ATOM
      1 C          -4.7435   -0.6430   -0.0737 C.3     1  UNL1        0.0140
      2 C          -3.4023   -1.2209   -0.3501 C.2     1  UNL1        0.2317
      3 O          -3.3634   -2.3083   -0.9806 O.2     1  UNL1       -0.2742
      4 N          -2.2305   -0.5557    0.0886 N.am    1  UNL1       -0.1928
      5 C          -2.1789    0.6961    0.8187 C.3     1  UNL1        0.0433
      6 C          -0.8612    1.2410    0.3202 C.3     1  UNL1        0.0094
      7 C          -0.0978    0.0079    0.0330 C.2     1  UNL1        0.0682
      8 C           1.3767   -0.0281   -0.0844 C.ar    1  UNL1       -0.0020
      9 C           2.1383    1.1102    0.0707 C.ar    1  UNL1       -0.0494
     10 C           3.5120    1.0377   -0.0458 C.ar    1  UNL1       -0.0196
     11 C           4.1642   -0.1336   -0.3131 C.ar    1  UNL1        0.1169
     12 O           5.5595   -0.2131   -0.4326 O.3     1  UNL1       -0.5068
     13 C           3.4181   -1.2772   -0.4704 C.ar    1  UNL1       -0.0196
     14 C           2.0377   -1.2095   -0.3542 C.ar    1  UNL1       -0.0494
     15 N          -0.9118   -0.9562   -0.0857 N.2     1  UNL1       -0.1815
     16 H          -4.9250    0.1877   -0.8131 H       1  UNL1        0.0323
     17 H          -4.7628   -0.1394    0.9350 H       1  UNL1        0.0323
     18 H          -5.5450   -1.3754   -0.1901 H       1  UNL1        0.0323
     19 H          -2.0435    0.5167    1.9175 H       1  UNL1        0.0489
     20 H          -3.0295    1.3565    0.6067 H       1  UNL1        0.0489
     21 H          -0.9961    1.8268   -0.6281 H       1  UNL1        0.0345
     22 H          -0.3820    1.8659    1.1005 H       1  UNL1        0.0345
     23 H           1.6382    2.0444    0.2824 H       1  UNL1        0.0625
     24 H           4.1282    1.9342    0.0751 H       1  UNL1        0.0654
     25 H           6.1590    0.5701   -0.2660 H       1  UNL1        0.2921
     26 H           3.9145   -2.2229   -0.6839 H       1  UNL1        0.0654
     27 H           1.4267   -2.1123   -0.4766 H       1  UNL1        0.0625
@<TRIPOS>BOND
     1     1     2    1
     2     2     3    2
     3     2     4   am
     4     4     5    1
     5     5     6    1
     6     6     7    1
     7     7     8    1
     8     8     9   ar
     9     9    10   ar
    10    10    11   ar
    11    11    12    1
    12    11    13   ar
    13    13    14   ar
    14     7    15    2
    15    15     4    1
    16    14     8   ar
    17     1    16    1
    18     1    17    1
    19     1    18    1
    20     5    19    1
    21     5    20    1
    22     6    21    1
    23     6    22    1
    24     9    23    1
    25    10    24    1
    26    12    25    1
    27    13    26    1
    28    14    27    1
