
     RDKit          3D

 27 28  0  0  0  0  0  0  0  0999 V2000
   -4.7435   -0.6430   -0.0737 C   0  0  0  0  0  0  0  0  0  0  0  0
   -3.4023   -1.2209   -0.3501 C   0  0  0  0  0  0  0  0  0  0  0  0
   -3.3634   -2.3083   -0.9806 O   0  0  0  0  0  0  0  0  0  0  0  0
   -2.2305   -0.5557    0.0886 N   0  0  0  0  0  0  0  0  0  0  0  0
   -2.1789    0.6961    0.8187 C   0  0  0  0  0  0  0  0  0  0  0  0
   -0.8612    1.2410    0.3202 C   0  0  0  0  0  0  0  0  0  0  0  0
   -0.0978    0.0079    0.0330 C   0  0  0  0  0  0  0  0  0  0  0  0
    1.3767   -0.0281   -0.0844 C   0  0  0  0  0  0  0  0  0  0  0  0
    2.1383    1.1102    0.0707 C   0  0  0  0  0  0  0  0  0  0  0  0
    3.5120    1.0377   -0.0458 C   0  0  0  0  0  0  0  0  0  0  0  0
    4.1642   -0.1336   -0.3131 C   0  0  0  0  0  0  0  0  0  0  0  0
    5.5595   -0.2131   -0.4326 O   0  0  0  0  0  0  0  0  0  0  0  0
    3.4181   -1.2772   -0.4704 C   0  0  0  0  0  0  0  0  0  0  0  0
    2.0377   -1.2095   -0.3542 C   0  0  0  0  0  0  0  0  0  0  0  0
   -0.9118   -0.9562   -0.0857 N   0  0  0  0  0  0  0  0  0  0  0  0
   -4.9250    0.1877   -0.8131 H   0  0  0  0  0  0  0  0  0  0  0  0
   -4.7628   -0.1394    0.9350 H   0  0  0  0  0  0  0  0  0  0  0  0
   -5.5450   -1.3754   -0.1901 H   0  0  0  0  0  0  0  0  0  0  0  0
   -2.0435    0.5167    1.9175 H   0  0  0  0  0  0  0  0  0  0  0  0
   -3.0295    1.3565    0.6067 H   0  0  0  0  0  0  0  0  0  0  0  0
   -0.9961    1.8268   -0.6281 H   0  0  0  0  0  0  0  0  0  0  0  0
   -0.3820    1.8659    1.1005 H   0  0  0  0  0  0  0  0  0  0  0  0
    1.6382    2.0444    0.2824 H   0  0  0  0  0  0  0  0  0  0  0  0
    4.1282    1.9342    0.0751 H   0  0  0  0  0  0  0  0  0  0  0  0
    6.1590    0.5701   -0.2660 H   0  0  0  0  0  0  0  0  0  0  0  0
    3.9145   -2.2229   -0.6839 H   0  0  0  0  0  0  0  0  0  0  0  0
    1.4267   -2.1123   -0.4766 H   0  0  0  0  0  0  0  0  0  0  0  0
  1  2  1  0
  2  3  2  0
  2  4  1  0
  4  5  1  0
  5  6  1  0
  6  7  1  0
  7  8  1  0
  8  9  2  0
  9 10  1  0
 10 11  2  0
 11 12  1  0
 11 13  1  0
 13 14  2  0
  7 15  2  0
 15  4  1  0
 14  8  1  0
  1 16  1  0
  1 17  1  0
  1 18  1  0
  5 19  1  0
  5 20  1  0
  6 21  1  0
  6 22  1  0
  9 23  1  0
 10 24  1  0
 12 25  1  0
 13 26  1  0
 14 27  1  0
M  END
$$$$
