@<TRIPOS>MOLECULE
*****
 45 48 0 0 0
SMALL
GASTEIGER

@<TRIPOS>ATOM
      1 C          -2.6032    0.0547   -0.7339 C.3     1  UNL1        0.0021
      2 N          -2.4067    0.2142    0.7019 N.pl3   1  UNL1       -0.3154
      3 C          -3.0055   -0.7403    1.5963 C.3     1  UNL1        0.0364
      4 C          -4.5117   -0.6760    1.6434 C.3     1  UNL1        0.0599
      5 O          -5.0397   -0.9187    0.3978 O.3     1  UNL1       -0.3935
      6 C          -1.6252    1.3187    1.1235 C.ar    1  UNL1        0.1359
      7 N          -2.3619    2.2417    1.8028 N.ar    1  UNL1       -0.2199
      8 C          -1.7338    3.3645    2.2432 C.ar    1  UNL1        0.1219
      9 N          -0.4173    3.5696    2.0194 N.ar    1  UNL1       -0.2005
     10 C           0.3555    2.6917    1.3557 C.ar    1  UNL1        0.2331
     11 C          -0.2956    1.5607    0.9169 C.ar    1  UNL1        0.0880
     12 C           0.5996    0.7464    0.2588 C.ar    1  UNL1        0.0406
     13 C           1.8089    1.4480    0.3271 C.ar    1  UNL1        0.1460
     14 O           1.5947    2.5687    0.9775 O.2     1  UNL1       -0.4360
     15 C           3.0463    0.9360   -0.2574 C.ar    1  UNL1        0.0180
     16 C           3.6789    1.6357   -1.2715 C.ar    1  UNL1       -0.0511
     17 C           4.8351    1.0962   -1.7716 C.ar    1  UNL1       -0.0611
     18 C           5.3809   -0.0976   -1.3089 C.ar    1  UNL1       -0.0617
     19 C           4.7321   -0.7768   -0.2970 C.ar    1  UNL1       -0.0611
     20 C           3.5557   -0.2514    0.2294 C.ar    1  UNL1       -0.0511
     21 C           0.4057   -0.5514   -0.3743 C.ar    1  UNL1       -0.0135
     22 C           0.5582   -0.6808   -1.7389 C.ar    1  UNL1       -0.0539
     23 C           0.3861   -1.9096   -2.3666 C.ar    1  UNL1       -0.0612
     24 C           0.0589   -2.9960   -1.5883 C.ar    1  UNL1       -0.0617
     25 C          -0.0979   -2.8899   -0.2253 C.ar    1  UNL1       -0.0612
     26 C           0.0774   -1.6507    0.3936 C.ar    1  UNL1       -0.0539
     27 H          -2.4434   -0.9597   -1.1000 H       1  UNL1        0.0428
     28 H          -3.6596    0.3267   -1.0044 H       1  UNL1        0.0428
     29 H          -1.9783    0.7657   -1.3274 H       1  UNL1        0.0428
     30 H          -2.6281   -0.6483    2.6361 H       1  UNL1        0.0486
     31 H          -2.6970   -1.7573    1.2102 H       1  UNL1        0.0486
     32 H          -4.7712    0.3521    1.9713 H       1  UNL1        0.0573
     33 H          -4.8278   -1.4389    2.3993 H       1  UNL1        0.0573
     34 H          -5.7711   -0.2928    0.1865 H       1  UNL1        0.2095
     35 H          -2.1787    4.1892    2.7963 H       1  UNL1        0.1049
     36 H           3.2884    2.5742   -1.6666 H       1  UNL1        0.0625
     37 H           5.3419    1.6456   -2.5766 H       1  UNL1        0.0618
     38 H           6.2934   -0.4675   -1.7468 H       1  UNL1        0.0618
     39 H           5.1616   -1.7211    0.0715 H       1  UNL1        0.0618
     40 H           3.0475   -0.7971    1.0324 H       1  UNL1        0.0625
     41 H           0.8161    0.1570   -2.3760 H       1  UNL1        0.0624
     42 H           0.5091   -1.9878   -3.4273 H       1  UNL1        0.0618
     43 H          -0.0776   -3.9626   -2.0789 H       1  UNL1        0.0618
     44 H          -0.3525   -3.7100    0.4141 H       1  UNL1        0.0618
     45 H          -0.0485   -1.5747    1.4733 H       1  UNL1        0.0624
@<TRIPOS>BOND
     1     1     2    1
     2     2     3    1
     3     3     4    1
     4     4     5    1
     5     2     6    1
     6     6     7   ar
     7     7     8   ar
     8     8     9   ar
     9     9    10   ar
    10    10    11   ar
    11    11    12   ar
    12    12    13   ar
    13    13    14   ar
    14    13    15    1
    15    15    16   ar
    16    16    17   ar
    17    17    18   ar
    18    18    19   ar
    19    19    20   ar
    20    12    21    1
    21    21    22   ar
    22    22    23   ar
    23    23    24   ar
    24    24    25   ar
    25    25    26   ar
    26    11     6   ar
    27    20    15   ar
    28    26    21   ar
    29    14    10   ar
    30     1    27    1
    31     1    28    1
    32     1    29    1
    33     3    30    1
    34     3    31    1
    35     4    32    1
    36     4    33    1
    37     5    34    1
    38     8    35    1
    39    16    36    1
    40    17    37    1
    41    18    38    1
    42    19    39    1
    43    20    40    1
    44    22    41    1
    45    23    42    1
    46    24    43    1
    47    25    44    1
    48    26    45    1
