
     RDKit          3D

 47 48  0  0  0  0  0  0  0  0999 V2000
   -2.1791   -4.4728   -1.4936 C   0  0  0  0  0  0  0  0  0  0  0  0
   -2.2187   -3.0774   -1.3825 O   0  0  0  0  0  0  0  0  0  0  0  0
   -1.2559   -2.2691   -0.8123 C   0  0  0  0  0  0  0  0  0  0  0  0
   -0.1005   -2.7742   -0.2662 C   0  0  0  0  0  0  0  0  0  0  0  0
    0.8628   -1.9526    0.3053 C   0  0  0  0  0  0  0  0  0  0  0  0
    0.6435   -0.5897    0.3197 C   0  0  0  0  0  0  0  0  0  0  0  0
    1.5332    0.2874    0.8638 O   0  0  0  0  0  0  0  0  0  0  0  0
    2.7608    0.1113    1.4484 C   0  0  0  0  0  0  0  0  0  0  0  0
    3.8787   -0.3879    0.5803 C   0  0  0  0  0  0  0  0  0  0  0  0
    4.1661    0.6093   -0.5453 C   0  0  0  0  0  0  0  0  0  0  0  0
    4.5455    1.9606    0.0296 C   0  0  0  0  0  0  0  0  0  0  0  0
    5.7665    1.8970    0.8621 C   0  0  0  0  0  0  0  0  0  0  0  0
    6.0818    2.8705    1.6299 O   0  0  0  0  0  0  0  0  0  0  0  0
    6.6399    0.8292    0.8823 O   0  0  0  0  0  0  0  0  0  0  0  0
   -0.5395   -0.0780   -0.2411 C   0  0  0  0  0  0  0  0  0  0  0  0
   -1.4910   -0.8936   -0.8047 C   0  0  0  0  0  0  0  0  0  0  0  0
   -2.7522   -0.3805   -1.3637 C   0  0  0  0  0  0  0  0  0  0  0  0
   -3.3131    0.7897   -0.7014 C   0  0  0  0  0  0  0  0  0  0  0  0
   -3.2550    2.0135   -1.3382 C   0  0  0  0  0  0  0  0  0  0  0  0
   -3.7936    3.0550   -0.6822 N   0  0  0  0  0  0  0  0  0  0  0  0
   -4.3731    3.0151    0.5114 C   0  0  0  0  0  0  0  0  0  0  0  0
   -4.9222    4.1686    1.1430 N   0  0  0  0  0  0  0  0  0  0  0  0
   -4.4279    1.8027    1.1345 N   0  0  0  0  0  0  0  0  0  0  0  0
   -3.9000    0.6954    0.5313 C   0  0  0  0  0  0  0  0  0  0  0  0
   -4.0010   -0.5191    1.2580 N   0  0  0  0  0  0  0  0  0  0  0  0
   -3.2450   -4.8337   -1.4684 H   0  0  0  0  0  0  0  0  0  0  0  0
   -1.5979   -4.8985   -0.6635 H   0  0  0  0  0  0  0  0  0  0  0  0
   -1.7201   -4.7221   -2.4844 H   0  0  0  0  0  0  0  0  0  0  0  0
    0.0792   -3.8454   -0.2773 H   0  0  0  0  0  0  0  0  0  0  0  0
    1.7285   -2.4313    0.7203 H   0  0  0  0  0  0  0  0  0  0  0  0
    3.1041    1.0078    2.0249 H   0  0  0  0  0  0  0  0  0  0  0  0
    2.6268   -0.6653    2.2727 H   0  0  0  0  0  0  0  0  0  0  0  0
    4.8192   -0.5374    1.1309 H   0  0  0  0  0  0  0  0  0  0  0  0
    3.6329   -1.3226    0.0774 H   0  0  0  0  0  0  0  0  0  0  0  0
    3.3305    0.6826   -1.2555 H   0  0  0  0  0  0  0  0  0  0  0  0
    5.0502    0.2244   -1.0845 H   0  0  0  0  0  0  0  0  0  0  0  0
    4.7399    2.6152   -0.8509 H   0  0  0  0  0  0  0  0  0  0  0  0
    3.7215    2.3858    0.6608 H   0  0  0  0  0  0  0  0  0  0  0  0
    7.4056    0.7309    1.5665 H   0  0  0  0  0  0  0  0  0  0  0  0
   -0.7307    0.9855   -0.2441 H   0  0  0  0  0  0  0  0  0  0  0  0
   -2.6886   -0.1848   -2.4741 H   0  0  0  0  0  0  0  0  0  0  0  0
   -3.4807   -1.2591   -1.3138 H   0  0  0  0  0  0  0  0  0  0  0  0
   -2.7965    2.1212   -2.3255 H   0  0  0  0  0  0  0  0  0  0  0  0
   -5.0797    4.2291    2.1585 H   0  0  0  0  0  0  0  0  0  0  0  0
   -5.1735    4.9769    0.5423 H   0  0  0  0  0  0  0  0  0  0  0  0
   -3.9507   -0.5373    2.2927 H   0  0  0  0  0  0  0  0  0  0  0  0
   -4.1310   -1.4325    0.7644 H   0  0  0  0  0  0  0  0  0  0  0  0
  1  2  1  0
  2  3  1  0
  3  4  2  0
  4  5  1  0
  5  6  2  0
  6  7  1  0
  7  8  1  0
  8  9  1  0
  9 10  1  0
 10 11  1  0
 11 12  1  0
 12 13  2  0
 12 14  1  0
  6 15  1  0
 15 16  2  0
 16 17  1  0
 17 18  1  0
 18 19  2  0
 19 20  1  0
 20 21  2  0
 21 22  1  0
 21 23  1  0
 23 24  2  0
 24 25  1  0
 16  3  1  0
 24 18  1  0
  1 26  1  0
  1 27  1  0
  1 28  1  0
  4 29  1  0
  5 30  1  0
  8 31  1  0
  8 32  1  0
  9 33  1  0
  9 34  1  0
 10 35  1  0
 10 36  1  0
 11 37  1  0
 11 38  1  0
 14 39  1  0
 15 40  1  0
 17 41  1  0
 17 42  1  0
 19 43  1  0
 22 44  1  0
 22 45  1  0
 25 46  1  0
 25 47  1  0
M  END
$$$$
