@<TRIPOS>MOLECULE
*****
 47 48 0 0 0
SMALL
GASTEIGER

@<TRIPOS>ATOM
      1 C          -2.1791   -4.4728   -1.4936 C.3     1  UNL1        0.0788
      2 O          -2.2187   -3.0774   -1.3825 O.3     1  UNL1       -0.4948
      3 C          -1.2559   -2.2691   -0.8123 C.ar    1  UNL1        0.1238
      4 C          -0.1005   -2.7742   -0.2662 C.ar    1  UNL1       -0.0162
      5 C           0.8628   -1.9526    0.3053 C.ar    1  UNL1       -0.0165
      6 C           0.6435   -0.5897    0.3197 C.ar    1  UNL1        0.1210
      7 O           1.5332    0.2874    0.8638 O.3     1  UNL1       -0.4920
      8 C           2.7608    0.1113    1.4484 C.3     1  UNL1        0.0896
      9 C           3.8787   -0.3879    0.5803 C.3     1  UNL1       -0.0181
     10 C           4.1661    0.6093   -0.5453 C.3     1  UNL1       -0.0399
     11 C           4.5455    1.9606    0.0296 C.3     1  UNL1        0.0449
     12 C           5.7665    1.8970    0.8621 C.2     1  UNL1        0.3047
     13 O           6.0818    2.8705    1.6299 O.2     1  UNL1       -0.2510
     14 O           6.6399    0.8292    0.8823 O.3     1  UNL1       -0.4806
     15 C          -0.5395   -0.0780   -0.2411 C.ar    1  UNL1       -0.0130
     16 C          -1.4910   -0.8936   -0.8047 C.ar    1  UNL1        0.0022
     17 C          -2.7522   -0.3805   -1.3637 C.3     1  UNL1        0.0058
     18 C          -3.3131    0.7897   -0.7014 C.ar    1  UNL1        0.0148
     19 C          -3.2550    2.0135   -1.3382 C.ar    1  UNL1        0.0379
     20 N          -3.7936    3.0550   -0.6822 N.ar    1  UNL1       -0.2227
     21 C          -4.3731    3.0151    0.5114 C.ar    1  UNL1        0.2142
     22 N          -4.9222    4.1686    1.1430 N.pl3   1  UNL1       -0.3274
     23 N          -4.4279    1.8027    1.1345 N.ar    1  UNL1       -0.1999
     24 C          -3.9000    0.6954    0.5313 C.ar    1  UNL1        0.1247
     25 N          -4.0010   -0.5191    1.2580 N.pl3   1  UNL1       -0.3428
     26 H          -3.2450   -4.8337   -1.4684 H       1  UNL1        0.0660
     27 H          -1.5979   -4.8985   -0.6635 H       1  UNL1        0.0660
     28 H          -1.7201   -4.7221   -2.4844 H       1  UNL1        0.0660
     29 H           0.0792   -3.8454   -0.2773 H       1  UNL1        0.0655
     30 H           1.7285   -2.4313    0.7203 H       1  UNL1        0.0655
     31 H           3.1041    1.0078    2.0249 H       1  UNL1        0.0696
     32 H           2.6268   -0.6653    2.2727 H       1  UNL1        0.0696
     33 H           4.8192   -0.5374    1.1309 H       1  UNL1        0.0298
     34 H           3.6329   -1.3226    0.0774 H       1  UNL1        0.0298
     35 H           3.3305    0.6826   -1.2555 H       1  UNL1        0.0271
     36 H           5.0502    0.2244   -1.0845 H       1  UNL1        0.0271
     37 H           4.7399    2.6152   -0.8509 H       1  UNL1        0.0377
     38 H           3.7215    2.3858    0.6608 H       1  UNL1        0.0377
     39 H           7.4056    0.7309    1.5665 H       1  UNL1        0.2951
     40 H          -0.7307    0.9855   -0.2441 H       1  UNL1        0.0658
     41 H          -2.6886   -0.1848   -2.4741 H       1  UNL1        0.0364
     42 H          -3.4807   -1.2591   -1.3138 H       1  UNL1        0.0364
     43 H          -2.7965    2.1212   -2.3255 H       1  UNL1        0.0834
     44 H          -5.0797    4.2291    2.1585 H       1  UNL1        0.1452
     45 H          -5.1735    4.9769    0.5423 H       1  UNL1        0.1452
     46 H          -3.9507   -0.5373    2.2927 H       1  UNL1        0.1437
     47 H          -4.1310   -1.4325    0.7644 H       1  UNL1        0.1437
@<TRIPOS>BOND
     1     1     2    1
     2     2     3    1
     3     3     4   ar
     4     4     5   ar
     5     5     6   ar
     6     6     7    1
     7     7     8    1
     8     8     9    1
     9     9    10    1
    10    10    11    1
    11    11    12    1
    12    12    13    2
    13    12    14    1
    14     6    15   ar
    15    15    16   ar
    16    16    17    1
    17    17    18    1
    18    18    19   ar
    19    19    20   ar
    20    20    21   ar
    21    21    22    1
    22    21    23   ar
    23    23    24   ar
    24    24    25    1
    25    16     3   ar
    26    24    18   ar
    27     1    26    1
    28     1    27    1
    29     1    28    1
    30     4    29    1
    31     5    30    1
    32     8    31    1
    33     8    32    1
    34     9    33    1
    35     9    34    1
    36    10    35    1
    37    10    36    1
    38    11    37    1
    39    11    38    1
    40    14    39    1
    41    15    40    1
    42    17    41    1
    43    17    42    1
    44    19    43    1
    45    22    44    1
    46    22    45    1
    47    25    46    1
    48    25    47    1
