
     RDKit          3D

 55 58  0  0  0  0  0  0  0  0999 V2000
   -1.6885    5.6208   -0.4861 C   0  0  0  0  0  0  0  0  0  0  0  0
   -1.2146    4.2224   -0.3267 C   0  0  0  0  0  0  0  0  0  0  0  0
   -1.9946    3.1494    0.1103 C   0  0  0  0  0  0  0  0  0  0  0  0
   -1.1624    2.0564    0.1076 C   0  0  0  0  0  0  0  0  0  0  0  0
   -1.3892    0.7224    0.4463 C   0  0  0  0  0  0  0  0  0  0  0  0
   -2.5423    0.2536    0.8609 O   0  0  0  0  0  0  0  0  0  0  0  0
   -3.8039    0.4399    1.1706 C   0  0  2  0  0  0  0  0  0  0  0  0
   -4.0232   -0.0192    2.6451 C   0  0  0  0  0  0  0  0  0  0  0  0
   -4.8077   -0.4364    0.4069 C   0  0  1  0  0  0  0  0  0  0  0  0
   -4.7386   -0.2154   -1.0636 C   0  0  0  0  0  0  0  0  0  0  0  0
   -5.3380   -1.4204   -1.6044 N   0  0  0  0  0  0  0  0  0  0  0  0
   -5.1814   -2.4644   -0.6514 C   0  0  0  0  0  0  0  0  0  0  0  0
   -5.5300   -3.6787   -0.7493 O   0  0  0  0  0  0  0  0  0  0  0  0
   -4.5018   -1.8906    0.5654 C   0  0  0  0  0  0  0  0  0  0  0  0
   -0.2719   -0.1481    0.3187 C   0  0  0  0  0  0  0  0  0  0  0  0
    0.9486    0.2755   -0.1052 C   0  0  0  0  0  0  0  0  0  0  0  0
    2.0663   -0.6588   -0.2195 C   0  0  0  0  0  0  0  0  0  0  0  0
    1.9908   -1.9920   -0.5374 C   0  0  0  0  0  0  0  0  0  0  0  0
    3.2500   -2.4966   -0.5380 N   0  0  0  0  0  0  0  0  0  0  0  0
    4.0986   -1.5375   -0.2355 N   0  0  0  0  0  0  0  0  0  0  0  0
    5.5295   -1.7050   -0.1409 C   0  0  0  0  0  0  0  0  0  0  0  0
    5.9000   -3.0616   -0.6591 C   0  0  0  0  0  0  0  0  0  0  0  0
    5.9738   -1.5163    1.2978 C   0  0  0  0  0  0  0  0  0  0  0  0
    6.1647   -0.6044   -0.9990 C   0  0  0  0  0  0  0  0  0  0  0  0
    3.3968   -0.3853   -0.0320 C   0  0  0  0  0  0  0  0  0  0  0  0
    1.0784    1.6076   -0.4166 C   0  0  0  0  0  0  0  0  0  0  0  0
    0.0433    2.4740   -0.3109 N   0  0  0  0  0  0  0  0  0  0  0  0
    0.0230    3.7922   -0.5784 N   0  0  0  0  0  0  0  0  0  0  0  0
   -0.9748    6.3254    0.0273 H   0  0  0  0  0  0  0  0  0  0  0  0
   -2.6647    5.7857    0.0115 H   0  0  0  0  0  0  0  0  0  0  0  0
   -1.7321    5.9403   -1.5410 H   0  0  0  0  0  0  0  0  0  0  0  0
   -3.0103    3.1889    0.3819 H   0  0  0  0  0  0  0  0  0  0  0  0
   -4.2312    1.4585    1.0848 H   0  0  0  0  0  0  0  0  0  0  0  0
   -5.1181   -0.0589    2.8156 H   0  0  0  0  0  0  0  0  0  0  0  0
   -3.5970    0.7178    3.3322 H   0  0  0  0  0  0  0  0  0  0  0  0
   -3.6073   -1.0250    2.7637 H   0  0  0  0  0  0  0  0  0  0  0  0
   -5.7985   -0.1812    0.7799 H   0  0  0  0  0  0  0  0  0  0  0  0
   -5.3160    0.6650   -1.4111 H   0  0  0  0  0  0  0  0  0  0  0  0
   -3.7283   -0.1261   -1.4666 H   0  0  0  0  0  0  0  0  0  0  0  0
   -5.8111   -1.5431   -2.5262 H   0  0  0  0  0  0  0  0  0  0  0  0
   -3.4012   -2.0844    0.5050 H   0  0  0  0  0  0  0  0  0  0  0  0
   -4.9200   -2.2787    1.4944 H   0  0  0  0  0  0  0  0  0  0  0  0
   -0.4572   -1.1851    0.5843 H   0  0  0  0  0  0  0  0  0  0  0  0
    1.1115   -2.5541   -0.7502 H   0  0  0  0  0  0  0  0  0  0  0  0
    5.2362   -3.3728   -1.5017 H   0  0  0  0  0  0  0  0  0  0  0  0
    5.6968   -3.7947    0.1724 H   0  0  0  0  0  0  0  0  0  0  0  0
    6.9552   -3.1283   -0.9635 H   0  0  0  0  0  0  0  0  0  0  0  0
    7.0113   -1.8617    1.3711 H   0  0  0  0  0  0  0  0  0  0  0  0
    5.8734   -0.4246    1.5151 H   0  0  0  0  0  0  0  0  0  0  0  0
    5.3385   -2.1097    1.9586 H   0  0  0  0  0  0  0  0  0  0  0  0
    7.1955   -0.4937   -0.6369 H   0  0  0  0  0  0  0  0  0  0  0  0
    5.5338    0.2789   -0.9081 H   0  0  0  0  0  0  0  0  0  0  0  0
    6.2087   -1.0258   -2.0344 H   0  0  0  0  0  0  0  0  0  0  0  0
    3.8669    0.5516    0.2304 H   0  0  0  0  0  0  0  0  0  0  0  0
    2.0642    1.9526   -0.7596 H   0  0  0  0  0  0  0  0  0  0  0  0
  1  2  1  0
  2  3  1  0
  3  4  2  0
  4  5  1  0
  5  6  1  0
  6  7  1  0
  7  8  1  0
  7  9  1  0
  9 10  1  0
 10 11  1  0
 11 12  1  0
 12 13  2  0
 12 14  1  0
  5 15  2  0
 15 16  1  0
 16 17  1  0
 17 18  1  0
 18 19  2  0
 19 20  1  0
 20 21  1  0
 21 22  1  0
 21 23  1  0
 21 24  1  0
 20 25  1  0
 16 26  2  0
 26 27  1  0
 27 28  1  0
 28  2  2  0
 27  4  1  0
 14  9  1  0
 25 17  2  0
  1 29  1  0
  1 30  1  0
  1 31  1  0
  3 32  1  0
  7 33  1  1
  8 34  1  0
  8 35  1  0
  8 36  1  0
  9 37  1  1
 10 38  1  0
 10 39  1  0
 11 40  1  0
 14 41  1  0
 14 42  1  0
 15 43  1  0
 18 44  1  0
 22 45  1  0
 22 46  1  0
 22 47  1  0
 23 48  1  0
 23 49  1  0
 23 50  1  0
 24 51  1  0
 24 52  1  0
 24 53  1  0
 25 54  1  0
 26 55  1  0
M  END
$$$$
