@<TRIPOS>MOLECULE
*****
 55 58 0 0 0
SMALL
GASTEIGER

@<TRIPOS>ATOM
      1 C          -1.6885    5.6208   -0.4861 C.3     1  UNL1       -0.0206
      2 C          -1.2146    4.2224   -0.3267 C.ar    1  UNL1        0.0610
      3 C          -1.9946    3.1494    0.1103 C.ar    1  UNL1       -0.0100
      4 C          -1.1624    2.0564    0.1076 C.ar    1  UNL1        0.1086
      5 C          -1.3892    0.7224    0.4463 C.ar    1  UNL1        0.1468
      6 O          -2.5423    0.2536    0.8609 O.3     1  UNL1       -0.4866
      7 C          -3.8039    0.4399    1.1706 C.3     1  UNL1        0.1022
      8 C          -4.0232   -0.0192    2.6451 C.3     1  UNL1       -0.0275
      9 C          -4.8077   -0.4364    0.4069 C.3     1  UNL1        0.0195
     10 C          -4.7386   -0.2154   -1.0636 C.3     1  UNL1        0.0182
     11 N          -5.3380   -1.4204   -1.6044 N.am    1  UNL1       -0.3149
     12 C          -5.1814   -2.4644   -0.6514 C.2     1  UNL1        0.2135
     13 O          -5.5300   -3.6787   -0.7493 O.2     1  UNL1       -0.2758
     14 C          -4.5018   -1.8906    0.5654 C.3     1  UNL1        0.0315
     15 C          -0.2719   -0.1481    0.3187 C.ar    1  UNL1       -0.0086
     16 C           0.9486    0.2755   -0.1052 C.ar    1  UNL1        0.0067
     17 C           2.0663   -0.6588   -0.2195 C.ar    1  UNL1        0.0211
     18 C           1.9908   -1.9920   -0.5374 C.ar    1  UNL1        0.0571
     19 N           3.2500   -2.4966   -0.5380 N.ar    1  UNL1       -0.1785
     20 N           4.0986   -1.5375   -0.2355 N.ar    1  UNL1       -0.2656
     21 C           5.5295   -1.7050   -0.1409 C.3     1  UNL1        0.0553
     22 C           5.9000   -3.0616   -0.6591 C.3     1  UNL1       -0.0403
     23 C           5.9738   -1.5163    1.2978 C.3     1  UNL1       -0.0403
     24 C           6.1647   -0.6044   -0.9990 C.3     1  UNL1       -0.0403
     25 C           3.3968   -0.3853   -0.0320 C.ar    1  UNL1        0.0338
     26 C           1.0784    1.6076   -0.4166 C.ar    1  UNL1        0.0378
     27 N           0.0433    2.4740   -0.3109 N.ar    1  UNL1       -0.2355
     28 N           0.0230    3.7922   -0.5784 N.ar    1  UNL1       -0.1715
     29 H          -0.9748    6.3254    0.0273 H       1  UNL1        0.0293
     30 H          -2.6647    5.7857    0.0115 H       1  UNL1        0.0293
     31 H          -1.7321    5.9403   -1.5410 H       1  UNL1        0.0293
     32 H          -3.0103    3.1889    0.3819 H       1  UNL1        0.0658
     33 H          -4.2312    1.4585    1.0848 H       1  UNL1        0.0733
     34 H          -5.1181   -0.0589    2.8156 H       1  UNL1        0.0265
     35 H          -3.5970    0.7178    3.3322 H       1  UNL1        0.0265
     36 H          -3.6073   -1.0250    2.7637 H       1  UNL1        0.0265
     37 H          -5.7985   -0.1812    0.7799 H       1  UNL1        0.0356
     38 H          -5.3160    0.6650   -1.4111 H       1  UNL1        0.0466
     39 H          -3.7283   -0.1261   -1.4666 H       1  UNL1        0.0466
     40 H          -5.8111   -1.5431   -2.5262 H       1  UNL1        0.1487
     41 H          -3.4012   -2.0844    0.5050 H       1  UNL1        0.0363
     42 H          -4.9200   -2.2787    1.4944 H       1  UNL1        0.0363
     43 H          -0.4572   -1.1851    0.5843 H       1  UNL1        0.0661
     44 H           1.1115   -2.5541   -0.7502 H       1  UNL1        0.0854
     45 H           5.2362   -3.3728   -1.5017 H       1  UNL1        0.0253
     46 H           5.6968   -3.7947    0.1724 H       1  UNL1        0.0253
     47 H           6.9552   -3.1283   -0.9635 H       1  UNL1        0.0253
     48 H           7.0113   -1.8617    1.3711 H       1  UNL1        0.0253
     49 H           5.8734   -0.4246    1.5151 H       1  UNL1        0.0253
     50 H           5.3385   -2.1097    1.9586 H       1  UNL1        0.0253
     51 H           7.1955   -0.4937   -0.6369 H       1  UNL1        0.0253
     52 H           5.5338    0.2789   -0.9081 H       1  UNL1        0.0253
     53 H           6.2087   -1.0258   -2.0344 H       1  UNL1        0.0253
     54 H           3.8669    0.5516    0.2304 H       1  UNL1        0.0833
     55 H           2.0642    1.9526   -0.7596 H       1  UNL1        0.0836
@<TRIPOS>BOND
     1     1     2    1
     2     2     3   ar
     3     3     4   ar
     4     4     5   ar
     5     5     6    1
     6     6     7    1
     7     7     8    1
     8     7     9    1
     9     9    10    1
    10    10    11    1
    11    11    12   am
    12    12    13    2
    13    12    14    1
    14     5    15   ar
    15    15    16   ar
    16    16    17    1
    17    17    18   ar
    18    18    19   ar
    19    19    20   ar
    20    20    21    1
    21    21    22    1
    22    21    23    1
    23    21    24    1
    24    20    25   ar
    25    16    26   ar
    26    26    27   ar
    27    27    28   ar
    28    28     2   ar
    29    27     4   ar
    30    14     9    1
    31    25    17   ar
    32     1    29    1
    33     1    30    1
    34     1    31    1
    35     3    32    1
    36     7    33    1
    37     8    34    1
    38     8    35    1
    39     8    36    1
    40     9    37    1
    41    10    38    1
    42    10    39    1
    43    11    40    1
    44    14    41    1
    45    14    42    1
    46    15    43    1
    47    18    44    1
    48    22    45    1
    49    22    46    1
    50    22    47    1
    51    23    48    1
    52    23    49    1
    53    23    50    1
    54    24    51    1
    55    24    52    1
    56    24    53    1
    57    25    54    1
    58    26    55    1
