@<TRIPOS>MOLECULE
*****
 33 35 0 0 0
SMALL
GASTEIGER

@<TRIPOS>ATOM
      1 O           4.6930    1.1177    2.7339 O.3     1  UNL1       -0.5065
      2 C           3.9259    0.5883    1.7113 C.ar    1  UNL1        0.1239
      3 C           4.6098   -0.0857    0.7194 C.ar    1  UNL1        0.0223
      4 C           3.9532   -0.6606   -0.3582 C.ar    1  UNL1        0.1348
      5 O           4.5946   -1.3373   -1.3625 O.3     1  UNL1       -0.5058
      6 C           2.5841   -0.5278   -0.3933 C.ar    1  UNL1        0.1092
      7 C           1.8628    0.1264    0.5587 C.ar    1  UNL1        0.1465
      8 O           0.5711    0.2697    0.5555 O.2     1  UNL1       -0.4507
      9 C          -0.2142   -0.2116   -0.3907 C.ar    1  UNL1        0.1808
     10 C           0.4566   -0.8716   -1.3618 C.ar    1  UNL1        0.2082
     11 O          -0.2654   -1.4121   -2.3944 O.3     1  UNL1       -0.5007
     12 C           1.8172   -1.0533   -1.4095 C.ar    1  UNL1        0.2379
     13 O           2.3582   -1.6844   -2.3568 O.2     1  UNL1       -0.2830
     14 C          -1.6347    0.0319   -0.2515 C.ar    1  UNL1        0.0282
     15 C          -2.0844    0.7399    0.8409 C.ar    1  UNL1       -0.0055
     16 C          -3.4022    1.0306    1.0777 C.ar    1  UNL1        0.1626
     17 O          -3.8058    1.7479    2.1942 O.3     1  UNL1       -0.5032
     18 C          -4.3687    0.6172    0.2103 C.ar    1  UNL1        0.2006
     19 O          -5.7198    0.8787    0.3922 O.3     1  UNL1       -0.5009
     20 C          -3.9899   -0.0948   -0.9021 C.ar    1  UNL1        0.1626
     21 O          -4.9327   -0.5281   -1.7982 O.3     1  UNL1       -0.5032
     22 C          -2.6523   -0.3547   -1.0840 C.ar    1  UNL1       -0.0055
     23 C           2.5548    0.6953    1.6329 C.ar    1  UNL1        0.0231
     24 H           5.2028    1.9701    2.5362 H       1  UNL1        0.2921
     25 H           5.6904   -0.1839    0.7581 H       1  UNL1        0.0691
     26 H           4.7461   -2.3463   -1.3569 H       1  UNL1        0.2922
     27 H          -0.0319   -2.3431   -2.7321 H       1  UNL1        0.2924
     28 H          -1.3935    1.1225    1.6058 H       1  UNL1        0.0662
     29 H          -3.3858    2.6844    2.3031 H       1  UNL1        0.2923
     30 H          -6.1907    1.2961   -0.4095 H       1  UNL1        0.2924
     31 H          -5.1798   -1.5246   -1.7346 H       1  UNL1        0.2923
     32 H          -2.4003   -0.9146   -1.9672 H       1  UNL1        0.0662
     33 H           2.0316    1.2181    2.4037 H       1  UNL1        0.0691
@<TRIPOS>BOND
     1     1     2    1
     2     2     3   ar
     3     3     4   ar
     4     4     5    1
     5     4     6   ar
     6     6     7   ar
     7     7     8   ar
     8     8     9   ar
     9     9    10   ar
    10    10    11    1
    11    10    12   ar
    12    12    13    2
    13     9    14    1
    14    14    15   ar
    15    15    16   ar
    16    16    17    1
    17    16    18   ar
    18    18    19    1
    19    18    20   ar
    20    20    21    1
    21    20    22   ar
    22     7    23   ar
    23    23     2   ar
    24    12     6   ar
    25    22    14   ar
    26     1    24    1
    27     3    25    1
    28     5    26    1
    29    11    27    1
    30    15    28    1
    31    17    29    1
    32    19    30    1
    33    21    31    1
    34    22    32    1
    35    23    33    1
