
     RDKit          3D

 71 74  0  0  0  0  0  0  0  0999 V2000
   -6.0522    4.7707   -1.7172 N   0  0  0  0  0  0  0  0  0  0  0  0
   -4.9273    4.8701   -2.5566 C   0  0  0  0  0  0  0  0  0  0  0  0
   -4.8459    5.8787   -3.5496 N   0  0  0  0  0  0  0  0  0  0  0  0
   -3.9564    4.0407   -2.4277 N   0  0  0  0  0  0  0  0  0  0  0  0
   -4.0454    3.0015   -1.3997 C   0  0  0  0  0  0  0  0  0  0  0  0
   -3.0380    3.3683   -0.3161 C   0  0  0  0  0  0  0  0  0  0  0  0
   -3.0578    2.4143    0.8278 C   0  0  0  0  0  0  0  0  0  0  0  0
   -2.6580    1.0020    0.5460 C   0  0  0  0  0  0  0  0  0  0  0  0
   -1.3147    0.7455    0.1369 N   0  0  0  0  0  0  0  0  0  0  0  0
   -0.1999    1.6017    0.2478 C   0  0  0  0  0  0  0  0  0  0  0  0
   -0.3371    2.7565    0.8005 O   0  0  0  0  0  0  0  0  0  0  0  0
    1.1773    1.3246   -0.2179 C   0  0  2  0  0  0  0  0  0  0  0  0
    1.4586    2.1691   -1.4905 C   0  0  0  0  0  0  0  0  0  0  0  0
    0.8907    1.2879   -2.5771 C   0  0  0  0  0  0  0  0  0  0  0  0
    1.0280   -0.0954   -2.0664 C   0  0  0  0  0  0  0  0  0  0  0  0
    1.4641    0.0287   -0.7049 N   0  0  0  0  0  0  0  0  0  0  0  0
    2.1024   -1.0521    0.0127 C   0  0  0  0  0  0  0  0  0  0  0  0
    2.2640   -2.1889   -0.5500 O   0  0  0  0  0  0  0  0  0  0  0  0
    2.5957   -0.9266    1.3966 C   0  0  1  0  0  0  0  0  0  0  0  0
    2.8082   -2.2608    1.9651 N   0  0  0  0  0  0  0  0  0  0  0  0
    3.9828   -0.2670    1.4595 C   0  0  0  0  0  0  0  0  0  0  0  0
    4.9846   -1.0667    0.7087 C   0  0  0  0  0  0  0  0  0  0  0  0
    5.2473   -0.8496   -0.6267 C   0  0  0  0  0  0  0  0  0  0  0  0
    6.1930   -1.6143   -1.3155 C   0  0  0  0  0  0  0  0  0  0  0  0
    6.8807   -2.6023   -0.6665 C   0  0  0  0  0  0  0  0  0  0  0  0
    6.6317   -2.8342    0.6681 C   0  0  0  0  0  0  0  0  0  0  0  0
    5.6977   -2.0739    1.3350 C   0  0  0  0  0  0  0  0  0  0  0  0
   -3.3278   -0.0127    1.3549 C   0  0  0  0  0  0  0  0  0  0  0  0
   -4.4541    0.2510    1.9236 O   0  0  0  0  0  0  0  0  0  0  0  0
   -2.7795   -1.3256    1.5479 C   0  0  0  0  0  0  0  0  0  0  0  0
   -1.8777   -2.0162    1.2412 N   0  0  0  0  0  0  0  0  0  0  0  0
   -1.6100   -3.2589    1.5523 C   0  0  0  0  0  0  0  0  0  0  0  0
   -0.5205   -4.0532    1.1566 C   0  0  0  0  0  0  0  0  0  0  0  0
   -0.4240   -5.3446    1.5903 C   0  0  0  0  0  0  0  0  0  0  0  0
   -1.3481   -5.9509    2.4170 C   0  0  0  0  0  0  0  0  0  0  0  0
   -2.4305   -5.1943    2.8212 C   0  0  0  0  0  0  0  0  0  0  0  0
   -2.5461   -3.8652    2.3853 C   0  0  0  0  0  0  0  0  0  0  0  0
   -3.7183   -2.5759    2.6326 S   0  0  0  0  0  0  0  0  0  0  0  0
   -6.0785    5.1086   -0.7194 H   0  0  0  0  0  0  0  0  0  0  0  0
   -6.9405    4.3405   -2.0669 H   0  0  0  0  0  0  0  0  0  0  0  0
   -4.2906    6.7577   -3.4502 H   0  0  0  0  0  0  0  0  0  0  0  0
   -5.3612    5.7808   -4.4640 H   0  0  0  0  0  0  0  0  0  0  0  0
   -3.7175    2.0696   -1.8704 H   0  0  0  0  0  0  0  0  0  0  0  0
   -5.0375    2.9844   -0.9579 H   0  0  0  0  0  0  0  0  0  0  0  0
   -2.0582    3.3454   -0.8264 H   0  0  0  0  0  0  0  0  0  0  0  0
   -3.1719    4.4264    0.0038 H   0  0  0  0  0  0  0  0  0  0  0  0
   -4.1143    2.4301    1.2582 H   0  0  0  0  0  0  0  0  0  0  0  0
   -2.4277    2.8716    1.6409 H   0  0  0  0  0  0  0  0  0  0  0  0
   -3.2168    0.8626   -0.5101 H   0  0  0  0  0  0  0  0  0  0  0  0
   -1.0677   -0.2045   -0.3082 H   0  0  0  0  0  0  0  0  0  0  0  0
    1.8986    1.6839    0.5608 H   0  0  0  0  0  0  0  0  0  0  0  0
    0.9085    3.1220   -1.3639 H   0  0  0  0  0  0  0  0  0  0  0  0
    2.5322    2.3335   -1.5565 H   0  0  0  0  0  0  0  0  0  0  0  0
   -0.1471    1.5722   -2.8473 H   0  0  0  0  0  0  0  0  0  0  0  0
    1.5052    1.4535   -3.4755 H   0  0  0  0  0  0  0  0  0  0  0  0
    0.1309   -0.7300   -2.2146 H   0  0  0  0  0  0  0  0  0  0  0  0
    1.8146   -0.5970   -2.6998 H   0  0  0  0  0  0  0  0  0  0  0  0
    1.9454   -0.3705    2.0728 H   0  0  0  0  0  0  0  0  0  0  0  0
    3.0145   -2.1159    2.9958 H   0  0  0  0  0  0  0  0  0  0  0  0
    1.9811   -2.8645    1.9365 H   0  0  0  0  0  0  0  0  0  0  0  0
    4.3038   -0.1713    2.4953 H   0  0  0  0  0  0  0  0  0  0  0  0
    3.9366    0.7180    1.0041 H   0  0  0  0  0  0  0  0  0  0  0  0
    4.7243   -0.0751   -1.1775 H   0  0  0  0  0  0  0  0  0  0  0  0
    6.4151   -1.4613   -2.3598 H   0  0  0  0  0  0  0  0  0  0  0  0
    7.6181   -3.2021   -1.1958 H   0  0  0  0  0  0  0  0  0  0  0  0
    7.1870   -3.6189    1.1541 H   0  0  0  0  0  0  0  0  0  0  0  0
    5.5235   -2.2838    2.3925 H   0  0  0  0  0  0  0  0  0  0  0  0
    0.2529   -3.6961    0.5159 H   0  0  0  0  0  0  0  0  0  0  0  0
    0.4206   -5.9830    1.2920 H   0  0  0  0  0  0  0  0  0  0  0  0
   -1.2204   -6.9725    2.7269 H   0  0  0  0  0  0  0  0  0  0  0  0
   -3.2005   -5.5964    3.4691 H   0  0  0  0  0  0  0  0  0  0  0  0
  1  2  1  0
  2  3  1  0
  2  4  2  3
  4  5  1  0
  5  6  1  0
  6  7  1  0
  7  8  1  0
  8  9  1  0
  9 10  1  0
 10 11  2  0
 10 12  1  0
 12 13  1  0
 13 14  1  0
 14 15  1  0
 15 16  1  0
 16 17  1  0
 17 18  2  0
 17 19  1  0
 19 20  1  0
 19 21  1  0
 21 22  1  0
 22 23  2  0
 23 24  1  0
 24 25  2  0
 25 26  1  0
 26 27  2  0
  8 28  1  0
 28 29  2  0
 28 30  1  0
 30 31  2  0
 31 32  1  0
 32 33  2  0
 33 34  1  0
 34 35  2  0
 35 36  1  0
 36 37  2  0
 37 38  1  0
 16 12  1  0
 27 22  1  0
 38 30  1  0
 37 32  1  0
  1 39  1  0
  1 40  1  0
  3 41  1  0
  3 42  1  0
  5 43  1  0
  5 44  1  0
  6 45  1  0
  6 46  1  0
  7 47  1  0
  7 48  1  0
  8 49  1  0
  9 50  1  0
 12 51  1  1
 13 52  1  0
 13 53  1  0
 14 54  1  0
 14 55  1  0
 15 56  1  0
 15 57  1  0
 19 58  1  1
 20 59  1  0
 20 60  1  0
 21 61  1  0
 21 62  1  0
 23 63  1  0
 24 64  1  0
 25 65  1  0
 26 66  1  0
 27 67  1  0
 33 68  1  0
 34 69  1  0
 35 70  1  0
 36 71  1  0
M  END
$$$$
