@<TRIPOS>MOLECULE
*****
 71 74 0 0 0
SMALL
GASTEIGER

@<TRIPOS>ATOM
      1 N          -6.0522    4.7707   -1.7172 N.pl3   1  UNL1       -0.2893
      2 C          -4.9273    4.8701   -2.5566 C.cat   1  UNL1        0.3765
      3 N          -4.8459    5.8787   -3.5496 N.pl3   1  UNL1       -0.2893
      4 N          -3.9564    4.0407   -2.4277 N.pl3   1  UNL1       -0.1138
      5 C          -4.0454    3.0015   -1.3997 C.3     1  UNL1        0.1048
      6 C          -3.0380    3.3683   -0.3161 C.3     1  UNL1       -0.0166
      7 C          -3.0578    2.4143    0.8278 C.3     1  UNL1       -0.0242
      8 C          -2.6580    1.0020    0.5460 C.3     1  UNL1        0.0882
      9 N          -1.3147    0.7455    0.1369 N.am    1  UNL1       -0.3037
     10 C          -0.1999    1.6017    0.2478 C.2     1  UNL1        0.2341
     11 O          -0.3371    2.7565    0.8005 O.2     1  UNL1       -0.2738
     12 C           1.1773    1.3246   -0.2179 C.3     1  UNL1        0.1023
     13 C           1.4586    2.1691   -1.4905 C.3     1  UNL1       -0.0243
     14 C           0.8907    1.2879   -2.5771 C.3     1  UNL1       -0.0350
     15 C           1.0280   -0.0954   -2.0664 C.3     1  UNL1        0.0156
     16 N           1.4641    0.0287   -0.7049 N.am    1  UNL1       -0.2886
     17 C           2.1024   -1.0521    0.0127 C.2     1  UNL1        0.2333
     18 O           2.2640   -2.1889   -0.5500 O.2     1  UNL1       -0.2739
     19 C           2.5957   -0.9266    1.3966 C.3     1  UNL1        0.0865
     20 N           2.8082   -2.2608    1.9651 N.3     1  UNL1       -0.3197
     21 C           3.9828   -0.2670    1.4595 C.3     1  UNL1       -0.0039
     22 C           4.9846   -1.0667    0.7087 C.ar    1  UNL1       -0.0454
     23 C           5.2473   -0.8496   -0.6267 C.ar    1  UNL1       -0.0585
     24 C           6.1930   -1.6143   -1.3155 C.ar    1  UNL1       -0.0615
     25 C           6.8807   -2.6023   -0.6665 C.ar    1  UNL1       -0.0617
     26 C           6.6317   -2.8342    0.6681 C.ar    1  UNL1       -0.0615
     27 C           5.6977   -2.0739    1.3350 C.ar    1  UNL1       -0.0585
     28 C          -3.3278   -0.0127    1.3549 C.2     1  UNL1        0.2079
     29 O          -4.4541    0.2510    1.9236 O.2     1  UNL1       -0.2879
     30 C          -2.7795   -1.3256    1.5479 C.ar    1  UNL1        0.1465
     31 N          -1.8777   -2.0162    1.2412 N.ar    1  UNL1       -0.2360
     32 C          -1.6100   -3.2589    1.5523 C.ar    1  UNL1        0.0790
     33 C          -0.5205   -4.0532    1.1566 C.ar    1  UNL1       -0.0352
     34 C          -0.4240   -5.3446    1.5903 C.ar    1  UNL1       -0.0597
     35 C          -1.3481   -5.9509    2.4170 C.ar    1  UNL1       -0.0606
     36 C          -2.4305   -5.1943    2.8212 C.ar    1  UNL1       -0.0459
     37 C          -2.5461   -3.8652    2.3853 C.ar    1  UNL1        0.0396
     38 S          -3.7183   -2.5759    2.6326 S.2     1  UNL1       -0.0643
     39 H          -6.0785    5.1086   -0.7194 H       1  UNL1        0.2546
     40 H          -6.9405    4.3405   -2.0669 H       1  UNL1        0.2546
     41 H          -4.2906    6.7577   -3.4502 H       1  UNL1        0.2546
     42 H          -5.3612    5.7808   -4.4640 H       1  UNL1        0.2546
     43 H          -3.7175    2.0696   -1.8704 H       1  UNL1        0.0693
     44 H          -5.0375    2.9844   -0.9579 H       1  UNL1        0.0693
     45 H          -2.0582    3.3454   -0.8264 H       1  UNL1        0.0298
     46 H          -3.1719    4.4264    0.0038 H       1  UNL1        0.0298
     47 H          -4.1143    2.4301    1.2582 H       1  UNL1        0.0288
     48 H          -2.4277    2.8716    1.6409 H       1  UNL1        0.0288
     49 H          -3.2168    0.8626   -0.5101 H       1  UNL1        0.0582
     50 H          -1.0677   -0.2045   -0.3082 H       1  UNL1        0.1495
     51 H           1.8986    1.6839    0.5608 H       1  UNL1        0.0597
     52 H           0.9085    3.1220   -1.3639 H       1  UNL1        0.0288
     53 H           2.5322    2.3335   -1.5565 H       1  UNL1        0.0288
     54 H          -0.1471    1.5722   -2.8473 H       1  UNL1        0.0281
     55 H           1.5052    1.4535   -3.4755 H       1  UNL1        0.0281
     56 H           0.1309   -0.7300   -2.2146 H       1  UNL1        0.0465
     57 H           1.8146   -0.5970   -2.6998 H       1  UNL1        0.0465
     58 H           1.9454   -0.3705    2.0728 H       1  UNL1        0.0558
     59 H           3.0145   -2.1159    2.9958 H       1  UNL1        0.1189
     60 H           1.9811   -2.8645    1.9365 H       1  UNL1        0.1189
     61 H           4.3038   -0.1713    2.4953 H       1  UNL1        0.0333
     62 H           3.9366    0.7180    1.0041 H       1  UNL1        0.0333
     63 H           4.7243   -0.0751   -1.1775 H       1  UNL1        0.0620
     64 H           6.4151   -1.4613   -2.3598 H       1  UNL1        0.0618
     65 H           7.6181   -3.2021   -1.1958 H       1  UNL1        0.0618
     66 H           7.1870   -3.6189    1.1541 H       1  UNL1        0.0618
     67 H           5.5235   -2.2838    2.3925 H       1  UNL1        0.0620
     68 H           0.2529   -3.6961    0.5159 H       1  UNL1        0.0639
     69 H           0.4206   -5.9830    1.2920 H       1  UNL1        0.0618
     70 H          -1.2204   -6.9725    2.7269 H       1  UNL1        0.0618
     71 H          -3.2005   -5.5964    3.4691 H       1  UNL1        0.0629
@<TRIPOS>BOND
     1     1     2    1
     2     2     3    1
     3     2     4    2
     4     4     5    1
     5     5     6    1
     6     6     7    1
     7     7     8    1
     8     8     9    1
     9     9    10   am
    10    10    11    2
    11    10    12    1
    12    12    13    1
    13    13    14    1
    14    14    15    1
    15    15    16    1
    16    16    17   am
    17    17    18    2
    18    17    19    1
    19    19    20    1
    20    19    21    1
    21    21    22    1
    22    22    23   ar
    23    23    24   ar
    24    24    25   ar
    25    25    26   ar
    26    26    27   ar
    27     8    28    1
    28    28    29    2
    29    28    30    1
    30    30    31   ar
    31    31    32   ar
    32    32    33   ar
    33    33    34   ar
    34    34    35   ar
    35    35    36   ar
    36    36    37   ar
    37    37    38   ar
    38    16    12    1
    39    27    22   ar
    40    38    30   ar
    41    37    32   ar
    42     1    39    1
    43     1    40    1
    44     3    41    1
    45     3    42    1
    46     5    43    1
    47     5    44    1
    48     6    45    1
    49     6    46    1
    50     7    47    1
    51     7    48    1
    52     8    49    1
    53     9    50    1
    54    12    51    1
    55    13    52    1
    56    13    53    1
    57    14    54    1
    58    14    55    1
    59    15    56    1
    60    15    57    1
    61    19    58    1
    62    20    59    1
    63    20    60    1
    64    21    61    1
    65    21    62    1
    66    23    63    1
    67    24    64    1
    68    25    65    1
    69    26    66    1
    70    27    67    1
    71    33    68    1
    72    34    69    1
    73    35    70    1
    74    36    71    1
