@<TRIPOS>MOLECULE
*****
 66 71 0 0 0
SMALL
GASTEIGER

@<TRIPOS>ATOM
      1 C           2.2336   -1.3729    0.0523 C.3     1  UNL1       -0.0358
      2 C           1.8421   -1.1081    1.4460 C.ar    1  UNL1        0.0011
      3 C           2.6931   -1.1305    2.5502 C.ar    1  UNL1        0.0596
      4 N           4.0894   -1.4311    2.4716 N.am    1  UNL1       -0.2494
      5 C           5.0641   -0.3859    2.2634 C.2     1  UNL1        0.4047
      6 O           4.5742    0.7695    2.1634 O.2     1  UNL1       -0.2261
      7 O           6.4113   -0.6728    2.1866 O.3     1  UNL1       -0.4485
      8 C           7.3481    0.3449    1.9779 C.3     1  UNL1        0.1115
      9 C           7.1106    1.0006    0.6579 C.3     1  UNL1        0.0657
     10 C           7.2074   -0.0743   -0.4115 C.3     1  UNL1        0.0662
     11 O           8.5147   -0.0972   -0.8735 O.3     1  UNL1       -0.3769
     12 C           8.6759    1.0030   -1.7328 C.3     1  UNL1        0.0602
     13 C           8.0901    2.2137   -1.0732 C.3     1  UNL1        0.0198
     14 N           8.0679    2.0632    0.3878 N.3     1  UNL1       -0.3062
     15 C           1.9506   -0.8271    3.6444 C.ar    1  UNL1        0.0515
     16 N           0.6659   -0.6130    3.2857 N.ar    1  UNL1       -0.2331
     17 N          -0.3946   -0.2918    4.0253 N.ar    1  UNL1       -0.1548
     18 C          -1.5739   -0.1328    3.4159 C.ar    1  UNL1        0.1388
     19 N          -1.7166   -0.2844    2.1089 N.ar    1  UNL1       -0.2167
     20 C          -0.6538   -0.6114    1.3325 C.ar    1  UNL1        0.1507
     21 N          -0.8241   -0.7719   -0.0645 N.pl3   1  UNL1       -0.2977
     22 C          -2.0661   -0.4480   -0.6591 C.ar    1  UNL1        0.0332
     23 C          -2.8795    0.5421   -0.1827 C.ar    1  UNL1       -0.0385
     24 C          -4.1112    0.8172   -0.7854 C.ar    1  UNL1       -0.0343
     25 C          -4.4729    0.0582   -1.8717 C.ar    1  UNL1        0.0694
     26 C          -3.6729   -0.9480   -2.3766 C.ar    1  UNL1        0.0215
     27 C          -4.3419   -1.4818   -3.4460 C.ar    1  UNL1        0.0572
     28 N          -5.4849   -0.8221   -3.5681 N.ar    1  UNL1       -0.1782
     29 N          -5.5866    0.1188   -2.6219 N.ar    1  UNL1       -0.2594
     30 C          -6.7309    0.9756   -2.5212 C.3     1  UNL1        0.0673
     31 C          -7.8151    0.4765   -1.7000 C.ar    1  UNL1       -0.0234
     32 C          -8.8439   -0.3285   -2.1827 C.ar    1  UNL1       -0.0566
     33 C          -9.8592   -0.7808   -1.3654 C.ar    1  UNL1       -0.0587
     34 C          -9.8796   -0.4424   -0.0349 C.ar    1  UNL1       -0.0264
     35 C          -8.8739    0.3533    0.4709 C.ar    1  UNL1        0.1237
     36 F          -8.8994    0.6848    1.7885 F       1  UNL1       -0.2055
     37 C          -7.8724    0.7926   -0.3610 C.ar    1  UNL1       -0.0215
     38 C          -2.4618   -1.1984   -1.7616 C.ar    1  UNL1       -0.0298
     39 C           0.5987   -0.7862    1.9328 C.ar    1  UNL1        0.1101
     40 H           2.0664   -0.4983   -0.6006 H       1  UNL1        0.0279
     41 H           3.3733   -1.4934    0.0258 H       1  UNL1        0.0279
     42 H           1.8233   -2.2689   -0.4039 H       1  UNL1        0.0279
     43 H           4.4641   -2.4024    2.5590 H       1  UNL1        0.1582
     44 H           8.3855   -0.0753    2.0583 H       1  UNL1        0.0714
     45 H           7.2151    1.0697    2.8356 H       1  UNL1        0.0714
     46 H           6.1075    1.4525    0.6443 H       1  UNL1        0.0517
     47 H           6.4804    0.1924   -1.2119 H       1  UNL1        0.0576
     48 H           6.9038   -1.0688   -0.0308 H       1  UNL1        0.0576
     49 H           8.1671    0.7276   -2.6745 H       1  UNL1        0.0572
     50 H           9.7701    1.1174   -1.8822 H       1  UNL1        0.0572
     51 H           7.0069    2.2748   -1.3711 H       1  UNL1        0.0447
     52 H           8.6399    3.1283   -1.3730 H       1  UNL1        0.0447
     53 H           7.6681    2.9513    0.7613 H       1  UNL1        0.1225
     54 H           2.2919   -0.7562    4.6638 H       1  UNL1        0.0849
     55 H          -2.4392    0.1344    4.0511 H       1  UNL1        0.1066
     56 H          -0.0843   -1.1238   -0.6752 H       1  UNL1        0.1536
     57 H          -2.6401    1.1833    0.6601 H       1  UNL1        0.0637
     58 H          -4.7841    1.5855   -0.4477 H       1  UNL1        0.0639
     59 H          -3.9422   -2.3086   -4.0498 H       1  UNL1        0.0854
     60 H          -6.3541    1.9742   -2.1648 H       1  UNL1        0.0559
     61 H          -7.1133    1.1816   -3.5438 H       1  UNL1        0.0559
     62 H          -8.8264   -0.5923   -3.2240 H       1  UNL1        0.0621
     63 H         -10.6725   -1.4095   -1.7190 H       1  UNL1        0.0619
     64 H         -10.6730   -0.7868    0.6383 H       1  UNL1        0.0646
     65 H          -7.1067    1.4140    0.0776 H       1  UNL1        0.0649
     66 H          -1.8500   -1.9899   -2.1714 H       1  UNL1        0.0643
@<TRIPOS>BOND
     1     1     2    1
     2     2     3   ar
     3     3     4    1
     4     4     5   am
     5     5     6    2
     6     5     7    1
     7     7     8    1
     8     8     9    1
     9     9    10    1
    10    10    11    1
    11    11    12    1
    12    12    13    1
    13    13    14    1
    14     3    15   ar
    15    15    16   ar
    16    16    17   ar
    17    17    18   ar
    18    18    19   ar
    19    19    20   ar
    20    20    21    1
    21    21    22    1
    22    22    23   ar
    23    23    24   ar
    24    24    25   ar
    25    25    26   ar
    26    26    27   ar
    27    27    28   ar
    28    28    29   ar
    29    29    30    1
    30    30    31    1
    31    31    32   ar
    32    32    33   ar
    33    33    34   ar
    34    34    35   ar
    35    35    36    1
    36    35    37   ar
    37    26    38   ar
    38    20    39   ar
    39    39     2   ar
    40    14     9    1
    41    39    16   ar
    42    38    22   ar
    43    29    25   ar
    44    37    31   ar
    45     1    40    1
    46     1    41    1
    47     1    42    1
    48     4    43    1
    49     8    44    1
    50     8    45    1
    51     9    46    1
    52    10    47    1
    53    10    48    1
    54    12    49    1
    55    12    50    1
    56    13    51    1
    57    13    52    1
    58    14    53    1
    59    15    54    1
    60    18    55    1
    61    21    56    1
    62    23    57    1
    63    24    58    1
    64    27    59    1
    65    30    60    1
    66    30    61    1
    67    32    62    1
    68    33    63    1
    69    34    64    1
    70    37    65    1
    71    38    66    1
