
     RDKit          3D

 33 36  0  0  0  0  0  0  0  0999 V2000
   -0.1059   -3.3218   -2.0435 O   0  0  0  0  0  0  0  0  0  0  0  0
   -0.1336   -2.2534   -1.3835 C   0  0  0  0  0  0  0  0  0  0  0  0
   -1.3683   -1.7257   -1.0021 C   0  0  0  0  0  0  0  0  0  0  0  0
   -1.3547   -0.5574   -0.2823 C   0  0  0  0  0  0  0  0  0  0  0  0
   -2.5966    0.0408    0.1428 C   0  0  0  0  0  0  0  0  0  0  0  0
   -2.5856    1.2334    0.8777 C   0  0  0  0  0  0  0  0  0  0  0  0
   -3.7752    1.7972    1.2794 C   0  0  0  0  0  0  0  0  0  0  0  0
   -4.9957    1.2486    0.9964 C   0  0  0  0  0  0  0  0  0  0  0  0
   -5.0160    0.0768    0.2747 C   0  0  0  0  0  0  0  0  0  0  0  0
   -3.8161   -0.5102   -0.1416 C   0  0  0  0  0  0  0  0  0  0  0  0
   -0.2025    0.0413    0.0346 O   0  0  0  0  0  0  0  0  0  0  0  0
    0.9682   -0.4216   -0.3039 C   0  0  0  0  0  0  0  0  0  0  0  0
    1.0361   -1.6102   -1.0398 C   0  0  0  0  0  0  0  0  0  0  0  0
    2.2793   -2.0853   -1.3892 C   0  0  0  0  0  0  0  0  0  0  0  0
    3.4462   -1.4228   -1.0336 C   0  0  0  0  0  0  0  0  0  0  0  0
    3.3403   -0.2491   -0.3050 C   0  0  0  0  0  0  0  0  0  0  0  0
    4.5238    0.3979    0.0403 C   0  0  0  0  0  0  0  0  0  0  0  0
    4.4794    1.5575    0.7573 C   0  0  0  0  0  0  0  0  0  0  0  0
    3.2332    2.0526    1.1191 C   0  0  0  0  0  0  0  0  0  0  0  0
    2.0718    1.4306    0.7882 C   0  0  0  0  0  0  0  0  0  0  0  0
    2.1107    0.2576    0.0632 C   0  0  0  0  0  0  0  0  0  0  0  0
   -2.2473   -2.2730   -1.2998 H   0  0  0  0  0  0  0  0  0  0  0  0
   -1.6218    1.6516    1.0919 H   0  0  0  0  0  0  0  0  0  0  0  0
   -3.7667    2.7197    1.8478 H   0  0  0  0  0  0  0  0  0  0  0  0
   -5.9373    1.6818    1.3062 H   0  0  0  0  0  0  0  0  0  0  0  0
   -5.9718   -0.3714    0.0417 H   0  0  0  0  0  0  0  0  0  0  0  0
   -3.9086   -1.4259   -0.7021 H   0  0  0  0  0  0  0  0  0  0  0  0
    2.2942   -3.0121   -1.9614 H   0  0  0  0  0  0  0  0  0  0  0  0
    4.3878   -1.8534   -1.3418 H   0  0  0  0  0  0  0  0  0  0  0  0
    5.4938    0.0039   -0.2466 H   0  0  0  0  0  0  0  0  0  0  0  0
    5.3982    2.0834    1.0400 H   0  0  0  0  0  0  0  0  0  0  0  0
    3.2129    2.9607    1.6800 H   0  0  0  0  0  0  0  0  0  0  0  0
    1.1278    1.8581    1.0946 H   0  0  0  0  0  0  0  0  0  0  0  0
  1  2  2  0
  2  3  1  0
  3  4  2  0
  4  5  1  0
  5  6  2  0
  6  7  1  0
  7  8  2  0
  8  9  1  0
  9 10  2  0
  4 11  1  0
 11 12  1  0
 12 13  2  0
 13 14  1  0
 14 15  2  0
 15 16  1  0
 16 17  2  0
 17 18  1  0
 18 19  2  0
 19 20  1  0
 20 21  2  0
 13  2  1  0
 21 16  1  0
 10  5  1  0
 21 12  1  0
  3 22  1  0
  6 23  1  0
  7 24  1  0
  8 25  1  0
  9 26  1  0
 10 27  1  0
 14 28  1  0
 15 29  1  0
 17 30  1  0
 18 31  1  0
 19 32  1  0
 20 33  1  0
M  END
$$$$
