@<TRIPOS>MOLECULE
*****
 33 36 0 0 0
SMALL
GASTEIGER

@<TRIPOS>ATOM
      1 O          -0.1059   -3.3218   -2.0435 O.2     1  UNL1       -0.2870
      2 C          -0.1336   -2.2534   -1.3835 C.ar    1  UNL1        0.1931
      3 C          -1.3683   -1.7257   -1.0021 C.ar    1  UNL1        0.0287
      4 C          -1.3547   -0.5574   -0.2823 C.ar    1  UNL1        0.1392
      5 C          -2.5966    0.0408    0.1428 C.ar    1  UNL1        0.0174
      6 C          -2.5856    1.2334    0.8777 C.ar    1  UNL1       -0.0511
      7 C          -3.7752    1.7972    1.2794 C.ar    1  UNL1       -0.0611
      8 C          -4.9957    1.2486    0.9964 C.ar    1  UNL1       -0.0617
      9 C          -5.0160    0.0768    0.2747 C.ar    1  UNL1       -0.0611
     10 C          -3.8161   -0.5102   -0.1416 C.ar    1  UNL1       -0.0511
     11 O          -0.2025    0.0413    0.0346 O.2     1  UNL1       -0.4540
     12 C           0.9682   -0.4216   -0.3039 C.ar    1  UNL1        0.1469
     13 C           1.0361   -1.6102   -1.0398 C.ar    1  UNL1        0.0646
     14 C           2.2793   -2.0853   -1.3892 C.ar    1  UNL1       -0.0468
     15 C           3.4462   -1.4228   -1.0336 C.ar    1  UNL1       -0.0531
     16 C           3.3403   -0.2491   -0.3050 C.ar    1  UNL1       -0.0143
     17 C           4.5238    0.3979    0.0403 C.ar    1  UNL1       -0.0539
     18 C           4.4794    1.5575    0.7573 C.ar    1  UNL1       -0.0612
     19 C           3.2332    2.0526    1.1191 C.ar    1  UNL1       -0.0611
     20 C           2.0718    1.4306    0.7882 C.ar    1  UNL1       -0.0505
     21 C           2.1107    0.2576    0.0632 C.ar    1  UNL1        0.0251
     22 H          -2.2473   -2.2730   -1.2998 H       1  UNL1        0.0693
     23 H          -1.6218    1.6516    1.0919 H       1  UNL1        0.0625
     24 H          -3.7667    2.7197    1.8478 H       1  UNL1        0.0618
     25 H          -5.9373    1.6818    1.3062 H       1  UNL1        0.0618
     26 H          -5.9718   -0.3714    0.0417 H       1  UNL1        0.0618
     27 H          -3.9086   -1.4259   -0.7021 H       1  UNL1        0.0625
     28 H           2.2942   -3.0121   -1.9614 H       1  UNL1        0.0626
     29 H           4.3878   -1.8534   -1.3418 H       1  UNL1        0.0624
     30 H           5.4938    0.0039   -0.2466 H       1  UNL1        0.0624
     31 H           5.3982    2.0834    1.0400 H       1  UNL1        0.0618
     32 H           3.2129    2.9607    1.6800 H       1  UNL1        0.0618
     33 H           1.1278    1.8581    1.0946 H       1  UNL1        0.0625
@<TRIPOS>BOND
     1     1     2    2
     2     2     3   ar
     3     3     4   ar
     4     4     5    1
     5     5     6   ar
     6     6     7   ar
     7     7     8   ar
     8     8     9   ar
     9     9    10   ar
    10     4    11   ar
    11    11    12   ar
    12    12    13   ar
    13    13    14   ar
    14    14    15   ar
    15    15    16   ar
    16    16    17   ar
    17    17    18   ar
    18    18    19   ar
    19    19    20   ar
    20    20    21   ar
    21    13     2   ar
    22    21    16   ar
    23    10     5   ar
    24    21    12   ar
    25     3    22    1
    26     6    23    1
    27     7    24    1
    28     8    25    1
    29     9    26    1
    30    10    27    1
    31    14    28    1
    32    15    29    1
    33    17    30    1
    34    18    31    1
    35    19    32    1
    36    20    33    1
