@<TRIPOS>MOLECULE
*****
 30 31 0 0 0
SMALL
GASTEIGER

@<TRIPOS>ATOM
      1 O           5.1511   -1.5515   -1.3612 O.3     1  UNL1       -0.4783
      2 C           4.8146   -1.5511   -0.0076 C.2     1  UNL1        0.3427
      3 O           5.7218   -2.0860    0.7124 O.2     1  UNL1       -0.2472
      4 C           3.5596   -1.0080    0.6089 C.3     1  UNL1        0.1858
      5 O           2.8029   -0.5059   -0.4497 O.3     1  UNL1       -0.4783
      6 C           1.5449    0.0988   -0.3230 C.ar    1  UNL1        0.1569
      7 C           1.5808    1.4389   -0.1395 C.ar    1  UNL1        0.1393
      8 S          -0.1299    1.8861   -0.0189 S.2     1  UNL1       -0.0770
      9 C          -0.7973    0.1948   -0.2289 C.ar    1  UNL1        0.0377
     10 C           0.3706   -0.5970   -0.3784 C.ar    1  UNL1        0.0751
     11 BR          0.2943   -2.4904   -0.6367 Br      1  UNL1       -0.0453
     12 C          -2.2225   -0.1169   -0.2226 C.ar    1  UNL1       -0.0099
     13 C          -2.8514   -1.3013   -0.3641 C.ar    1  UNL1       -0.0501
     14 C          -4.2016   -1.5158   -0.3470 C.ar    1  UNL1       -0.0196
     15 C          -4.9938   -0.4069   -0.1668 C.ar    1  UNL1        0.1169
     16 O          -6.3607   -0.5726   -0.1423 O.3     1  UNL1       -0.5068
     17 C          -4.4398    0.8433   -0.0136 C.ar    1  UNL1       -0.0196
     18 C          -3.0691    0.9635   -0.0444 C.ar    1  UNL1       -0.0501
     19 C           2.6483    2.3984   -0.0447 C.2     1  UNL1        0.3471
     20 O           2.3751    3.7418    0.1509 O.3     1  UNL1       -0.4767
     21 O           3.8200    2.0180   -0.1390 O.2     1  UNL1       -0.2444
     22 H           6.1184   -1.3048   -1.5997 H       1  UNL1        0.2952
     23 H           3.7815   -0.2673    1.3878 H       1  UNL1        0.0815
     24 H           3.0245   -1.8668    1.0932 H       1  UNL1        0.0815
     25 H          -2.1952   -2.1383   -0.5022 H       1  UNL1        0.0625
     26 H          -4.5579   -2.5120   -0.4720 H       1  UNL1        0.0654
     27 H          -6.9917    0.1550    0.1349 H       1  UNL1        0.2921
     28 H          -5.1066    1.6833    0.1252 H       1  UNL1        0.0654
     29 H          -2.7421    2.0012    0.0873 H       1  UNL1        0.0625
     30 H           3.0510    4.3698    0.5875 H       1  UNL1        0.2954
@<TRIPOS>BOND
     1     1     2    1
     2     2     3    2
     3     2     4    1
     4     4     5    1
     5     5     6    1
     6     6     7   ar
     7     7     8   ar
     8     8     9   ar
     9     9    10   ar
    10    10    11    1
    11     9    12    1
    12    12    13   ar
    13    13    14   ar
    14    14    15   ar
    15    15    16    1
    16    15    17   ar
    17    17    18   ar
    18     7    19    1
    19    19    20    1
    20    19    21    2
    21    10     6   ar
    22    18    12   ar
    23     1    22    1
    24     4    23    1
    25     4    24    1
    26    13    25    1
    27    14    26    1
    28    16    27    1
    29    17    28    1
    30    18    29    1
    31    20    30    1
