@<TRIPOS>MOLECULE
*****
 38 41 0 0 0
SMALL
GASTEIGER

@<TRIPOS>ATOM
      1 F          -3.5828   -4.5838    0.1188 F       1  UNL1       -0.2025
      2 C          -3.1866   -3.2903    0.1058 C.ar    1  UNL1        0.1584
      3 C          -3.6898   -2.3536   -0.7929 C.ar    1  UNL1       -0.0230
      4 C          -3.2456   -1.0516   -0.7539 C.ar    1  UNL1       -0.0496
      5 C          -2.3019   -0.5997    0.1494 C.ar    1  UNL1        0.0053
      6 C          -1.8741    0.7917    0.1405 C.ar    1  UNL1        0.0968
      7 N          -2.5962    1.9137    0.3643 N.ar    1  UNL1       -0.2351
      8 C          -1.7954    2.9922    0.2519 C.ar    1  UNL1        0.0972
      9 N          -0.5423    2.5303   -0.0496 N.ar    1  UNL1       -0.3241
     10 C           0.5737    3.3966   -0.2351 C.3     1  UNL1        0.0852
     11 C           1.3425    3.7733    0.9696 C.3     1  UNL1        0.2569
     12 F           1.8605    2.6689    1.5811 F       1  UNL1       -0.2073
     13 F           0.6571    4.5905    1.8444 F       1  UNL1       -0.2073
     14 C          -0.5824    1.1983   -0.1188 C.ar    1  UNL1        0.0780
     15 C           0.5176    0.3103   -0.4292 C.ar    1  UNL1        0.0172
     16 C           0.8074   -0.0591   -1.7483 C.ar    1  UNL1       -0.0477
     17 C           1.8491   -0.9108   -2.0427 C.ar    1  UNL1       -0.0182
     18 C           2.6530   -1.4378   -1.0493 C.ar    1  UNL1        0.1375
     19 N           3.7139   -2.2711   -1.0240 N.ar    1  UNL1       -0.2361
     20 C           4.1029   -2.4413    0.2501 C.ar    1  UNL1        0.0464
     21 C           3.2458   -1.6829    1.0234 C.ar    1  UNL1        0.0293
     22 N           2.3640   -1.0753    0.2082 N.ar    1  UNL1       -0.3060
     23 C           1.3583   -0.2511    0.5094 C.ar    1  UNL1        0.0204
     24 C          -1.8056   -1.5194    1.0345 C.ar    1  UNL1       -0.0143
     25 C          -2.2454   -2.8340    1.0048 C.ar    1  UNL1        0.1590
     26 F          -1.7354   -3.7246    1.8943 F       1  UNL1       -0.2025
     27 H          -4.4244   -2.7092   -1.4940 H       1  UNL1        0.0647
     28 H          -3.6425   -0.3356   -1.4544 H       1  UNL1        0.0625
     29 H          -2.1118    3.9958    0.3801 H       1  UNL1        0.1029
     30 H           0.2426    4.3196   -0.8009 H       1  UNL1        0.0548
     31 H           1.3058    2.9124   -0.9493 H       1  UNL1        0.0548
     32 H           2.2120    4.4017    0.6150 H       1  UNL1        0.1037
     33 H           0.1876    0.3453   -2.5340 H       1  UNL1        0.0626
     34 H           2.0876   -1.2086   -3.0573 H       1  UNL1        0.0654
     35 H           4.9042   -3.0269    0.6749 H       1  UNL1        0.0845
     36 H           3.2857   -1.5988    2.1036 H       1  UNL1        0.0829
     37 H           1.1593    0.0171    1.5565 H       1  UNL1        0.0820
     38 H          -1.0686   -1.1922    1.7531 H       1  UNL1        0.0654
@<TRIPOS>BOND
     1     1     2    1
     2     2     3   ar
     3     3     4   ar
     4     4     5   ar
     5     5     6    1
     6     6     7   ar
     7     7     8   ar
     8     8     9   ar
     9     9    10    1
    10    10    11    1
    11    11    12    1
    12    11    13    1
    13     9    14   ar
    14    14    15    1
    15    15    16   ar
    16    16    17   ar
    17    17    18   ar
    18    18    19   ar
    19    19    20   ar
    20    20    21   ar
    21    21    22   ar
    22    22    23   ar
    23     5    24   ar
    24    24    25   ar
    25    25    26    1
    26    25     2   ar
    27    14     6   ar
    28    23    15   ar
    29    22    18   ar
    30     3    27    1
    31     4    28    1
    32     8    29    1
    33    10    30    1
    34    10    31    1
    35    11    32    1
    36    16    33    1
    37    17    34    1
    38    20    35    1
    39    21    36    1
    40    23    37    1
    41    24    38    1
