@<TRIPOS>MOLECULE
*****
 40 42 0 0 0
SMALL
GASTEIGER

@<TRIPOS>ATOM
      1 C          -3.6505    2.2464    0.6128 C.3     1  UNL1        0.0115
      2 N          -3.1962    0.8556    0.3476 N.am    1  UNL1       -0.2400
      3 C          -1.7929    0.6754    0.3140 C.2     1  UNL1        0.4123
      4 O          -1.2148   -0.4131    0.1075 O.2     1  UNL1       -0.2254
      5 O          -0.9272    1.7589    0.5202 O.3     1  UNL1       -0.4112
      6 C           0.4392    1.6357    0.4974 C.ar    1  UNL1        0.1335
      7 C           1.1835    1.3525    1.6228 C.ar    1  UNL1       -0.0157
      8 C           2.5542    1.2440    1.5206 C.ar    1  UNL1       -0.0158
      9 C           3.2115    1.4122    0.3117 C.ar    1  UNL1        0.1306
     10 O           4.5867    1.3097    0.1755 O.3     1  UNL1       -0.4380
     11 C           5.2191    0.1059   -0.1158 C.ar    1  UNL1        0.2205
     12 C           4.4625   -1.0241   -0.2753 C.ar    1  UNL1        0.0018
     13 C           5.0423   -2.2413   -0.5648 C.ar    1  UNL1       -0.0369
     14 C           6.4192   -2.2770   -0.6880 C.ar    1  UNL1        0.0593
     15 CL          7.2603   -3.7861   -1.0572 Cl      1  UNL1       -0.0820
     16 C           7.1822   -1.1354   -0.5267 C.ar    1  UNL1        0.0497
     17 N           6.5542    0.0241   -0.2446 N.ar    1  UNL1       -0.2195
     18 C           2.4764    1.6959   -0.8206 C.ar    1  UNL1       -0.0158
     19 C           1.0941    1.8026   -0.7031 C.ar    1  UNL1       -0.0157
     20 C          -4.1535   -0.1447    0.1558 C.ar    1  UNL1        0.0391
     21 C          -3.8924   -1.4448   -0.1028 C.ar    1  UNL1       -0.0402
     22 C          -4.9264   -2.3838   -0.2800 C.ar    1  UNL1       -0.0600
     23 C          -6.2385   -2.0182   -0.1976 C.ar    1  UNL1       -0.0616
     24 C          -6.5242   -0.6982    0.0652 C.ar    1  UNL1       -0.0600
     25 C          -5.5050    0.2157    0.2376 C.ar    1  UNL1       -0.0402
     26 H          -4.3557    2.5626   -0.1824 H       1  UNL1        0.0434
     27 H          -4.1042    2.2105    1.6198 H       1  UNL1        0.0434
     28 H          -2.7649    2.8760    0.6089 H       1  UNL1        0.0434
     29 H           0.7053    1.2127    2.5934 H       1  UNL1        0.0655
     30 H           3.1887    1.0226    2.3743 H       1  UNL1        0.0655
     31 H           3.3660   -1.0260   -0.1832 H       1  UNL1        0.0671
     32 H           4.4786   -3.1557   -0.6980 H       1  UNL1        0.0634
     33 H           8.2575   -1.2085   -0.6318 H       1  UNL1        0.0846
     34 H           2.9343    1.8371   -1.7888 H       1  UNL1        0.0655
     35 H           0.5441    2.0291   -1.6250 H       1  UNL1        0.0655
     36 H          -2.8751   -1.7929   -0.1799 H       1  UNL1        0.0636
     37 H          -4.6699   -3.4031   -0.4832 H       1  UNL1        0.0618
     38 H          -7.0264   -2.7496   -0.3358 H       1  UNL1        0.0618
     39 H          -7.5703   -0.4290    0.1265 H       1  UNL1        0.0618
     40 H          -5.7717    1.2459    0.4437 H       1  UNL1        0.0636
@<TRIPOS>BOND
     1     1     2    1
     2     2     3   am
     3     3     4    2
     4     3     5    1
     5     5     6    1
     6     6     7   ar
     7     7     8   ar
     8     8     9   ar
     9     9    10    1
    10    10    11    1
    11    11    12   ar
    12    12    13   ar
    13    13    14   ar
    14    14    15    1
    15    14    16   ar
    16    16    17   ar
    17     9    18   ar
    18    18    19   ar
    19     2    20    1
    20    20    21   ar
    21    21    22   ar
    22    22    23   ar
    23    23    24   ar
    24    24    25   ar
    25    19     6   ar
    26    25    20   ar
    27    17    11   ar
    28     1    26    1
    29     1    27    1
    30     1    28    1
    31     7    29    1
    32     8    30    1
    33    12    31    1
    34    13    32    1
    35    16    33    1
    36    18    34    1
    37    19    35    1
    38    21    36    1
    39    22    37    1
    40    23    38    1
    41    24    39    1
    42    25    40    1
