
     RDKit          3D

 40 42  0  0  0  0  0  0  0  0999 V2000
   -3.6505    2.2464    0.6128 C   0  0  0  0  0  0  0  0  0  0  0  0
   -3.1962    0.8556    0.3476 N   0  0  0  0  0  0  0  0  0  0  0  0
   -1.7929    0.6754    0.3140 C   0  0  0  0  0  0  0  0  0  0  0  0
   -1.2148   -0.4131    0.1075 O   0  0  0  0  0  0  0  0  0  0  0  0
   -0.9272    1.7589    0.5202 O   0  0  0  0  0  0  0  0  0  0  0  0
    0.4392    1.6357    0.4974 C   0  0  0  0  0  0  0  0  0  0  0  0
    1.1835    1.3525    1.6228 C   0  0  0  0  0  0  0  0  0  0  0  0
    2.5542    1.2440    1.5206 C   0  0  0  0  0  0  0  0  0  0  0  0
    3.2115    1.4122    0.3117 C   0  0  0  0  0  0  0  0  0  0  0  0
    4.5867    1.3097    0.1755 O   0  0  0  0  0  0  0  0  0  0  0  0
    5.2191    0.1059   -0.1158 C   0  0  0  0  0  0  0  0  0  0  0  0
    4.4625   -1.0241   -0.2753 C   0  0  0  0  0  0  0  0  0  0  0  0
    5.0423   -2.2413   -0.5648 C   0  0  0  0  0  0  0  0  0  0  0  0
    6.4192   -2.2770   -0.6880 C   0  0  0  0  0  0  0  0  0  0  0  0
    7.2603   -3.7861   -1.0572 Cl  0  0  0  0  0  0  0  0  0  0  0  0
    7.1822   -1.1354   -0.5267 C   0  0  0  0  0  0  0  0  0  0  0  0
    6.5542    0.0241   -0.2446 N   0  0  0  0  0  0  0  0  0  0  0  0
    2.4764    1.6959   -0.8206 C   0  0  0  0  0  0  0  0  0  0  0  0
    1.0941    1.8026   -0.7031 C   0  0  0  0  0  0  0  0  0  0  0  0
   -4.1535   -0.1447    0.1558 C   0  0  0  0  0  0  0  0  0  0  0  0
   -3.8924   -1.4448   -0.1028 C   0  0  0  0  0  0  0  0  0  0  0  0
   -4.9264   -2.3838   -0.2800 C   0  0  0  0  0  0  0  0  0  0  0  0
   -6.2385   -2.0182   -0.1976 C   0  0  0  0  0  0  0  0  0  0  0  0
   -6.5242   -0.6982    0.0652 C   0  0  0  0  0  0  0  0  0  0  0  0
   -5.5050    0.2157    0.2376 C   0  0  0  0  0  0  0  0  0  0  0  0
   -4.3557    2.5626   -0.1824 H   0  0  0  0  0  0  0  0  0  0  0  0
   -4.1042    2.2105    1.6198 H   0  0  0  0  0  0  0  0  0  0  0  0
   -2.7649    2.8760    0.6089 H   0  0  0  0  0  0  0  0  0  0  0  0
    0.7053    1.2127    2.5934 H   0  0  0  0  0  0  0  0  0  0  0  0
    3.1887    1.0226    2.3743 H   0  0  0  0  0  0  0  0  0  0  0  0
    3.3660   -1.0260   -0.1832 H   0  0  0  0  0  0  0  0  0  0  0  0
    4.4786   -3.1557   -0.6980 H   0  0  0  0  0  0  0  0  0  0  0  0
    8.2575   -1.2085   -0.6318 H   0  0  0  0  0  0  0  0  0  0  0  0
    2.9343    1.8371   -1.7888 H   0  0  0  0  0  0  0  0  0  0  0  0
    0.5441    2.0291   -1.6250 H   0  0  0  0  0  0  0  0  0  0  0  0
   -2.8751   -1.7929   -0.1799 H   0  0  0  0  0  0  0  0  0  0  0  0
   -4.6699   -3.4031   -0.4832 H   0  0  0  0  0  0  0  0  0  0  0  0
   -7.0264   -2.7496   -0.3358 H   0  0  0  0  0  0  0  0  0  0  0  0
   -7.5703   -0.4290    0.1265 H   0  0  0  0  0  0  0  0  0  0  0  0
   -5.7717    1.2459    0.4437 H   0  0  0  0  0  0  0  0  0  0  0  0
  1  2  1  0
  2  3  1  0
  3  4  2  0
  3  5  1  0
  5  6  1  0
  6  7  2  0
  7  8  1  0
  8  9  2  0
  9 10  1  0
 10 11  1  0
 11 12  2  0
 12 13  1  0
 13 14  2  0
 14 15  1  0
 14 16  1  0
 16 17  2  0
  9 18  1  0
 18 19  2  0
  2 20  1  0
 20 21  2  0
 21 22  1  0
 22 23  2  0
 23 24  1  0
 24 25  2  0
 19  6  1  0
 25 20  1  0
 17 11  1  0
  1 26  1  0
  1 27  1  0
  1 28  1  0
  7 29  1  0
  8 30  1  0
 12 31  1  0
 13 32  1  0
 16 33  1  0
 18 34  1  0
 19 35  1  0
 21 36  1  0
 22 37  1  0
 23 38  1  0
 24 39  1  0
 25 40  1  0
M  END
$$$$
