@<TRIPOS>MOLECULE
*****
 89 93 0 0 0
SMALL
GASTEIGER

@<TRIPOS>ATOM
      1 C           9.9768    4.0559    1.5540 C.3     1  UNL1       -0.0306
      2 C           8.6090    3.4534    1.3182 C.3     1  UNL1        0.0884
      3 O           8.4815    2.9046    0.0167 O.3     1  UNL1       -0.4766
      4 C           7.3162    2.3141   -0.4166 C.ar    1  UNL1        0.2147
      5 C           7.1206    1.7771   -1.6306 C.ar    1  UNL1        0.0006
      6 C           5.9202    1.2111   -1.9788 C.ar    1  UNL1       -0.0476
      7 C           4.8762    1.1872   -1.0612 C.ar    1  UNL1        0.0005
      8 C           3.5950    0.6180   -1.4382 C.ar    1  UNL1       -0.0164
      9 C           2.7893   -0.0162   -0.4969 C.ar    1  UNL1       -0.0537
     10 C           1.5535   -0.5234   -0.8449 C.ar    1  UNL1       -0.0563
     11 C           1.0597   -0.4318   -2.1139 C.ar    1  UNL1       -0.0277
     12 C          -0.2972   -0.9546   -2.4423 C.3     1  UNL1        0.0486
     13 N          -0.9640   -1.1409   -1.1535 N.ar    1  UNL1       -0.3383
     14 C          -1.1664   -2.2932   -0.4606 C.ar    1  UNL1        0.0346
     15 C          -0.8935   -3.6508   -0.9344 C.3     1  UNL1        0.0040
     16 C           0.2920   -4.3828   -0.4584 C.3     1  UNL1        0.0673
     17 C           0.4027   -4.6078    1.0270 C.3     1  UNL1       -0.0493
     18 C           1.6267   -3.8509   -0.9197 C.3     1  UNL1       -0.0493
     19 C           0.1997   -5.7515   -1.1449 C.2     1  UNL1        0.3108
     20 O           0.1134   -6.8094   -0.5338 O.2     1  UNL1       -0.2504
     21 O           0.2197   -5.7234   -2.5218 O.3     1  UNL1       -0.4802
     22 C          -1.7272   -1.9564    0.7505 C.ar    1  UNL1        0.0370
     23 S          -2.2221   -3.0074    2.0566 S.3     1  UNL1       -0.1169
     24 C          -3.9057   -3.5990    1.9913 C.3     1  UNL1        0.0129
     25 C          -4.9280   -2.4806    2.1544 C.3     1  UNL1       -0.0506
     26 C          -4.2007   -4.4619    0.7769 C.3     1  UNL1       -0.0506
     27 C          -4.0843   -4.5408    3.1916 C.3     1  UNL1       -0.0506
     28 C          -1.8525   -0.5771    0.7521 C.ar    1  UNL1        0.0170
     29 C          -2.3286    0.3528    1.6804 C.ar    1  UNL1       -0.0097
     30 C          -2.3187    1.7064    1.4093 C.ar    1  UNL1        0.1218
     31 O          -2.7919    2.6108    2.3456 O.3     1  UNL1       -0.4858
     32 C          -2.8033    3.9861    2.1067 C.3     1  UNL1        0.1313
     33 C          -3.6545    4.4156    0.9773 C.ar    1  UNL1        0.0785
     34 C          -4.5941    3.5693    0.4258 C.ar    1  UNL1       -0.0368
     35 C          -5.4143    3.9548   -0.6064 C.ar    1  UNL1       -0.0556
     36 C          -5.2899    5.2292   -1.1056 C.ar    1  UNL1       -0.0323
     37 C          -6.1218    5.7732   -2.2065 C.3     1  UNL1       -0.0383
     38 C          -4.3202    6.0648   -0.5179 C.ar    1  UNL1        0.0309
     39 N          -3.5356    5.6589    0.4889 N.ar    1  UNL1       -0.2562
     40 C          -1.8418    2.1881    0.2190 C.ar    1  UNL1       -0.0179
     41 C          -1.3656    1.2791   -0.7165 C.ar    1  UNL1       -0.0341
     42 C          -1.3777   -0.0684   -0.4387 C.ar    1  UNL1        0.0509
     43 C           1.8600    0.2009   -3.0710 C.ar    1  UNL1       -0.0563
     44 C           3.0935    0.7039   -2.7105 C.ar    1  UNL1       -0.0537
     45 C           5.1152    1.7376    0.1513 C.ar    1  UNL1        0.0391
     46 N           6.2998    2.3004    0.5053 N.ar    1  UNL1       -0.2207
     47 H           9.9166    4.8361    2.3582 H       1  UNL1        0.0262
     48 H          10.6806    3.2609    1.7994 H       1  UNL1        0.0262
     49 H          10.2164    4.6181    0.6161 H       1  UNL1        0.0262
     50 H           8.3742    2.6867    2.1017 H       1  UNL1        0.0694
     51 H           7.8520    4.2767    1.3955 H       1  UNL1        0.0694
     52 H           7.9267    1.7795   -2.3751 H       1  UNL1        0.0671
     53 H           5.8066    0.8002   -2.9563 H       1  UNL1        0.0626
     54 H           3.1691   -0.0956    0.5205 H       1  UNL1        0.0624
     55 H           0.9697   -1.0056   -0.0734 H       1  UNL1        0.0621
     56 H          -0.2372   -1.9012   -3.0102 H       1  UNL1        0.0541
     57 H          -0.8605   -0.1882   -2.9918 H       1  UNL1        0.0541
     58 H          -1.8377   -4.2975   -0.8660 H       1  UNL1        0.0338
     59 H          -0.7822   -3.6012   -2.0747 H       1  UNL1        0.0338
     60 H           0.6029   -3.6727    1.5794 H       1  UNL1        0.0240
     61 H          -0.4206   -5.2269    1.3998 H       1  UNL1        0.0240
     62 H           1.3265   -5.2383    1.2507 H       1  UNL1        0.0240
     63 H           1.5378   -3.2513   -1.8346 H       1  UNL1        0.0240
     64 H           2.1085   -3.2531   -0.1004 H       1  UNL1        0.0240
     65 H           2.3056   -4.7038   -1.1439 H       1  UNL1        0.0240
     66 H           0.1685   -6.5380   -3.1113 H       1  UNL1        0.2951
     67 H          -4.5980   -1.5772    1.5786 H       1  UNL1        0.0243
     68 H          -5.8711   -2.8814    1.7263 H       1  UNL1        0.0243
     69 H          -5.0306   -2.2734    3.2381 H       1  UNL1        0.0243
     70 H          -3.3465   -5.2043    0.7578 H       1  UNL1        0.0243
     71 H          -5.1212   -5.0491    0.8968 H       1  UNL1        0.0243
     72 H          -4.1077   -3.9017   -0.1639 H       1  UNL1        0.0243
     73 H          -4.9648   -5.1978    3.0380 H       1  UNL1        0.0243
     74 H          -3.1928   -5.2322    3.1620 H       1  UNL1        0.0243
     75 H          -4.1246   -3.9942    4.1366 H       1  UNL1        0.0243
     76 H          -2.7047    0.0071    2.6093 H       1  UNL1        0.0661
     77 H          -1.7369    4.2962    1.9309 H       1  UNL1        0.0763
     78 H          -3.1695    4.5375    3.0020 H       1  UNL1        0.0763
     79 H          -4.7051    2.5443    0.8078 H       1  UNL1        0.0637
     80 H          -6.1515    3.2896   -1.0394 H       1  UNL1        0.0621
     81 H          -6.3848    6.8411   -1.9493 H       1  UNL1        0.0278
     82 H          -7.0767    5.1738   -2.2678 H       1  UNL1        0.0278
     83 H          -5.5970    5.7016   -3.1708 H       1  UNL1        0.0278
     84 H          -4.2296    7.0656   -0.9168 H       1  UNL1        0.0832
     85 H          -1.7943    3.2396   -0.0540 H       1  UNL1        0.0655
     86 H          -0.9874    1.6682   -1.6708 H       1  UNL1        0.0639
     87 H           1.4951    0.2915   -4.0933 H       1  UNL1        0.0621
     88 H           3.7377    1.2046   -3.4381 H       1  UNL1        0.0624
     89 H           4.3180    1.7404    0.9051 H       1  UNL1        0.0837
@<TRIPOS>BOND
     1     1     2    1
     2     2     3    1
     3     3     4    1
     4     4     5   ar
     5     5     6   ar
     6     6     7   ar
     7     7     8    1
     8     8     9   ar
     9     9    10   ar
    10    10    11   ar
    11    11    12    1
    12    12    13    1
    13    13    14   ar
    14    14    15    1
    15    15    16    1
    16    16    17    1
    17    16    18    1
    18    16    19    1
    19    19    20    2
    20    19    21    1
    21    14    22   ar
    22    22    23    1
    23    23    24    1
    24    24    25    1
    25    24    26    1
    26    24    27    1
    27    22    28   ar
    28    28    29   ar
    29    29    30   ar
    30    30    31    1
    31    31    32    1
    32    32    33    1
    33    33    34   ar
    34    34    35   ar
    35    35    36   ar
    36    36    37    1
    37    36    38   ar
    38    38    39   ar
    39    30    40   ar
    40    40    41   ar
    41    41    42   ar
    42    11    43   ar
    43    43    44   ar
    44     7    45   ar
    45    45    46   ar
    46    46     4   ar
    47    44     8   ar
    48    42    13   ar
    49    42    28   ar
    50    39    33   ar
    51     1    47    1
    52     1    48    1
    53     1    49    1
    54     2    50    1
    55     2    51    1
    56     5    52    1
    57     6    53    1
    58     9    54    1
    59    10    55    1
    60    12    56    1
    61    12    57    1
    62    15    58    1
    63    15    59    1
    64    17    60    1
    65    17    61    1
    66    17    62    1
    67    18    63    1
    68    18    64    1
    69    18    65    1
    70    21    66    1
    71    25    67    1
    72    25    68    1
    73    25    69    1
    74    26    70    1
    75    26    71    1
    76    26    72    1
    77    27    73    1
    78    27    74    1
    79    27    75    1
    80    29    76    1
    81    32    77    1
    82    32    78    1
    83    34    79    1
    84    35    80    1
    85    37    81    1
    86    37    82    1
    87    37    83    1
    88    38    84    1
    89    40    85    1
    90    41    86    1
    91    43    87    1
    92    44    88    1
    93    45    89    1
