
     RDKit          3D

 32 32  0  0  0  0  0  0  0  0999 V2000
   -3.1744   -0.9896   -0.1371 C   0  0  0  0  0  0  0  0  0  0  0  0
   -2.1757    0.0310   -0.0239 N   0  0  0  0  0  4  0  0  0  0  0  0
   -2.5155    1.0593   -1.0041 C   0  0  0  0  0  0  0  0  0  0  0  0
   -2.2979    0.6828    1.2816 C   0  0  0  0  0  0  0  0  0  0  0  0
   -0.8780   -0.4960   -0.2359 C   0  0  0  0  0  0  0  0  0  0  0  0
   -0.7036   -1.8175   -0.5924 C   0  0  0  0  0  0  0  0  0  0  0  0
    0.5622   -2.3232   -0.7971 C   0  0  0  0  0  0  0  0  0  0  0  0
    1.6765   -1.5011   -0.6449 C   0  0  0  0  0  0  0  0  0  0  0  0
    1.5294   -0.1892   -0.2925 C   0  0  0  0  0  0  0  0  0  0  0  0
    0.2359    0.3055   -0.0891 C   0  0  0  0  0  0  0  0  0  0  0  0
    2.5920    0.7937   -0.0951 C   0  0  0  0  0  0  0  0  0  0  0  0
    2.5661    1.4081    1.1591 O   0  0  0  0  0  0  0  0  0  0  0  0
    2.4213    1.8389   -1.0155 O   0  0  0  0  0  0  0  0  0  0  0  0
    3.9754    0.2393   -0.3190 C   0  0  0  0  0  0  0  0  0  0  0  0
    4.1903   -0.8093    0.5819 F   0  0  0  0  0  0  0  0  0  0  0  0
    4.9131    1.1921    0.0306 F   0  0  0  0  0  0  0  0  0  0  0  0
    4.2127   -0.1585   -1.5973 F   0  0  0  0  0  0  0  0  0  0  0  0
   -3.1832   -1.4090   -1.1641 H   0  0  0  0  0  0  0  0  0  0  0  0
   -4.1787   -0.5465    0.0277 H   0  0  0  0  0  0  0  0  0  0  0  0
   -2.9648   -1.8316    0.5538 H   0  0  0  0  0  0  0  0  0  0  0  0
   -1.8308    1.9051   -0.9415 H   0  0  0  0  0  0  0  0  0  0  0  0
   -3.5805    1.3397   -0.7824 H   0  0  0  0  0  0  0  0  0  0  0  0
   -2.5460    0.5985   -2.0070 H   0  0  0  0  0  0  0  0  0  0  0  0
   -1.8175    1.6745    1.2325 H   0  0  0  0  0  0  0  0  0  0  0  0
   -3.4007    0.8212    1.4280 H   0  0  0  0  0  0  0  0  0  0  0  0
   -1.9330    0.0448    2.0996 H   0  0  0  0  0  0  0  0  0  0  0  0
   -1.5150   -2.4988   -0.7249 H   0  0  0  0  0  0  0  0  0  0  0  0
    0.8051   -3.3356   -1.0764 H   0  0  0  0  0  0  0  0  0  0  0  0
    2.6849   -1.8587   -0.7961 H   0  0  0  0  0  0  0  0  0  0  0  0
    0.0417    1.3478    0.1953 H   0  0  0  0  0  0  0  0  0  0  0  0
    3.4618    1.8129    1.2750 H   0  0  0  0  0  0  0  0  0  0  0  0
    2.8266    2.6696   -0.6638 H   0  0  0  0  0  0  0  0  0  0  0  0
  1  2  1  0
  2  3  1  0
  2  4  1  0
  2  5  1  0
  5  6  2  0
  6  7  1  0
  7  8  2  0
  8  9  1  0
  9 10  2  0
  9 11  1  0
 11 12  1  0
 11 13  1  0
 11 14  1  0
 14 15  1  0
 14 16  1  0
 14 17  1  0
 10  5  1  0
  1 18  1  0
  1 19  1  0
  1 20  1  0
  3 21  1  0
  3 22  1  0
  3 23  1  0
  4 24  1  0
  4 25  1  0
  4 26  1  0
  6 27  1  0
  7 28  1  0
  8 29  1  0
 10 30  1  0
 12 31  1  0
 13 32  1  0
M  CHG  1   2   1
M  END
$$$$
