@<TRIPOS>MOLECULE
*****
 32 32 0 0 0
SMALL
GASTEIGER

@<TRIPOS>ATOM
      1 C          -3.1744   -0.9896   -0.1371 C.3     1  UNL1        0.0812
      2 N          -2.1757    0.0310   -0.0239 N.pl3   1  UNL1       -0.3831
      3 C          -2.5155    1.0593   -1.0041 C.3     1  UNL1        0.0812
      4 C          -2.2979    0.6828    1.2816 C.3     1  UNL1        0.0812
      5 C          -0.8780   -0.4960   -0.2359 C.ar    1  UNL1        0.1458
      6 C          -0.7036   -1.8175   -0.5924 C.ar    1  UNL1        0.0036
      7 C           0.5622   -2.3232   -0.7971 C.ar    1  UNL1       -0.0553
      8 C           1.6765   -1.5011   -0.6449 C.ar    1  UNL1       -0.0528
      9 C           1.5294   -0.1892   -0.2925 C.ar    1  UNL1        0.0258
     10 C           0.2359    0.3055   -0.0891 C.ar    1  UNL1        0.0122
     11 C           2.5920    0.7937   -0.0951 C.3     1  UNL1        0.2905
     12 O           2.5661    1.4081    1.1591 O.3     1  UNL1       -0.3545
     13 O           2.4213    1.8389   -1.0155 O.3     1  UNL1       -0.3545
     14 C           3.9754    0.2393   -0.3190 C.3     1  UNL1        0.4487
     15 F           4.1903   -0.8093    0.5819 F       1  UNL1       -0.1651
     16 F           4.9131    1.1921    0.0306 F       1  UNL1       -0.1651
     17 F           4.2127   -0.1585   -1.5973 F       1  UNL1       -0.1651
     18 H          -3.1832   -1.4090   -1.1641 H       1  UNL1        0.0931
     19 H          -4.1787   -0.5465    0.0277 H       1  UNL1        0.0931
     20 H          -2.9648   -1.8316    0.5538 H       1  UNL1        0.0931
     21 H          -1.8308    1.9051   -0.9415 H       1  UNL1        0.0931
     22 H          -3.5805    1.3397   -0.7824 H       1  UNL1        0.0931
     23 H          -2.5460    0.5985   -2.0070 H       1  UNL1        0.0931
     24 H          -1.8175    1.6745    1.2325 H       1  UNL1        0.0931
     25 H          -3.4007    0.8212    1.4280 H       1  UNL1        0.0931
     26 H          -1.9330    0.0448    2.0996 H       1  UNL1        0.0931
     27 H          -1.5150   -2.4988   -0.7249 H       1  UNL1        0.0681
     28 H           0.8051   -3.3356   -1.0764 H       1  UNL1        0.0620
     29 H           2.6849   -1.8587   -0.7961 H       1  UNL1        0.0622
     30 H           0.0417    1.3478    0.1953 H       1  UNL1        0.0686
     31 H           3.4618    1.8129    1.2750 H       1  UNL1        0.2134
     32 H           2.8266    2.6696   -0.6638 H       1  UNL1        0.2134
@<TRIPOS>UNITY_ATOM_ATTR
2 1
charge 1
@<TRIPOS>BOND
     1     1     2    1
     2     2     3    1
     3     2     4    1
     4     2     5    1
     5     5     6   ar
     6     6     7   ar
     7     7     8   ar
     8     8     9   ar
     9     9    10   ar
    10     9    11    1
    11    11    12    1
    12    11    13    1
    13    11    14    1
    14    14    15    1
    15    14    16    1
    16    14    17    1
    17    10     5   ar
    18     1    18    1
    19     1    19    1
    20     1    20    1
    21     3    21    1
    22     3    22    1
    23     3    23    1
    24     4    24    1
    25     4    25    1
    26     4    26    1
    27     6    27    1
    28     7    28    1
    29     8    29    1
    30    10    30    1
    31    12    31    1
    32    13    32    1
