@<TRIPOS>MOLECULE
*****
 55 57 0 0 0
SMALL
GASTEIGER

@<TRIPOS>ATOM
      1 C          -8.0789    1.9004   -0.7597 C.3     1  UNL1       -0.0397
      2 C          -7.0696    0.8856   -0.3665 C.ar    1  UNL1       -0.0501
      3 C          -7.5437   -0.3913   -0.0960 C.ar    1  UNL1       -0.0586
      4 C          -6.6593   -1.3811    0.2725 C.ar    1  UNL1       -0.0582
      5 C          -5.2891   -1.1179    0.3780 C.ar    1  UNL1       -0.0440
      6 C          -4.3641   -2.1911    0.7745 C.3     1  UNL1       -0.0393
      7 C          -4.8042    0.1584    0.1088 C.ar    1  UNL1       -0.0072
      8 C          -3.3540    0.4743    0.2053 C.3     1  UNL1        0.1149
      9 O          -2.6364   -0.0174   -0.9080 O.3     1  UNL1       -0.4874
     10 C          -1.2685    0.2034   -0.9495 C.ar    1  UNL1        0.1211
     11 C          -0.5349   -0.2592   -2.0216 C.ar    1  UNL1       -0.0181
     12 C           0.8387   -0.0509   -2.0882 C.ar    1  UNL1       -0.0334
     13 C           1.4958    0.6200   -1.0877 C.ar    1  UNL1        0.0888
     14 S           3.2435    0.9042   -1.1555 S.O2    1  UNL1        0.0031
     15 O           3.5507    2.1135   -0.3160 O.2     1  UNL1       -0.1690
     16 O           3.6909    1.1812   -2.5539 O.2     1  UNL1       -0.1690
     17 C           4.0165   -0.5052   -0.4599 C.3     1  UNL1        0.1234
     18 C           3.5851   -0.8250    0.9475 C.3     1  UNL1       -0.0035
     19 C           4.0694   -2.2572    1.2116 C.3     1  UNL1        0.0497
     20 O           5.4001   -2.4111    0.9378 O.3     1  UNL1       -0.3763
     21 C           6.1021   -1.2742    0.6353 C.3     1  UNL1        0.0869
     22 C           5.5225   -0.4853   -0.5007 C.3     1  UNL1        0.1891
     23 O           5.9349   -1.1276   -1.7002 O.3     1  UNL1       -0.3756
     24 C           6.1163    0.8642   -0.5310 C.2     1  UNL1        0.2714
     25 O           6.7511    1.3061   -1.5511 O.2     1  UNL1       -0.2704
     26 N           6.0382    1.7768    0.5550 N.am    1  UNL1       -0.1950
     27 O           6.6000    3.0110    0.4820 O.3     1  UNL1       -0.2951
     28 C           0.7798    1.0831   -0.0201 C.ar    1  UNL1       -0.0334
     29 C          -0.5846    0.8755    0.0447 C.ar    1  UNL1       -0.0181
     30 C          -5.7328    1.1122   -0.2557 C.ar    1  UNL1       -0.0522
     31 H          -8.6494    1.5929   -1.6606 H       1  UNL1        0.0278
     32 H          -7.5029    2.8213   -1.0165 H       1  UNL1        0.0278
     33 H          -8.7362    2.1822    0.0818 H       1  UNL1        0.0278
     34 H          -8.5991   -0.6149   -0.1719 H       1  UNL1        0.0620
     35 H          -7.0310   -2.3674    0.4812 H       1  UNL1        0.0620
     36 H          -4.9674   -3.0266    1.2377 H       1  UNL1        0.0278
     37 H          -3.6976   -1.8558    1.6145 H       1  UNL1        0.0278
     38 H          -3.8125   -2.6529   -0.0505 H       1  UNL1        0.0278
     39 H          -3.2864    1.5881    0.2907 H       1  UNL1        0.0748
     40 H          -2.9554   -0.0276    1.1050 H       1  UNL1        0.0748
     41 H          -1.0019   -0.7985   -2.8450 H       1  UNL1        0.0655
     42 H           1.3663   -0.4313   -2.9443 H       1  UNL1        0.0638
     43 H           3.7113   -1.4076   -1.0722 H       1  UNL1        0.0575
     44 H           2.4816   -0.8220    1.0621 H       1  UNL1        0.0307
     45 H           3.9979   -0.1925    1.7255 H       1  UNL1        0.0307
     46 H           3.7532   -2.6087    2.1981 H       1  UNL1        0.0560
     47 H           3.5093   -2.8929    0.4646 H       1  UNL1        0.0560
     48 H           6.2881   -0.6500    1.5397 H       1  UNL1        0.0594
     49 H           7.1252   -1.6059    0.3041 H       1  UNL1        0.0594
     50 H           5.6467   -0.5137   -2.4309 H       1  UNL1        0.2110
     51 H           5.5584    1.5475    1.4495 H       1  UNL1        0.1823
     52 H           6.1420    3.5658   -0.1991 H       1  UNL1        0.2414
     53 H           1.3163    1.6213    0.7778 H       1  UNL1        0.0638
     54 H          -1.1025    1.2617    0.9095 H       1  UNL1        0.0655
     55 H          -5.3694    2.1119   -0.4683 H       1  UNL1        0.0624
@<TRIPOS>BOND
     1     1     2    1
     2     2     3   ar
     3     3     4   ar
     4     4     5   ar
     5     5     6    1
     6     5     7   ar
     7     7     8    1
     8     8     9    1
     9     9    10    1
    10    10    11   ar
    11    11    12   ar
    12    12    13   ar
    13    13    14    1
    14    14    15    2
    15    14    16    2
    16    14    17    1
    17    17    18    1
    18    18    19    1
    19    19    20    1
    20    20    21    1
    21    21    22    1
    22    22    23    1
    23    22    24    1
    24    24    25    2
    25    24    26   am
    26    26    27    1
    27    13    28   ar
    28    28    29   ar
    29     7    30   ar
    30    30     2   ar
    31    29    10   ar
    32    22    17    1
    33     1    31    1
    34     1    32    1
    35     1    33    1
    36     3    34    1
    37     4    35    1
    38     6    36    1
    39     6    37    1
    40     6    38    1
    41     8    39    1
    42     8    40    1
    43    11    41    1
    44    12    42    1
    45    17    43    1
    46    18    44    1
    47    18    45    1
    48    19    46    1
    49    19    47    1
    50    21    48    1
    51    21    49    1
    52    23    50    1
    53    26    51    1
    54    27    52    1
    55    28    53    1
    56    29    54    1
    57    30    55    1
