
     RDKit          3D

 55 57  0  0  0  0  0  0  0  0999 V2000
   -8.0789    1.9004   -0.7597 C   0  0  0  0  0  0  0  0  0  0  0  0
   -7.0696    0.8856   -0.3665 C   0  0  0  0  0  0  0  0  0  0  0  0
   -7.5437   -0.3913   -0.0960 C   0  0  0  0  0  0  0  0  0  0  0  0
   -6.6593   -1.3811    0.2725 C   0  0  0  0  0  0  0  0  0  0  0  0
   -5.2891   -1.1179    0.3780 C   0  0  0  0  0  0  0  0  0  0  0  0
   -4.3641   -2.1911    0.7745 C   0  0  0  0  0  0  0  0  0  0  0  0
   -4.8042    0.1584    0.1088 C   0  0  0  0  0  0  0  0  0  0  0  0
   -3.3540    0.4743    0.2053 C   0  0  0  0  0  0  0  0  0  0  0  0
   -2.6364   -0.0174   -0.9080 O   0  0  0  0  0  0  0  0  0  0  0  0
   -1.2685    0.2034   -0.9495 C   0  0  0  0  0  0  0  0  0  0  0  0
   -0.5349   -0.2592   -2.0216 C   0  0  0  0  0  0  0  0  0  0  0  0
    0.8387   -0.0509   -2.0882 C   0  0  0  0  0  0  0  0  0  0  0  0
    1.4958    0.6200   -1.0877 C   0  0  0  0  0  0  0  0  0  0  0  0
    3.2435    0.9042   -1.1555 S   0  0  0  0  0  6  0  0  0  0  0  0
    3.5507    2.1135   -0.3160 O   0  0  0  0  0  0  0  0  0  0  0  0
    3.6909    1.1812   -2.5539 O   0  0  0  0  0  0  0  0  0  0  0  0
    4.0165   -0.5052   -0.4599 C   0  0  2  0  0  0  0  0  0  0  0  0
    3.5851   -0.8250    0.9475 C   0  0  0  0  0  0  0  0  0  0  0  0
    4.0694   -2.2572    1.2116 C   0  0  0  0  0  0  0  0  0  0  0  0
    5.4001   -2.4111    0.9378 O   0  0  0  0  0  0  0  0  0  0  0  0
    6.1021   -1.2742    0.6353 C   0  0  0  0  0  0  0  0  0  0  0  0
    5.5225   -0.4853   -0.5007 C   0  0  1  0  0  0  0  0  0  0  0  0
    5.9349   -1.1276   -1.7002 O   0  0  0  0  0  0  0  0  0  0  0  0
    6.1163    0.8642   -0.5310 C   0  0  0  0  0  0  0  0  0  0  0  0
    6.7511    1.3061   -1.5511 O   0  0  0  0  0  0  0  0  0  0  0  0
    6.0382    1.7768    0.5550 N   0  0  0  0  0  0  0  0  0  0  0  0
    6.6000    3.0110    0.4820 O   0  0  0  0  0  0  0  0  0  0  0  0
    0.7798    1.0831   -0.0201 C   0  0  0  0  0  0  0  0  0  0  0  0
   -0.5846    0.8755    0.0447 C   0  0  0  0  0  0  0  0  0  0  0  0
   -5.7328    1.1122   -0.2557 C   0  0  0  0  0  0  0  0  0  0  0  0
   -8.6494    1.5929   -1.6606 H   0  0  0  0  0  0  0  0  0  0  0  0
   -7.5029    2.8213   -1.0165 H   0  0  0  0  0  0  0  0  0  0  0  0
   -8.7362    2.1822    0.0818 H   0  0  0  0  0  0  0  0  0  0  0  0
   -8.5991   -0.6149   -0.1719 H   0  0  0  0  0  0  0  0  0  0  0  0
   -7.0310   -2.3674    0.4812 H   0  0  0  0  0  0  0  0  0  0  0  0
   -4.9674   -3.0266    1.2377 H   0  0  0  0  0  0  0  0  0  0  0  0
   -3.6976   -1.8558    1.6145 H   0  0  0  0  0  0  0  0  0  0  0  0
   -3.8125   -2.6529   -0.0505 H   0  0  0  0  0  0  0  0  0  0  0  0
   -3.2864    1.5881    0.2907 H   0  0  0  0  0  0  0  0  0  0  0  0
   -2.9554   -0.0276    1.1050 H   0  0  0  0  0  0  0  0  0  0  0  0
   -1.0019   -0.7985   -2.8450 H   0  0  0  0  0  0  0  0  0  0  0  0
    1.3663   -0.4313   -2.9443 H   0  0  0  0  0  0  0  0  0  0  0  0
    3.7113   -1.4076   -1.0722 H   0  0  0  0  0  0  0  0  0  0  0  0
    2.4816   -0.8220    1.0621 H   0  0  0  0  0  0  0  0  0  0  0  0
    3.9979   -0.1925    1.7255 H   0  0  0  0  0  0  0  0  0  0  0  0
    3.7532   -2.6087    2.1981 H   0  0  0  0  0  0  0  0  0  0  0  0
    3.5093   -2.8929    0.4646 H   0  0  0  0  0  0  0  0  0  0  0  0
    6.2881   -0.6500    1.5397 H   0  0  0  0  0  0  0  0  0  0  0  0
    7.1252   -1.6059    0.3041 H   0  0  0  0  0  0  0  0  0  0  0  0
    5.6467   -0.5137   -2.4309 H   0  0  0  0  0  0  0  0  0  0  0  0
    5.5584    1.5475    1.4495 H   0  0  0  0  0  0  0  0  0  0  0  0
    6.1420    3.5658   -0.1991 H   0  0  0  0  0  0  0  0  0  0  0  0
    1.3163    1.6213    0.7778 H   0  0  0  0  0  0  0  0  0  0  0  0
   -1.1025    1.2617    0.9095 H   0  0  0  0  0  0  0  0  0  0  0  0
   -5.3694    2.1119   -0.4683 H   0  0  0  0  0  0  0  0  0  0  0  0
  1  2  1  0
  2  3  2  0
  3  4  1  0
  4  5  2  0
  5  6  1  0
  5  7  1  0
  7  8  1  0
  8  9  1  0
  9 10  1  0
 10 11  2  0
 11 12  1  0
 12 13  2  0
 13 14  1  0
 14 15  2  0
 14 16  2  0
 14 17  1  0
 17 18  1  0
 18 19  1  0
 19 20  1  0
 20 21  1  0
 21 22  1  0
 22 23  1  6
 22 24  1  0
 24 25  2  0
 24 26  1  0
 26 27  1  0
 13 28  1  0
 28 29  2  0
  7 30  2  0
 30  2  1  0
 29 10  1  0
 22 17  1  0
  1 31  1  0
  1 32  1  0
  1 33  1  0
  3 34  1  0
  4 35  1  0
  6 36  1  0
  6 37  1  0
  6 38  1  0
  8 39  1  0
  8 40  1  0
 11 41  1  0
 12 42  1  0
 17 43  1  6
 18 44  1  0
 18 45  1  0
 19 46  1  0
 19 47  1  0
 21 48  1  0
 21 49  1  0
 23 50  1  0
 26 51  1  0
 27 52  1  0
 28 53  1  0
 29 54  1  0
 30 55  1  0
M  END
$$$$
