
     RDKit          3D

 37 40  0  0  0  0  0  0  0  0999 V2000
   -2.6849   -3.0179   -0.9855 C   0  0  0  0  0  0  0  0  0  0  0  0
   -2.9549   -1.6086   -0.7268 C   0  0  0  0  0  0  0  0  0  0  0  0
   -4.1570   -1.0116   -0.9712 N   0  0  0  0  0  0  0  0  0  0  0  0
   -4.0498    0.2816   -0.6869 C   0  0  0  0  0  0  0  0  0  0  0  0
   -5.0739    1.2440   -0.7611 C   0  0  0  0  0  0  0  0  0  0  0  0
   -6.3043    1.0660   -1.1838 C   0  0  0  0  0  0  0  0  0  0  0  0
   -7.5450    0.8707   -1.5925 N   0  0  0  0  0  0  0  0  0  0  0  0
   -4.6176    2.5513   -0.3293 C   0  0  0  0  0  0  0  0  0  0  0  0
   -3.3875    2.7863    0.0846 C   0  0  0  0  0  0  0  0  0  0  0  0
   -2.3864    1.7786    0.1574 C   0  0  0  0  0  0  0  0  0  0  0  0
   -2.7452    0.5167   -0.2381 C   0  0  0  0  0  0  0  0  0  0  0  0
   -2.1263   -0.6689   -0.2871 N   0  0  0  0  0  0  0  0  0  0  0  0
   -0.7887   -0.9999    0.1384 C   0  0  0  0  0  0  0  0  0  0  0  0
   -0.2799   -1.7967    0.9217 C   0  0  0  0  0  0  0  0  0  0  0  0
    1.0752   -2.0281    1.2486 C   0  0  0  0  0  0  0  0  0  0  0  0
    1.8023   -1.0555    0.4408 C   0  0  0  0  0  0  0  0  0  0  0  0
    3.1946   -0.8446    0.5741 C   0  0  0  0  0  0  0  0  0  0  0  0
    3.9397   -1.6039    1.2628 O   0  0  0  0  0  0  0  0  0  0  0  0
    3.9095    0.2490    0.0066 N   0  0  0  0  0  0  0  0  0  0  0  0
    5.3618    0.3117    0.2681 C   0  0  0  0  0  0  0  0  0  0  0  0
    6.3253    1.0854   -0.6613 C   0  0  0  0  0  0  0  0  0  0  0  0
    5.7810    1.6386    0.7032 C   0  0  0  0  0  0  0  0  0  0  0  0
    0.6559   -0.1219   -0.5021 S   0  0  0  0  0  0  0  0  0  0  0  0
   -2.6238   -3.2335   -2.1234 H   0  0  0  0  0  0  0  0  0  0  0  0
   -1.7464   -3.3660   -0.4791 H   0  0  0  0  0  0  0  0  0  0  0  0
   -3.5165   -3.7228   -0.6812 H   0  0  0  0  0  0  0  0  0  0  0  0
   -5.4140    3.3201   -0.4422 H   0  0  0  0  0  0  0  0  0  0  0  0
   -3.0260    3.7927    0.4313 H   0  0  0  0  0  0  0  0  0  0  0  0
   -1.3978    1.9708    0.4883 H   0  0  0  0  0  0  0  0  0  0  0  0
   -0.9141   -2.5504    1.5648 H   0  0  0  0  0  0  0  0  0  0  0  0
    1.5276   -2.6186    1.9872 H   0  0  0  0  0  0  0  0  0  0  0  0
    3.4190    0.9451   -0.5311 H   0  0  0  0  0  0  0  0  0  0  0  0
    5.7142   -0.5661    0.8463 H   0  0  0  0  0  0  0  0  0  0  0  0
    7.3839    1.0068   -0.5708 H   0  0  0  0  0  0  0  0  0  0  0  0
    5.8784    1.2668   -1.6427 H   0  0  0  0  0  0  0  0  0  0  0  0
    6.4058    1.5233    1.6762 H   0  0  0  0  0  0  0  0  0  0  0  0
    5.3657    2.6096    0.6572 H   0  0  0  0  0  0  0  0  0  0  0  0
  1  2  1  0
  2  3  2  0
  3  4  1  0
  4  5  2  0
  5  6  1  0
  6  7  3  0
  5  8  1  0
  8  9  2  0
  9 10  1  0
 10 11  2  0
 11 12  1  0
 12 13  1  0
 13 14  2  0
 14 15  1  0
 15 16  2  0
 16 17  1  0
 17 18  2  0
 17 19  1  0
 19 20  1  0
 20 21  1  0
 21 22  1  0
 16 23  1  0
 12  2  1  0
 23 13  1  0
 11  4  1  0
 22 20  1  0
  1 24  1  0
  1 25  1  0
  1 26  1  0
  8 27  1  0
  9 28  1  0
 10 29  1  0
 14 30  1  0
 15 31  1  0
 19 32  1  0
 20 33  1  0
 21 34  1  0
 21 35  1  0
 22 36  1  0
 22 37  1  0
M  END
$$$$
