@<TRIPOS>MOLECULE
*****
 37 40 0 0 0
SMALL
GASTEIGER

@<TRIPOS>ATOM
      1 C          -2.6849   -3.0179   -0.9855 C.3     1  UNL1       -0.0059
      2 C          -2.9549   -1.6086   -0.7268 C.ar    1  UNL1        0.1126
      3 N          -4.1570   -1.0116   -0.9712 N.ar    1  UNL1       -0.2309
      4 C          -4.0498    0.2816   -0.6869 C.ar    1  UNL1        0.1069
      5 C          -5.0739    1.2440   -0.7611 C.ar    1  UNL1        0.0791
      6 C          -6.3043    1.0660   -1.1838 C.1     1  UNL1        0.1014
      7 N          -7.5450    0.8707   -1.5925 N.1     1  UNL1       -0.1908
      8 C          -4.6176    2.5513   -0.3293 C.ar    1  UNL1       -0.0422
      9 C          -3.3875    2.7863    0.0846 C.ar    1  UNL1       -0.0585
     10 C          -2.3864    1.7786    0.1574 C.ar    1  UNL1       -0.0356
     11 C          -2.7452    0.5167   -0.2381 C.ar    1  UNL1        0.0753
     12 N          -2.1263   -0.6689   -0.2871 N.ar    1  UNL1       -0.2901
     13 C          -0.7887   -0.9999    0.1384 C.ar    1  UNL1        0.0867
     14 C          -0.2799   -1.7967    0.9217 C.ar    1  UNL1       -0.0297
     15 C           1.0752   -2.0281    1.2486 C.ar    1  UNL1       -0.0405
     16 C           1.8023   -1.0555    0.4408 C.ar    1  UNL1        0.0758
     17 C           3.1946   -0.8446    0.5741 C.2     1  UNL1        0.2510
     18 O           3.9397   -1.6039    1.2628 O.2     1  UNL1       -0.2696
     19 N           3.9095    0.2490    0.0066 N.am    1  UNL1       -0.3081
     20 C           5.3618    0.3117    0.2681 C.3     1  UNL1        0.0236
     21 C           6.3253    1.0854   -0.6613 C.3     1  UNL1       -0.0328
     22 C           5.7810    1.6386    0.7032 C.3     1  UNL1       -0.0328
     23 S           0.6559   -0.1219   -0.5021 S.2     1  UNL1       -0.0661
     24 H          -2.6238   -3.2335   -2.1234 H       1  UNL1        0.0308
     25 H          -1.7464   -3.3660   -0.4791 H       1  UNL1        0.0308
     26 H          -3.5165   -3.7228   -0.6812 H       1  UNL1        0.0308
     27 H          -5.4140    3.3201   -0.4422 H       1  UNL1        0.0631
     28 H          -3.0260    3.7927    0.4313 H       1  UNL1        0.0619
     29 H          -1.3978    1.9708    0.4883 H       1  UNL1        0.0639
     30 H          -0.9141   -2.5504    1.5648 H       1  UNL1        0.0644
     31 H           1.5276   -2.6186    1.9872 H       1  UNL1        0.0631
     32 H           3.4190    0.9451   -0.5311 H       1  UNL1        0.1493
     33 H           5.7142   -0.5661    0.8463 H       1  UNL1        0.0498
     34 H           7.3839    1.0068   -0.5708 H       1  UNL1        0.0284
     35 H           5.8784    1.2668   -1.6427 H       1  UNL1        0.0284
     36 H           6.4058    1.5233    1.6762 H       1  UNL1        0.0284
     37 H           5.3657    2.6096    0.6572 H       1  UNL1        0.0284
@<TRIPOS>BOND
     1     1     2    1
     2     2     3   ar
     3     3     4   ar
     4     4     5   ar
     5     5     6    1
     6     6     7    3
     7     5     8   ar
     8     8     9   ar
     9     9    10   ar
    10    10    11   ar
    11    11    12   ar
    12    12    13    1
    13    13    14   ar
    14    14    15   ar
    15    15    16   ar
    16    16    17    1
    17    17    18    2
    18    17    19   am
    19    19    20    1
    20    20    21    1
    21    21    22    1
    22    16    23   ar
    23    12     2   ar
    24    23    13   ar
    25    11     4   ar
    26    22    20    1
    27     1    24    1
    28     1    25    1
    29     1    26    1
    30     8    27    1
    31     9    28    1
    32    10    29    1
    33    14    30    1
    34    15    31    1
    35    19    32    1
    36    20    33    1
    37    21    34    1
    38    21    35    1
    39    22    36    1
    40    22    37    1
