@<TRIPOS>MOLECULE
*****
 58 62 0 0 0
SMALL
GASTEIGER

@<TRIPOS>ATOM
      1 C           4.5499    1.0743    1.4189 C.3     1  UNL1       -0.0275
      2 C           4.2265    0.4551    0.0535 C.3     1  UNL1        0.1021
      3 O           2.9202    0.2886   -0.0806 O.3     1  UNL1       -0.4880
      4 C           1.8909   -0.5306   -0.2487 C.ar    1  UNL1        0.1321
      5 C           0.6064    0.0443   -0.3137 C.ar    1  UNL1       -0.0113
      6 C          -0.5432   -0.6714   -0.4834 C.ar    1  UNL1       -0.0094
      7 C          -1.8597   -0.0446   -0.5464 C.ar    1  UNL1        0.0198
      8 C          -2.0915    1.2155   -1.0628 C.ar    1  UNL1        0.0571
      9 N          -3.3965    1.4386   -0.9498 N.ar    1  UNL1       -0.1788
     10 N          -4.0227    0.4048   -0.3943 N.ar    1  UNL1       -0.2677
     11 C          -5.4448    0.3328   -0.1325 C.3     1  UNL1        0.0550
     12 C          -5.9602    1.7261    0.1192 C.3     1  UNL1       -0.0179
     13 C          -7.3261    1.7627    0.7205 C.3     1  UNL1       -0.0022
     14 N          -7.9177    0.4765    0.9302 N.3     1  UNL1       -0.3158
     15 C          -7.0613   -0.4491    1.6208 C.3     1  UNL1       -0.0022
     16 C          -5.7119   -0.6143    0.9981 C.3     1  UNL1       -0.0179
     17 C          -3.0772   -0.5133   -0.1436 C.ar    1  UNL1        0.0335
     18 C          -0.4197   -2.0383   -0.5961 C.ar    1  UNL1       -0.0259
     19 C           0.8268   -2.6473   -0.5377 C.ar    1  UNL1        0.0968
     20 N           1.2030   -3.9497   -0.6214 N.ar    1  UNL1       -0.1713
     21 N           2.4980   -4.0485   -0.5122 N.ar    1  UNL1       -0.2732
     22 C           3.3045   -5.2735   -0.5496 C.3     1  UNL1        0.0302
     23 C           3.0016   -2.8181   -0.3548 C.ar    1  UNL1        0.0364
     24 C           1.9849   -1.9131   -0.3655 C.ar    1  UNL1        0.0614
     25 C           4.8525    1.3187   -1.0473 C.3     1  UNL1        0.0195
     26 C           4.3226    2.7185   -1.0201 C.3     1  UNL1        0.0182
     27 N           5.2391    3.4429   -0.1612 N.am    1  UNL1       -0.3149
     28 C           6.5078    2.8142   -0.2676 C.2     1  UNL1        0.2135
     29 O           7.6205    3.2763    0.0862 O.2     1  UNL1       -0.2758
     30 C           6.3264    1.4726   -0.8839 C.3     1  UNL1        0.0315
     31 H           3.8162    1.8507    1.6692 H       1  UNL1        0.0265
     32 H           5.5944    1.3701    1.5081 H       1  UNL1        0.0265
     33 H           4.3946    0.2386    2.1596 H       1  UNL1        0.0265
     34 H           4.8124   -0.4829    0.0209 H       1  UNL1        0.0733
     35 H           0.4985    1.1302   -0.2250 H       1  UNL1        0.0660
     36 H          -1.3080    1.8637   -1.4743 H       1  UNL1        0.0854
     37 H          -5.9664   -0.0537   -1.0290 H       1  UNL1        0.0545
     38 H          -5.1950    2.2319    0.7659 H       1  UNL1        0.0298
     39 H          -5.8985    2.2696   -0.8662 H       1  UNL1        0.0298
     40 H          -7.2679    2.3262    1.6735 H       1  UNL1        0.0425
     41 H          -7.9987    2.3342    0.0427 H       1  UNL1        0.0425
     42 H          -8.4127    0.0805    0.1184 H       1  UNL1        0.1219
     43 H          -7.5957   -1.4293    1.6525 H       1  UNL1        0.0425
     44 H          -6.9532   -0.1321    2.6909 H       1  UNL1        0.0425
     45 H          -4.9096   -0.5308    1.7712 H       1  UNL1        0.0298
     46 H          -5.6076   -1.6587    0.5866 H       1  UNL1        0.0298
     47 H          -3.2328   -1.4808    0.3068 H       1  UNL1        0.0832
     48 H          -1.3034   -2.6351   -0.7308 H       1  UNL1        0.0646
     49 H           2.7636   -6.0976   -0.0814 H       1  UNL1        0.0473
     50 H           4.2605   -5.1395    0.0202 H       1  UNL1        0.0473
     51 H           3.5367   -5.4982   -1.6189 H       1  UNL1        0.0473
     52 H           4.0419   -2.5832   -0.2386 H       1  UNL1        0.0833
     53 H           4.6202    0.8595   -2.0099 H       1  UNL1        0.0356
     54 H           4.4352    3.1559   -2.0379 H       1  UNL1        0.0466
     55 H           3.2737    2.7832   -0.6817 H       1  UNL1        0.0466
     56 H           4.9748    4.2646    0.4092 H       1  UNL1        0.1487
     57 H           6.7696    1.5405   -1.9197 H       1  UNL1        0.0363
     58 H           6.8083    0.6717   -0.2986 H       1  UNL1        0.0363
@<TRIPOS>BOND
     1     1     2    1
     2     2     3    1
     3     3     4    1
     4     4     5   ar
     5     5     6   ar
     6     6     7    1
     7     7     8   ar
     8     8     9   ar
     9     9    10   ar
    10    10    11    1
    11    11    12    1
    12    12    13    1
    13    13    14    1
    14    14    15    1
    15    15    16    1
    16    10    17   ar
    17     6    18   ar
    18    18    19   ar
    19    19    20   ar
    20    20    21   ar
    21    21    22    1
    22    21    23   ar
    23    23    24   ar
    24     2    25    1
    25    25    26    1
    26    26    27    1
    27    27    28   am
    28    28    29    2
    29    28    30    1
    30    24     4   ar
    31    30    25    1
    32    17     7   ar
    33    24    19   ar
    34    16    11    1
    35     1    31    1
    36     1    32    1
    37     1    33    1
    38     2    34    1
    39     5    35    1
    40     8    36    1
    41    11    37    1
    42    12    38    1
    43    12    39    1
    44    13    40    1
    45    13    41    1
    46    14    42    1
    47    15    43    1
    48    15    44    1
    49    16    45    1
    50    16    46    1
    51    17    47    1
    52    18    48    1
    53    22    49    1
    54    22    50    1
    55    22    51    1
    56    23    52    1
    57    25    53    1
    58    26    54    1
    59    26    55    1
    60    27    56    1
    61    30    57    1
    62    30    58    1
