@<TRIPOS>MOLECULE
*****
 35 38 0 0 0
SMALL
GASTEIGER

@<TRIPOS>ATOM
      1 C           0.8298    3.5816    0.2873 C.3     1  UNL1        0.0133
      2 N          -0.3712    2.7356    0.3729 N.ar    1  UNL1       -0.3327
      3 C          -1.6091    3.1844    0.6403 C.ar    1  UNL1        0.0968
      4 N          -2.4085    2.1113    0.6268 N.ar    1  UNL1       -0.2351
      5 C          -1.7041    0.9838    0.3555 C.ar    1  UNL1        0.0967
      6 C          -2.2296   -0.3795    0.2515 C.ar    1  UNL1        0.0053
      7 C          -1.8386   -1.4092    1.0737 C.ar    1  UNL1       -0.0496
      8 C          -2.3513   -2.6922    0.9526 C.ar    1  UNL1       -0.0230
      9 C          -3.2891   -2.9449   -0.0298 C.ar    1  UNL1        0.1584
     10 F          -3.8042   -4.2138   -0.1588 F       1  UNL1       -0.2025
     11 C          -3.7022   -1.9368   -0.8693 C.ar    1  UNL1        0.1590
     12 F          -4.6291   -2.1881   -1.8391 F       1  UNL1       -0.2025
     13 C          -3.1651   -0.6579   -0.7188 C.ar    1  UNL1       -0.0143
     14 C          -0.4023    1.4084    0.1969 C.ar    1  UNL1        0.0762
     15 C           0.7447    0.5678   -0.1033 C.ar    1  UNL1        0.0026
     16 C           0.7254   -0.1295   -1.2790 C.ar    1  UNL1       -0.0518
     17 C           1.7663   -0.9437   -1.6335 C.ar    1  UNL1       -0.0505
     18 C           2.8378   -1.0427   -0.7722 C.ar    1  UNL1        0.0195
     19 C           4.0045   -1.7625   -0.8490 C.ar    1  UNL1        0.0569
     20 N           4.7198   -1.5017    0.2689 N.ar    1  UNL1       -0.1812
     21 N           4.0680   -0.6559    1.0477 N.ar    1  UNL1       -0.2769
     22 C           2.9013   -0.3605    0.4203 C.ar    1  UNL1        0.0663
     23 C           1.8313    0.4473    0.7366 C.ar    1  UNL1       -0.0271
     24 H           1.4338    3.2642   -0.6138 H       1  UNL1        0.0456
     25 H           0.5334    4.6201    0.1424 H       1  UNL1        0.0456
     26 H           1.4845    3.4711    1.1519 H       1  UNL1        0.0456
     27 H          -1.8286    4.2313    0.8197 H       1  UNL1        0.1029
     28 H          -1.1042   -1.1761    1.8296 H       1  UNL1        0.0625
     29 H          -2.0166   -3.4889    1.6258 H       1  UNL1        0.0647
     30 H          -3.5360    0.0840   -1.4130 H       1  UNL1        0.0654
     31 H          -0.1218   -0.0481   -1.9550 H       1  UNL1        0.0624
     32 H           1.7407   -1.4913   -2.5662 H       1  UNL1        0.0625
     33 H           4.3419   -2.4297   -1.6332 H       1  UNL1        0.0854
     34 H           4.3345   -0.2530    1.9725 H       1  UNL1        0.1889
     35 H           1.8138    1.0151    1.6609 H       1  UNL1        0.0645
@<TRIPOS>BOND
     1     1     2    1
     2     2     3   ar
     3     3     4   ar
     4     4     5   ar
     5     5     6    1
     6     6     7   ar
     7     7     8   ar
     8     8     9   ar
     9     9    10    1
    10     9    11   ar
    11    11    12    1
    12    11    13   ar
    13     5    14   ar
    14    14    15    1
    15    15    16   ar
    16    16    17   ar
    17    17    18   ar
    18    18    19   ar
    19    19    20   ar
    20    20    21   ar
    21    21    22   ar
    22    22    23   ar
    23    14     2   ar
    24    23    15   ar
    25    13     6   ar
    26    22    18   ar
    27     1    24    1
    28     1    25    1
    29     1    26    1
    30     3    27    1
    31     7    28    1
    32     8    29    1
    33    13    30    1
    34    16    31    1
    35    17    32    1
    36    19    33    1
    37    21    34    1
    38    23    35    1
