
     RDKit          3D

 35 38  0  0  0  0  0  0  0  0999 V2000
    0.8298    3.5816    0.2873 C   0  0  0  0  0  0  0  0  0  0  0  0
   -0.3712    2.7356    0.3729 N   0  0  0  0  0  0  0  0  0  0  0  0
   -1.6091    3.1844    0.6403 C   0  0  0  0  0  0  0  0  0  0  0  0
   -2.4085    2.1113    0.6268 N   0  0  0  0  0  0  0  0  0  0  0  0
   -1.7041    0.9838    0.3555 C   0  0  0  0  0  0  0  0  0  0  0  0
   -2.2296   -0.3795    0.2515 C   0  0  0  0  0  0  0  0  0  0  0  0
   -1.8386   -1.4092    1.0737 C   0  0  0  0  0  0  0  0  0  0  0  0
   -2.3513   -2.6922    0.9526 C   0  0  0  0  0  0  0  0  0  0  0  0
   -3.2891   -2.9449   -0.0298 C   0  0  0  0  0  0  0  0  0  0  0  0
   -3.8042   -4.2138   -0.1588 F   0  0  0  0  0  0  0  0  0  0  0  0
   -3.7022   -1.9368   -0.8693 C   0  0  0  0  0  0  0  0  0  0  0  0
   -4.6291   -2.1881   -1.8391 F   0  0  0  0  0  0  0  0  0  0  0  0
   -3.1651   -0.6579   -0.7188 C   0  0  0  0  0  0  0  0  0  0  0  0
   -0.4023    1.4084    0.1969 C   0  0  0  0  0  0  0  0  0  0  0  0
    0.7447    0.5678   -0.1033 C   0  0  0  0  0  0  0  0  0  0  0  0
    0.7254   -0.1295   -1.2790 C   0  0  0  0  0  0  0  0  0  0  0  0
    1.7663   -0.9437   -1.6335 C   0  0  0  0  0  0  0  0  0  0  0  0
    2.8378   -1.0427   -0.7722 C   0  0  0  0  0  0  0  0  0  0  0  0
    4.0045   -1.7625   -0.8490 C   0  0  0  0  0  0  0  0  0  0  0  0
    4.7198   -1.5017    0.2689 N   0  0  0  0  0  0  0  0  0  0  0  0
    4.0680   -0.6559    1.0477 N   0  0  0  0  0  0  0  0  0  0  0  0
    2.9013   -0.3605    0.4203 C   0  0  0  0  0  0  0  0  0  0  0  0
    1.8313    0.4473    0.7366 C   0  0  0  0  0  0  0  0  0  0  0  0
    1.4338    3.2642   -0.6138 H   0  0  0  0  0  0  0  0  0  0  0  0
    0.5334    4.6201    0.1424 H   0  0  0  0  0  0  0  0  0  0  0  0
    1.4845    3.4711    1.1519 H   0  0  0  0  0  0  0  0  0  0  0  0
   -1.8286    4.2313    0.8197 H   0  0  0  0  0  0  0  0  0  0  0  0
   -1.1042   -1.1761    1.8296 H   0  0  0  0  0  0  0  0  0  0  0  0
   -2.0166   -3.4889    1.6258 H   0  0  0  0  0  0  0  0  0  0  0  0
   -3.5360    0.0840   -1.4130 H   0  0  0  0  0  0  0  0  0  0  0  0
   -0.1218   -0.0481   -1.9550 H   0  0  0  0  0  0  0  0  0  0  0  0
    1.7407   -1.4913   -2.5662 H   0  0  0  0  0  0  0  0  0  0  0  0
    4.3419   -2.4297   -1.6332 H   0  0  0  0  0  0  0  0  0  0  0  0
    4.3345   -0.2530    1.9725 H   0  0  0  0  0  0  0  0  0  0  0  0
    1.8138    1.0151    1.6609 H   0  0  0  0  0  0  0  0  0  0  0  0
  1  2  1  0
  2  3  1  0
  3  4  2  0
  4  5  1  0
  5  6  1  0
  6  7  2  0
  7  8  1  0
  8  9  2  0
  9 10  1  0
  9 11  1  0
 11 12  1  0
 11 13  2  0
  5 14  2  0
 14 15  1  0
 15 16  2  0
 16 17  1  0
 17 18  2  0
 18 19  1  0
 19 20  2  0
 20 21  1  0
 21 22  1  0
 22 23  2  0
 14  2  1  0
 23 15  1  0
 13  6  1  0
 22 18  1  0
  1 24  1  0
  1 25  1  0
  1 26  1  0
  3 27  1  0
  7 28  1  0
  8 29  1  0
 13 30  1  0
 16 31  1  0
 17 32  1  0
 19 33  1  0
 21 34  1  0
 23 35  1  0
M  END
$$$$
