@<TRIPOS>MOLECULE
*****
 39 39 0 0 0
SMALL
GASTEIGER

@<TRIPOS>ATOM
      1 O           5.0811    2.1138   -0.4929 O.2     1  UNL1       -0.2737
      2 C           4.7524    1.1517   -1.2296 C.2     1  UNL1        0.2354
      3 C           3.8700    0.0796   -0.7118 C.3     1  UNL1        0.0259
      4 C           3.5212    0.3897    0.7038 C.3     1  UNL1       -0.0447
      5 C           2.6218   -0.6387    1.3382 C.3     1  UNL1       -0.0526
      6 C           1.3022   -0.7698    0.5972 C.3     1  UNL1       -0.0526
      7 C           0.5049   -1.8206    1.3279 C.3     1  UNL1       -0.0448
      8 C          -0.8355   -2.1094    0.7553 C.3     1  UNL1        0.0243
      9 C          -1.7843   -1.0023    0.7135 C.2     1  UNL1        0.2172
     10 O          -1.4708    0.1124    1.1869 O.2     1  UNL1       -0.2755
     11 N          -3.0622   -1.1529    0.1475 N.am    1  UNL1       -0.2855
     12 C          -4.0286   -0.1178    0.0761 C.ar    1  UNL1        0.0334
     13 C          -4.1286    0.7498   -0.9820 C.ar    1  UNL1       -0.0405
     14 C          -5.0711    1.7481   -1.0364 C.ar    1  UNL1       -0.0600
     15 C          -5.9663    1.9053    0.0046 C.ar    1  UNL1       -0.0616
     16 C          -5.8993    1.0606    1.0772 C.ar    1  UNL1       -0.0600
     17 C          -4.9443    0.0697    1.1039 C.ar    1  UNL1       -0.0405
     18 N           5.2694    1.1596   -2.5578 N.am    1  UNL1       -0.1975
     19 O           6.0845    2.1668   -3.0079 O.3     1  UNL1       -0.2952
     20 H           2.9710   -0.0590   -1.3616 H       1  UNL1        0.0359
     21 H           4.4356   -0.8859   -0.8062 H       1  UNL1        0.0359
     22 H           3.1311    1.4037    0.7749 H       1  UNL1        0.0270
     23 H           4.4752    0.3718    1.2898 H       1  UNL1        0.0270
     24 H           2.3720   -0.2751    2.3569 H       1  UNL1        0.0265
     25 H           3.0975   -1.6194    1.4010 H       1  UNL1        0.0265
     26 H           1.4516   -1.1300   -0.4389 H       1  UNL1        0.0265
     27 H           0.7443    0.1770    0.6284 H       1  UNL1        0.0265
     28 H           1.0770   -2.7959    1.2899 H       1  UNL1        0.0270
     29 H           0.4829   -1.5693    2.4093 H       1  UNL1        0.0270
     30 H          -0.6676   -2.5529   -0.2550 H       1  UNL1        0.0358
     31 H          -1.2506   -2.9745    1.3527 H       1  UNL1        0.0358
     32 H          -3.3201   -2.0926   -0.2490 H       1  UNL1        0.1548
     33 H          -3.4454    0.6524   -1.8076 H       1  UNL1        0.0636
     34 H          -5.1241    2.4224   -1.8934 H       1  UNL1        0.0618
     35 H          -6.7004    2.6918   -0.0502 H       1  UNL1        0.0618
     36 H          -6.5848    1.1671    1.8936 H       1  UNL1        0.0618
     37 H          -4.9223   -0.5775    1.9670 H       1  UNL1        0.0636
     38 H           5.0230    0.3816   -3.2037 H       1  UNL1        0.1822
     39 H           6.9377    2.1686   -2.5075 H       1  UNL1        0.2414
@<TRIPOS>BOND
     1     1     2    2
     2     2     3    1
     3     3     4    1
     4     4     5    1
     5     5     6    1
     6     6     7    1
     7     7     8    1
     8     8     9    1
     9     9    10    2
    10     9    11   am
    11    11    12    1
    12    12    13   ar
    13    13    14   ar
    14    14    15   ar
    15    15    16   ar
    16    16    17   ar
    17     2    18   am
    18    18    19    1
    19    17    12   ar
    20     3    20    1
    21     3    21    1
    22     4    22    1
    23     4    23    1
    24     5    24    1
    25     5    25    1
    26     6    26    1
    27     6    27    1
    28     7    28    1
    29     7    29    1
    30     8    30    1
    31     8    31    1
    32    11    32    1
    33    13    33    1
    34    14    34    1
    35    15    35    1
    36    16    36    1
    37    17    37    1
    38    18    38    1
    39    19    39    1
