@<TRIPOS>MOLECULE
*****
 52 54 0 0 0
SMALL
GASTEIGER

@<TRIPOS>ATOM
      1 C           8.5791    0.9533    1.8559 C.1     1  UNL1       -0.1158
      2 C           8.5567    1.3439    0.6889 C.1     1  UNL1       -0.0647
      3 C           8.5436    1.8132   -0.6970 C.3     1  UNL1        0.1513
      4 O           7.8194    0.8361   -1.4593 O.3     1  UNL1       -0.4624
      5 C           6.5034    0.6099   -1.0738 C.ar    1  UNL1        0.2344
      6 C           5.6923   -0.3000   -1.7209 C.ar    1  UNL1        0.0899
      7 N           4.4218   -0.5293   -1.3600 N.ar    1  UNL1       -0.2435
      8 C           3.8796    0.1339   -0.3305 C.ar    1  UNL1        0.1439
      9 C           2.5103   -0.0941    0.0779 C.2     1  UNL1        0.2681
     10 O           2.0307    0.5321    1.0732 O.2     1  UNL1       -0.2681
     11 N           1.6304   -0.9931   -0.5682 N.am    1  UNL1       -0.2802
     12 C           0.3013   -1.1687   -0.1123 C.ar    1  UNL1        0.0345
     13 C           0.0063   -2.1371    0.8165 C.ar    1  UNL1       -0.0348
     14 C          -1.2688   -2.3175    1.2725 C.ar    1  UNL1       -0.0132
     15 C          -1.5348   -3.3843    2.2719 C.3     1  UNL1       -0.0369
     16 C          -2.3004   -1.5329    0.8157 C.ar    1  UNL1        0.1319
     17 F          -3.5849   -1.7412    1.2809 F       1  UNL1       -0.2048
     18 C          -2.0369   -0.5531   -0.1147 C.ar    1  UNL1        0.0198
     19 C          -3.2091    0.2693   -0.5744 C.3     1  UNL1        0.1258
     20 C          -2.7551    1.2528   -1.6862 C.3     1  UNL1        0.1196
     21 F          -1.8051    2.0895   -1.1396 F       1  UNL1       -0.2462
     22 C          -3.7457    1.1187    0.5109 C.3     1  UNL1        0.0251
     23 C          -5.1072    0.8700    0.9795 C.3     1  UNL1        0.1998
     24 C          -5.8335    2.1942    1.3273 C.3     1  UNL1        0.4266
     25 F          -7.0863    1.8275    1.7584 F       1  UNL1       -0.1669
     26 F          -5.9409    2.9357    0.1565 F       1  UNL1       -0.1669
     27 F          -5.1536    2.9153    2.2659 F       1  UNL1       -0.1669
     28 O          -5.9289    0.2264    0.0563 O.2     1  UNL1       -0.4534
     29 C          -5.4265   -0.6379   -0.8953 C.2     1  UNL1        0.2766
     30 N          -6.3073   -1.5378   -1.5396 N.pl3   1  UNL1       -0.3134
     31 N          -4.1704   -0.5955   -1.1646 N.2     1  UNL1       -0.2228
     32 C          -0.7518   -0.3832   -0.5653 C.ar    1  UNL1       -0.0321
     33 C           4.6506    1.0500    0.3437 C.ar    1  UNL1        0.0619
     34 N           5.9264    1.2641   -0.0379 N.ar    1  UNL1       -0.2177
     35 H           8.5831    0.6168    2.8325 H       1  UNL1        0.1229
     36 H           9.5594    1.9259   -1.1012 H       1  UNL1        0.0837
     37 H           7.9626    2.7778   -0.7392 H       1  UNL1        0.0837
     38 H           6.1105   -0.8463   -2.5547 H       1  UNL1        0.0884
     39 H           1.9486   -1.5385   -1.3912 H       1  UNL1        0.1552
     40 H           0.8167   -2.7486    1.1696 H       1  UNL1        0.0640
     41 H          -0.6727   -3.4644    2.9771 H       1  UNL1        0.0278
     42 H          -1.6403   -4.3410    1.6943 H       1  UNL1        0.0278
     43 H          -2.4460   -3.1420    2.8280 H       1  UNL1        0.0278
     44 H          -3.6339    1.8885   -1.9122 H       1  UNL1        0.0643
     45 H          -2.3764    0.7126   -2.5596 H       1  UNL1        0.0643
     46 H          -3.0394    1.0913    1.4149 H       1  UNL1        0.0331
     47 H          -3.6554    2.2035    0.1805 H       1  UNL1        0.0331
     48 H          -5.0684    0.3063    1.9524 H       1  UNL1        0.0826
     49 H          -7.0528   -2.0360   -1.0083 H       1  UNL1        0.1466
     50 H          -6.2355   -1.7279   -2.5624 H       1  UNL1        0.1466
     51 H          -0.5089    0.3721   -1.3125 H       1  UNL1        0.0640
     52 H           4.2441    1.6197    1.1968 H       1  UNL1        0.0854
@<TRIPOS>BOND
     1     1     2    3
     2     2     3    1
     3     3     4    1
     4     4     5    1
     5     5     6   ar
     6     6     7   ar
     7     7     8   ar
     8     8     9    1
     9     9    10    2
    10     9    11   am
    11    11    12    1
    12    12    13   ar
    13    13    14   ar
    14    14    15    1
    15    14    16   ar
    16    16    17    1
    17    16    18   ar
    18    18    19    1
    19    19    20    1
    20    20    21    1
    21    19    22    1
    22    22    23    1
    23    23    24    1
    24    24    25    1
    25    24    26    1
    26    24    27    1
    27    23    28    1
    28    28    29    1
    29    29    30    1
    30    29    31    2
    31    18    32   ar
    32     8    33   ar
    33    33    34   ar
    34    34     5   ar
    35    32    12   ar
    36    31    19    1
    37     1    35    1
    38     3    36    1
    39     3    37    1
    40     6    38    1
    41    11    39    1
    42    13    40    1
    43    15    41    1
    44    15    42    1
    45    15    43    1
    46    20    44    1
    47    20    45    1
    48    22    46    1
    49    22    47    1
    50    23    48    1
    51    30    49    1
    52    30    50    1
    53    32    51    1
    54    33    52    1
