@<TRIPOS>MOLECULE
*****
 56 61 0 0 0
SMALL
GASTEIGER

@<TRIPOS>ATOM
      1 N          -2.0060    1.9169   -1.0971 N.pl3   1  UNL1       -0.3426
      2 C          -3.2527    1.2956   -0.8297 C.ar    1  UNL1        0.1250
      3 N          -4.3634    1.9005   -1.2409 N.ar    1  UNL1       -0.2394
      4 C          -5.6146    1.4595   -1.1003 C.ar    1  UNL1        0.0385
      5 C          -5.7531    0.2384   -0.4545 C.ar    1  UNL1        0.0161
      6 C          -7.0715   -0.3561   -0.2371 C.ar    1  UNL1        0.0028
      7 C          -7.9672   -0.3544   -1.2865 C.ar    1  UNL1       -0.0511
      8 C          -9.2247   -0.8905   -1.1706 C.ar    1  UNL1       -0.0430
      9 C          -9.5750   -1.4415    0.0473 C.ar    1  UNL1        0.0276
     10 N          -8.6931   -1.4407    1.0734 N.ar    1  UNL1       -0.2627
     11 C          -7.4612   -0.9123    0.9501 C.ar    1  UNL1        0.0353
     12 C          -4.6013   -0.4216   -0.0102 C.ar    1  UNL1        0.0324
     13 S          -4.3844   -1.9806    0.8250 S.2     1  UNL1       -0.0953
     14 C          -2.6414   -1.9100    0.9175 C.ar    1  UNL1       -0.0153
     15 C          -2.3126   -0.6938    0.3036 C.ar    1  UNL1        0.0002
     16 C          -0.8670   -0.3234    0.2751 C.ar    1  UNL1       -0.0163
     17 C           0.0507   -1.1269   -0.3572 C.ar    1  UNL1       -0.0522
     18 C           1.4061   -0.8591   -0.3929 C.ar    1  UNL1       -0.0394
     19 C           1.8205    0.2880    0.2540 C.ar    1  UNL1        0.0395
     20 C           0.9317    1.1101    0.8938 C.ar    1  UNL1       -0.0239
     21 C          -0.4187    0.8062    0.9069 C.ar    1  UNL1       -0.0490
     22 C           1.6551    2.2627    1.4979 C.3     1  UNL1       -0.0097
     23 C           3.0135    2.1984    0.8350 C.3     1  UNL1        0.0238
     24 N           3.1450    0.8232    0.3877 N.am    1  UNL1       -0.2706
     25 C           4.3497    0.1539    0.1368 C.2     1  UNL1        0.2241
     26 O           4.3195   -1.0630   -0.2541 O.2     1  UNL1       -0.2749
     27 C           5.6753    0.7839    0.3007 C.3     1  UNL1        0.0496
     28 C           6.7711   -0.1554   -0.0340 C.ar    1  UNL1       -0.0386
     29 C           7.2665   -0.2466   -1.3185 C.ar    1  UNL1       -0.0581
     30 C           8.2963   -1.1408   -1.5944 C.ar    1  UNL1       -0.0615
     31 C           8.8369   -1.9441   -0.6046 C.ar    1  UNL1       -0.0617
     32 C           8.3357   -1.8466    0.6769 C.ar    1  UNL1       -0.0615
     33 C           7.3035   -0.9515    0.9578 C.ar    1  UNL1       -0.0581
     34 C          -3.3265    0.0410   -0.1594 C.ar    1  UNL1        0.0370
     35 H          -1.7654    2.8350   -0.6443 H       1  UNL1        0.1437
     36 H          -1.3383    1.4377   -1.7563 H       1  UNL1        0.1437
     37 H          -6.4888    1.9600   -1.4368 H       1  UNL1        0.0837
     38 H          -7.7077    0.0749   -2.2511 H       1  UNL1        0.0625
     39 H          -9.9204   -0.8786   -2.0170 H       1  UNL1        0.0633
     40 H         -10.5578   -1.8718    0.1712 H       1  UNL1        0.0829
     41 H          -6.7596   -0.9147    1.7754 H       1  UNL1        0.0836
     42 H          -1.9668   -2.6363    1.3486 H       1  UNL1        0.0700
     43 H          -0.2919   -2.0376   -0.8687 H       1  UNL1        0.0624
     44 H           2.1159   -1.4985   -0.8932 H       1  UNL1        0.0636
     45 H          -1.1133    1.4800    1.4427 H       1  UNL1        0.0627
     46 H           1.1989    3.2366    1.2349 H       1  UNL1        0.0329
     47 H           1.7382    2.1790    2.5901 H       1  UNL1        0.0329
     48 H           3.7910    2.4835    1.5666 H       1  UNL1        0.0472
     49 H           3.0919    2.8950   -0.0256 H       1  UNL1        0.0472
     50 H           5.7455    1.1426    1.3614 H       1  UNL1        0.0407
     51 H           5.7753    1.7013   -0.3217 H       1  UNL1        0.0407
     52 H           6.8448    0.3854   -2.1088 H       1  UNL1        0.0620
     53 H           8.6934   -1.2266   -2.5809 H       1  UNL1        0.0618
     54 H           9.6371   -2.6415   -0.8106 H       1  UNL1        0.0618
     55 H           8.7417   -2.4689    1.4849 H       1  UNL1        0.0618
     56 H           6.8937   -0.8558    1.9511 H       1  UNL1        0.0620
@<TRIPOS>BOND
     1     1     2    1
     2     2     3   ar
     3     3     4   ar
     4     4     5   ar
     5     5     6    1
     6     6     7   ar
     7     7     8   ar
     8     8     9   ar
     9     9    10   ar
    10    10    11   ar
    11     5    12   ar
    12    12    13   ar
    13    13    14   ar
    14    14    15   ar
    15    15    16    1
    16    16    17   ar
    17    17    18   ar
    18    18    19   ar
    19    19    20   ar
    20    20    21   ar
    21    20    22    1
    22    22    23    1
    23    23    24    1
    24    24    25   am
    25    25    26    2
    26    25    27    1
    27    27    28    1
    28    28    29   ar
    29    29    30   ar
    30    30    31   ar
    31    31    32   ar
    32    32    33   ar
    33    15    34   ar
    34    34     2   ar
    35    11     6   ar
    36    34    12   ar
    37    21    16   ar
    38    33    28   ar
    39    24    19    1
    40     1    35    1
    41     1    36    1
    42     4    37    1
    43     7    38    1
    44     8    39    1
    45     9    40    1
    46    11    41    1
    47    14    42    1
    48    17    43    1
    49    18    44    1
    50    21    45    1
    51    22    46    1
    52    22    47    1
    53    23    48    1
    54    23    49    1
    55    27    50    1
    56    27    51    1
    57    29    52    1
    58    30    53    1
    59    31    54    1
    60    32    55    1
    61    33    56    1
