
     RDKit          3D

 56 61  0  0  0  0  0  0  0  0999 V2000
   -2.0060    1.9169   -1.0971 N   0  0  0  0  0  0  0  0  0  0  0  0
   -3.2527    1.2956   -0.8297 C   0  0  0  0  0  0  0  0  0  0  0  0
   -4.3634    1.9005   -1.2409 N   0  0  0  0  0  0  0  0  0  0  0  0
   -5.6146    1.4595   -1.1003 C   0  0  0  0  0  0  0  0  0  0  0  0
   -5.7531    0.2384   -0.4545 C   0  0  0  0  0  0  0  0  0  0  0  0
   -7.0715   -0.3561   -0.2371 C   0  0  0  0  0  0  0  0  0  0  0  0
   -7.9672   -0.3544   -1.2865 C   0  0  0  0  0  0  0  0  0  0  0  0
   -9.2247   -0.8905   -1.1706 C   0  0  0  0  0  0  0  0  0  0  0  0
   -9.5750   -1.4415    0.0473 C   0  0  0  0  0  0  0  0  0  0  0  0
   -8.6931   -1.4407    1.0734 N   0  0  0  0  0  0  0  0  0  0  0  0
   -7.4612   -0.9123    0.9501 C   0  0  0  0  0  0  0  0  0  0  0  0
   -4.6013   -0.4216   -0.0102 C   0  0  0  0  0  0  0  0  0  0  0  0
   -4.3844   -1.9806    0.8250 S   0  0  0  0  0  0  0  0  0  0  0  0
   -2.6414   -1.9100    0.9175 C   0  0  0  0  0  0  0  0  0  0  0  0
   -2.3126   -0.6938    0.3036 C   0  0  0  0  0  0  0  0  0  0  0  0
   -0.8670   -0.3234    0.2751 C   0  0  0  0  0  0  0  0  0  0  0  0
    0.0507   -1.1269   -0.3572 C   0  0  0  0  0  0  0  0  0  0  0  0
    1.4061   -0.8591   -0.3929 C   0  0  0  0  0  0  0  0  0  0  0  0
    1.8205    0.2880    0.2540 C   0  0  0  0  0  0  0  0  0  0  0  0
    0.9317    1.1101    0.8938 C   0  0  0  0  0  0  0  0  0  0  0  0
   -0.4187    0.8062    0.9069 C   0  0  0  0  0  0  0  0  0  0  0  0
    1.6551    2.2627    1.4979 C   0  0  0  0  0  0  0  0  0  0  0  0
    3.0135    2.1984    0.8350 C   0  0  0  0  0  0  0  0  0  0  0  0
    3.1450    0.8232    0.3877 N   0  0  0  0  0  0  0  0  0  0  0  0
    4.3497    0.1539    0.1368 C   0  0  0  0  0  0  0  0  0  0  0  0
    4.3195   -1.0630   -0.2541 O   0  0  0  0  0  0  0  0  0  0  0  0
    5.6753    0.7839    0.3007 C   0  0  0  0  0  0  0  0  0  0  0  0
    6.7711   -0.1554   -0.0340 C   0  0  0  0  0  0  0  0  0  0  0  0
    7.2665   -0.2466   -1.3185 C   0  0  0  0  0  0  0  0  0  0  0  0
    8.2963   -1.1408   -1.5944 C   0  0  0  0  0  0  0  0  0  0  0  0
    8.8369   -1.9441   -0.6046 C   0  0  0  0  0  0  0  0  0  0  0  0
    8.3357   -1.8466    0.6769 C   0  0  0  0  0  0  0  0  0  0  0  0
    7.3035   -0.9515    0.9578 C   0  0  0  0  0  0  0  0  0  0  0  0
   -3.3265    0.0410   -0.1594 C   0  0  0  0  0  0  0  0  0  0  0  0
   -1.7654    2.8350   -0.6443 H   0  0  0  0  0  0  0  0  0  0  0  0
   -1.3383    1.4377   -1.7563 H   0  0  0  0  0  0  0  0  0  0  0  0
   -6.4888    1.9600   -1.4368 H   0  0  0  0  0  0  0  0  0  0  0  0
   -7.7077    0.0749   -2.2511 H   0  0  0  0  0  0  0  0  0  0  0  0
   -9.9204   -0.8786   -2.0170 H   0  0  0  0  0  0  0  0  0  0  0  0
  -10.5578   -1.8718    0.1712 H   0  0  0  0  0  0  0  0  0  0  0  0
   -6.7596   -0.9147    1.7754 H   0  0  0  0  0  0  0  0  0  0  0  0
   -1.9668   -2.6363    1.3486 H   0  0  0  0  0  0  0  0  0  0  0  0
   -0.2919   -2.0376   -0.8687 H   0  0  0  0  0  0  0  0  0  0  0  0
    2.1159   -1.4985   -0.8932 H   0  0  0  0  0  0  0  0  0  0  0  0
   -1.1133    1.4800    1.4427 H   0  0  0  0  0  0  0  0  0  0  0  0
    1.1989    3.2366    1.2349 H   0  0  0  0  0  0  0  0  0  0  0  0
    1.7382    2.1790    2.5901 H   0  0  0  0  0  0  0  0  0  0  0  0
    3.7910    2.4835    1.5666 H   0  0  0  0  0  0  0  0  0  0  0  0
    3.0919    2.8950   -0.0256 H   0  0  0  0  0  0  0  0  0  0  0  0
    5.7455    1.1426    1.3614 H   0  0  0  0  0  0  0  0  0  0  0  0
    5.7753    1.7013   -0.3217 H   0  0  0  0  0  0  0  0  0  0  0  0
    6.8448    0.3854   -2.1088 H   0  0  0  0  0  0  0  0  0  0  0  0
    8.6934   -1.2266   -2.5809 H   0  0  0  0  0  0  0  0  0  0  0  0
    9.6371   -2.6415   -0.8106 H   0  0  0  0  0  0  0  0  0  0  0  0
    8.7417   -2.4689    1.4849 H   0  0  0  0  0  0  0  0  0  0  0  0
    6.8937   -0.8558    1.9511 H   0  0  0  0  0  0  0  0  0  0  0  0
  1  2  1  0
  2  3  2  0
  3  4  1  0
  4  5  2  0
  5  6  1  0
  6  7  2  0
  7  8  1  0
  8  9  2  0
  9 10  1  0
 10 11  2  0
  5 12  1  0
 12 13  1  0
 13 14  1  0
 14 15  2  0
 15 16  1  0
 16 17  2  0
 17 18  1  0
 18 19  2  0
 19 20  1  0
 20 21  2  0
 20 22  1  0
 22 23  1  0
 23 24  1  0
 24 25  1  0
 25 26  2  0
 25 27  1  0
 27 28  1  0
 28 29  2  0
 29 30  1  0
 30 31  2  0
 31 32  1  0
 32 33  2  0
 15 34  1  0
 34  2  1  0
 11  6  1  0
 34 12  2  0
 21 16  1  0
 33 28  1  0
 24 19  1  0
  1 35  1  0
  1 36  1  0
  4 37  1  0
  7 38  1  0
  8 39  1  0
  9 40  1  0
 11 41  1  0
 14 42  1  0
 17 43  1  0
 18 44  1  0
 21 45  1  0
 22 46  1  0
 22 47  1  0
 23 48  1  0
 23 49  1  0
 27 50  1  0
 27 51  1  0
 29 52  1  0
 30 53  1  0
 31 54  1  0
 32 55  1  0
 33 56  1  0
M  END
$$$$
