@<TRIPOS>MOLECULE
*****
 63 67 0 0 0
SMALL
GASTEIGER

@<TRIPOS>ATOM
      1 C           7.0828   -3.2883   -1.7215 C.3     1  UNL1       -0.0223
      2 C           6.1468   -2.2258   -1.2918 C.ar    1  UNL1        0.0403
      3 C           4.8440   -2.2848   -1.7305 C.ar    1  UNL1       -0.0194
      4 C           3.9760   -1.2685   -1.3169 C.ar    1  UNL1        0.0370
      5 N           2.6446   -1.3140   -1.7817 N.pl3   1  UNL1       -0.2835
      6 C           1.6718   -0.4125   -1.2770 C.ar    1  UNL1        0.2212
      7 N           1.6428    0.8639   -1.6866 N.ar    1  UNL1       -0.2219
      8 C           0.7509    1.7537   -1.2798 C.ar    1  UNL1        0.0437
      9 C          -0.2391    1.3268   -0.3497 C.ar    1  UNL1        0.0583
     10 C          -1.3512    2.2346   -0.1084 C.ar    1  UNL1        0.0764
     11 C          -2.5855    1.9313    0.3756 C.ar    1  UNL1       -0.0349
     12 C          -3.6333    2.8724    0.4470 C.ar    1  UNL1       -0.0505
     13 C          -3.4487    4.1543    0.0214 C.ar    1  UNL1        0.0004
     14 C          -4.4638    5.0822    0.0789 C.ar    1  UNL1       -0.0526
     15 C          -4.2424    6.3590   -0.3628 C.ar    1  UNL1       -0.0611
     16 C          -2.9969    6.6802   -0.8565 C.ar    1  UNL1       -0.0597
     17 C          -1.9922    5.7442   -0.9084 C.ar    1  UNL1       -0.0357
     18 C          -2.1790    4.4522   -0.4743 C.ar    1  UNL1        0.0717
     19 N          -1.2175    3.5357   -0.5236 N.ar    1  UNL1       -0.2465
     20 C          -0.2275    0.0442    0.0863 C.ar    1  UNL1        0.1334
     21 N          -1.0123   -0.4178    1.1542 N.pl3   1  UNL1       -0.3230
     22 C          -1.0859   -1.8460    1.4270 C.3     1  UNL1        0.0507
     23 C          -1.6231   -2.6130    0.2662 C.3     1  UNL1       -0.0247
     24 C          -2.9365   -3.1566    0.7267 C.3     1  UNL1        0.0124
     25 C          -4.0267   -2.2523    0.1760 C.3     1  UNL1        0.0495
     26 O          -5.2478   -2.7658    0.6081 O.3     1  UNL1       -0.3946
     27 C          -2.9445   -3.1692    2.2265 C.3     1  UNL1        0.0877
     28 O          -2.5869   -4.4348    2.7022 O.3     1  UNL1       -0.3888
     29 C          -1.9337   -2.1301    2.6391 C.3     1  UNL1        0.0996
     30 O          -1.1993   -2.6344    3.7060 O.3     1  UNL1       -0.3874
     31 N           0.7496   -0.8063   -0.4058 N.ar    1  UNL1       -0.1988
     32 C           4.4494   -0.2662   -0.5012 C.ar    1  UNL1       -0.0194
     33 C           5.7707   -0.2267   -0.0699 C.ar    1  UNL1        0.0403
     34 C           6.2666    0.8830    0.8126 C.3     1  UNL1       -0.0223
     35 N           6.5742   -1.2151   -0.4847 N.ar    1  UNL1       -0.2569
     36 H           7.0300   -4.0947   -0.9590 H       1  UNL1        0.0292
     37 H           8.1009   -2.8596   -1.8387 H       1  UNL1        0.0292
     38 H           6.7049   -3.7157   -2.6765 H       1  UNL1        0.0292
     39 H           4.5288   -3.0955   -2.3667 H       1  UNL1        0.0654
     40 H           2.3697   -2.0286   -2.5157 H       1  UNL1        0.1550
     41 H           0.7258    2.7677   -1.6020 H       1  UNL1        0.0838
     42 H          -2.8579    0.9505    0.6689 H       1  UNL1        0.0639
     43 H          -4.6032    2.5749    0.8461 H       1  UNL1        0.0625
     44 H          -5.4321    4.8107    0.4659 H       1  UNL1        0.0624
     45 H          -5.0152    7.1180   -0.3368 H       1  UNL1        0.0618
     46 H          -2.7849    7.6725   -1.2115 H       1  UNL1        0.0618
     47 H          -1.0376    6.0339   -1.2966 H       1  UNL1        0.0639
     48 H          -1.4847    0.2043    1.8052 H       1  UNL1        0.1479
     49 H          -0.0593   -2.2608    1.6473 H       1  UNL1        0.0524
     50 H          -1.7564   -1.8829   -0.5828 H       1  UNL1        0.0288
     51 H          -0.9447   -3.4509   -0.0354 H       1  UNL1        0.0288
     52 H          -3.0412   -4.1917    0.3372 H       1  UNL1        0.0349
     53 H          -3.9572   -2.2325   -0.9355 H       1  UNL1        0.0561
     54 H          -3.8828   -1.2070    0.5298 H       1  UNL1        0.0561
     55 H          -5.8859   -2.0073    0.6140 H       1  UNL1        0.2094
     56 H          -3.9344   -2.8420    2.6212 H       1  UNL1        0.0623
     57 H          -2.2051   -4.9673    1.9872 H       1  UNL1        0.2099
     58 H          -2.4285   -1.1883    3.0114 H       1  UNL1        0.0638
     59 H          -0.5279   -3.2939    3.4046 H       1  UNL1        0.2100
     60 H           3.8016    0.5268   -0.1682 H       1  UNL1        0.0654
     61 H           5.4093    1.4969    1.1031 H       1  UNL1        0.0292
     62 H           6.8582    0.4594    1.6428 H       1  UNL1        0.0292
     63 H           6.9138    1.5141    0.1324 H       1  UNL1        0.0292
@<TRIPOS>BOND
     1     1     2    1
     2     2     3   ar
     3     3     4   ar
     4     4     5    1
     5     5     6    1
     6     6     7   ar
     7     7     8   ar
     8     8     9   ar
     9     9    10    1
    10    10    11   ar
    11    11    12   ar
    12    12    13   ar
    13    13    14   ar
    14    14    15   ar
    15    15    16   ar
    16    16    17   ar
    17    17    18   ar
    18    18    19   ar
    19     9    20   ar
    20    20    21    1
    21    21    22    1
    22    22    23    1
    23    23    24    1
    24    24    25    1
    25    25    26    1
    26    24    27    1
    27    27    28    1
    28    27    29    1
    29    29    30    1
    30    20    31   ar
    31     4    32   ar
    32    32    33   ar
    33    33    34    1
    34    33    35   ar
    35    35     2   ar
    36    31     6   ar
    37    19    10   ar
    38    29    22    1
    39    18    13   ar
    40     1    36    1
    41     1    37    1
    42     1    38    1
    43     3    39    1
    44     5    40    1
    45     8    41    1
    46    11    42    1
    47    12    43    1
    48    14    44    1
    49    15    45    1
    50    16    46    1
    51    17    47    1
    52    21    48    1
    53    22    49    1
    54    23    50    1
    55    23    51    1
    56    24    52    1
    57    25    53    1
    58    25    54    1
    59    26    55    1
    60    27    56    1
    61    28    57    1
    62    29    58    1
    63    30    59    1
    64    32    60    1
    65    34    61    1
    66    34    62    1
    67    34    63    1
