
     RDKit          3D

 63 67  0  0  0  0  0  0  0  0999 V2000
    7.0828   -3.2883   -1.7215 C   0  0  0  0  0  0  0  0  0  0  0  0
    6.1468   -2.2258   -1.2918 C   0  0  0  0  0  0  0  0  0  0  0  0
    4.8440   -2.2848   -1.7305 C   0  0  0  0  0  0  0  0  0  0  0  0
    3.9760   -1.2685   -1.3169 C   0  0  0  0  0  0  0  0  0  0  0  0
    2.6446   -1.3140   -1.7817 N   0  0  0  0  0  0  0  0  0  0  0  0
    1.6718   -0.4125   -1.2770 C   0  0  0  0  0  0  0  0  0  0  0  0
    1.6428    0.8639   -1.6866 N   0  0  0  0  0  0  0  0  0  0  0  0
    0.7509    1.7537   -1.2798 C   0  0  0  0  0  0  0  0  0  0  0  0
   -0.2391    1.3268   -0.3497 C   0  0  0  0  0  0  0  0  0  0  0  0
   -1.3512    2.2346   -0.1084 C   0  0  0  0  0  0  0  0  0  0  0  0
   -2.5855    1.9313    0.3756 C   0  0  0  0  0  0  0  0  0  0  0  0
   -3.6333    2.8724    0.4470 C   0  0  0  0  0  0  0  0  0  0  0  0
   -3.4487    4.1543    0.0214 C   0  0  0  0  0  0  0  0  0  0  0  0
   -4.4638    5.0822    0.0789 C   0  0  0  0  0  0  0  0  0  0  0  0
   -4.2424    6.3590   -0.3628 C   0  0  0  0  0  0  0  0  0  0  0  0
   -2.9969    6.6802   -0.8565 C   0  0  0  0  0  0  0  0  0  0  0  0
   -1.9922    5.7442   -0.9084 C   0  0  0  0  0  0  0  0  0  0  0  0
   -2.1790    4.4522   -0.4743 C   0  0  0  0  0  0  0  0  0  0  0  0
   -1.2175    3.5357   -0.5236 N   0  0  0  0  0  0  0  0  0  0  0  0
   -0.2275    0.0442    0.0863 C   0  0  0  0  0  0  0  0  0  0  0  0
   -1.0123   -0.4178    1.1542 N   0  0  0  0  0  0  0  0  0  0  0  0
   -1.0859   -1.8460    1.4270 C   0  0  2  0  0  0  0  0  0  0  0  0
   -1.6231   -2.6130    0.2662 C   0  0  0  0  0  0  0  0  0  0  0  0
   -2.9365   -3.1566    0.7267 C   0  0  2  0  0  0  0  0  0  0  0  0
   -4.0267   -2.2523    0.1760 C   0  0  0  0  0  0  0  0  0  0  0  0
   -5.2478   -2.7658    0.6081 O   0  0  0  0  0  0  0  0  0  0  0  0
   -2.9445   -3.1692    2.2265 C   0  0  1  0  0  0  0  0  0  0  0  0
   -2.5869   -4.4348    2.7022 O   0  0  0  0  0  0  0  0  0  0  0  0
   -1.9337   -2.1301    2.6391 C   0  0  1  0  0  0  0  0  0  0  0  0
   -1.1993   -2.6344    3.7060 O   0  0  0  0  0  0  0  0  0  0  0  0
    0.7496   -0.8063   -0.4058 N   0  0  0  0  0  0  0  0  0  0  0  0
    4.4494   -0.2662   -0.5012 C   0  0  0  0  0  0  0  0  0  0  0  0
    5.7707   -0.2267   -0.0699 C   0  0  0  0  0  0  0  0  0  0  0  0
    6.2666    0.8830    0.8126 C   0  0  0  0  0  0  0  0  0  0  0  0
    6.5742   -1.2151   -0.4847 N   0  0  0  0  0  0  0  0  0  0  0  0
    7.0300   -4.0947   -0.9590 H   0  0  0  0  0  0  0  0  0  0  0  0
    8.1009   -2.8596   -1.8387 H   0  0  0  0  0  0  0  0  0  0  0  0
    6.7049   -3.7157   -2.6765 H   0  0  0  0  0  0  0  0  0  0  0  0
    4.5288   -3.0955   -2.3667 H   0  0  0  0  0  0  0  0  0  0  0  0
    2.3697   -2.0286   -2.5157 H   0  0  0  0  0  0  0  0  0  0  0  0
    0.7258    2.7677   -1.6020 H   0  0  0  0  0  0  0  0  0  0  0  0
   -2.8579    0.9505    0.6689 H   0  0  0  0  0  0  0  0  0  0  0  0
   -4.6032    2.5749    0.8461 H   0  0  0  0  0  0  0  0  0  0  0  0
   -5.4321    4.8107    0.4659 H   0  0  0  0  0  0  0  0  0  0  0  0
   -5.0152    7.1180   -0.3368 H   0  0  0  0  0  0  0  0  0  0  0  0
   -2.7849    7.6725   -1.2115 H   0  0  0  0  0  0  0  0  0  0  0  0
   -1.0376    6.0339   -1.2966 H   0  0  0  0  0  0  0  0  0  0  0  0
   -1.4847    0.2043    1.8052 H   0  0  0  0  0  0  0  0  0  0  0  0
   -0.0593   -2.2608    1.6473 H   0  0  0  0  0  0  0  0  0  0  0  0
   -1.7564   -1.8829   -0.5828 H   0  0  0  0  0  0  0  0  0  0  0  0
   -0.9447   -3.4509   -0.0354 H   0  0  0  0  0  0  0  0  0  0  0  0
   -3.0412   -4.1917    0.3372 H   0  0  0  0  0  0  0  0  0  0  0  0
   -3.9572   -2.2325   -0.9355 H   0  0  0  0  0  0  0  0  0  0  0  0
   -3.8828   -1.2070    0.5298 H   0  0  0  0  0  0  0  0  0  0  0  0
   -5.8859   -2.0073    0.6140 H   0  0  0  0  0  0  0  0  0  0  0  0
   -3.9344   -2.8420    2.6212 H   0  0  0  0  0  0  0  0  0  0  0  0
   -2.2051   -4.9673    1.9872 H   0  0  0  0  0  0  0  0  0  0  0  0
   -2.4285   -1.1883    3.0114 H   0  0  0  0  0  0  0  0  0  0  0  0
   -0.5279   -3.2939    3.4046 H   0  0  0  0  0  0  0  0  0  0  0  0
    3.8016    0.5268   -0.1682 H   0  0  0  0  0  0  0  0  0  0  0  0
    5.4093    1.4969    1.1031 H   0  0  0  0  0  0  0  0  0  0  0  0
    6.8582    0.4594    1.6428 H   0  0  0  0  0  0  0  0  0  0  0  0
    6.9138    1.5141    0.1324 H   0  0  0  0  0  0  0  0  0  0  0  0
  1  2  1  0
  2  3  2  0
  3  4  1  0
  4  5  1  0
  5  6  1  0
  6  7  2  0
  7  8  1  0
  8  9  2  0
  9 10  1  0
 10 11  2  0
 11 12  1  0
 12 13  2  0
 13 14  1  0
 14 15  2  0
 15 16  1  0
 16 17  2  0
 17 18  1  0
 18 19  2  0
  9 20  1  0
 20 21  1  0
 21 22  1  0
 22 23  1  0
 23 24  1  0
 24 25  1  0
 25 26  1  0
 24 27  1  0
 27 28  1  0
 27 29  1  0
 29 30  1  0
 20 31  2  0
  4 32  2  0
 32 33  1  0
 33 34  1  0
 33 35  2  0
 35  2  1  0
 31  6  1  0
 19 10  1  0
 29 22  1  0
 18 13  1  0
  1 36  1  0
  1 37  1  0
  1 38  1  0
  3 39  1  0
  5 40  1  0
  8 41  1  0
 11 42  1  0
 12 43  1  0
 14 44  1  0
 15 45  1  0
 16 46  1  0
 17 47  1  0
 21 48  1  0
 22 49  1  1
 23 50  1  0
 23 51  1  0
 24 52  1  6
 25 53  1  0
 25 54  1  0
 26 55  1  0
 27 56  1  1
 28 57  1  0
 29 58  1  1
 30 59  1  0
 32 60  1  0
 34 61  1  0
 34 62  1  0
 34 63  1  0
M  END
$$$$
