
     RDKit          3D

 61 64  0  0  0  0  0  0  0  0999 V2000
   -5.9692   -0.5159    2.8112 C   0  0  0  0  0  0  0  0  0  0  0  0
   -5.5538   -0.3587    1.3631 C   0  0  0  0  0  0  0  0  0  0  0  0
   -6.0061   -1.5397    0.5285 C   0  0  0  0  0  0  0  0  0  0  0  0
   -6.0647    0.8300    0.7638 N   0  0  0  0  0  0  0  0  0  0  0  0
   -7.3668    1.1246    0.9662 C   0  0  0  0  0  0  0  0  0  0  0  0
   -8.5190    0.5241    1.6870 C   0  0  0  0  0  0  0  0  0  0  0  0
   -7.6090    2.2928    0.3009 N   0  0  0  0  0  0  0  0  0  0  0  0
   -6.4717    2.6948   -0.2924 C   0  0  0  0  0  0  0  0  0  0  0  0
   -5.4859    1.7593    0.0040 C   0  0  0  0  0  0  0  0  0  0  0  0
   -4.0993    1.7957   -0.4356 C   0  0  0  0  0  0  0  0  0  0  0  0
   -3.1775    0.9003   -0.1459 N   0  0  0  0  0  0  0  0  0  0  0  0
   -1.9100    0.9592   -0.5649 C   0  0  0  0  0  0  0  0  0  0  0  0
   -1.0281   -0.0816   -0.1708 N   0  0  0  0  0  0  0  0  0  0  0  0
    0.3435   -0.2567   -0.4767 C   0  0  0  0  0  0  0  0  0  0  0  0
    1.0754   -1.3512   -0.0004 C   0  0  0  0  0  0  0  0  0  0  0  0
    2.4071   -1.5162   -0.3018 C   0  0  0  0  0  0  0  0  0  0  0  0
    3.0995   -0.6206   -1.0861 C   0  0  0  0  0  0  0  0  0  0  0  0
    2.4188    0.4720   -1.5767 C   0  0  0  0  0  0  0  0  0  0  0  0
    1.0862    0.6037   -1.2537 C   0  0  0  0  0  0  0  0  0  0  0  0
    4.4783   -0.8836   -1.3422 N   0  0  0  0  0  0  0  0  0  0  0  0
    5.0409   -2.0925   -0.7809 C   0  0  0  0  0  0  0  0  0  0  0  0
    6.5387   -2.1232   -0.9828 C   0  0  0  0  0  0  0  0  0  0  0  0
    7.0301   -0.8379   -0.5282 N   0  0  0  0  0  0  0  0  0  0  0  0
    6.6678    0.2533   -1.3883 C   0  0  0  0  0  0  0  0  0  0  0  0
    5.3522   -0.0313   -2.1216 C   0  0  0  0  0  0  0  0  0  0  0  0
    7.7824   -0.8315    0.6742 C   0  0  0  0  0  0  0  0  0  0  0  0
    7.8122   -2.0533    1.0393 O   0  0  0  0  0  0  0  0  0  0  0  0
    8.3803    0.3627    1.3207 C   0  0  0  0  0  0  0  0  0  0  0  0
    9.0262   -0.1180    2.4795 O   0  0  0  0  0  0  0  0  0  0  0  0
   -1.5907    2.0107   -1.3273 N   0  0  0  0  0  0  0  0  0  0  0  0
   -2.4238    2.9882   -1.6957 C   0  0  0  0  0  0  0  0  0  0  0  0
   -3.6984    2.8518   -1.2254 C   0  0  0  0  0  0  0  0  0  0  0  0
   -5.0831   -0.5487    3.5113 H   0  0  0  0  0  0  0  0  0  0  0  0
   -6.5778    0.3216    3.1845 H   0  0  0  0  0  0  0  0  0  0  0  0
   -6.4367   -1.5139    2.9244 H   0  0  0  0  0  0  0  0  0  0  0  0
   -4.4479   -0.3403    1.3705 H   0  0  0  0  0  0  0  0  0  0  0  0
   -6.4977   -1.2022   -0.4067 H   0  0  0  0  0  0  0  0  0  0  0  0
   -6.6978   -2.1591    1.1361 H   0  0  0  0  0  0  0  0  0  0  0  0
   -5.1372   -2.1639    0.2452 H   0  0  0  0  0  0  0  0  0  0  0  0
   -8.7824    1.0795    2.5935 H   0  0  0  0  0  0  0  0  0  0  0  0
   -9.4482    0.5528    1.0442 H   0  0  0  0  0  0  0  0  0  0  0  0
   -8.3596   -0.5709    1.8519 H   0  0  0  0  0  0  0  0  0  0  0  0
   -6.3843    3.5983   -0.8890 H   0  0  0  0  0  0  0  0  0  0  0  0
   -1.4200   -0.8569    0.4414 H   0  0  0  0  0  0  0  0  0  0  0  0
    0.5591   -2.0880    0.6288 H   0  0  0  0  0  0  0  0  0  0  0  0
    2.8749   -2.4086    0.1262 H   0  0  0  0  0  0  0  0  0  0  0  0
    2.9419    1.1868   -2.1938 H   0  0  0  0  0  0  0  0  0  0  0  0
    0.6355    1.4828   -1.6781 H   0  0  0  0  0  0  0  0  0  0  0  0
    4.5913   -3.0227   -1.1772 H   0  0  0  0  0  0  0  0  0  0  0  0
    4.9006   -2.0132    0.3316 H   0  0  0  0  0  0  0  0  0  0  0  0
    6.9746   -2.9774   -0.4373 H   0  0  0  0  0  0  0  0  0  0  0  0
    6.6944   -2.2226   -2.0948 H   0  0  0  0  0  0  0  0  0  0  0  0
    7.4391    0.4177   -2.1685 H   0  0  0  0  0  0  0  0  0  0  0  0
    6.5907    1.2006   -0.8150 H   0  0  0  0  0  0  0  0  0  0  0  0
    5.6329   -0.5907   -3.0543 H   0  0  0  0  0  0  0  0  0  0  0  0
    4.9325    0.9352   -2.3938 H   0  0  0  0  0  0  0  0  0  0  0  0
    7.6364    1.1357    1.5871 H   0  0  0  0  0  0  0  0  0  0  0  0
    9.1486    0.7690    0.6075 H   0  0  0  0  0  0  0  0  0  0  0  0
    8.6952    0.3133    3.2922 H   0  0  0  0  0  0  0  0  0  0  0  0
   -2.1057    3.8150   -2.3151 H   0  0  0  0  0  0  0  0  0  0  0  0
   -4.4348    3.6249   -1.4934 H   0  0  0  0  0  0  0  0  0  0  0  0
  1  2  1  0
  2  3  1  0
  2  4  1  0
  4  5  1  0
  5  6  1  0
  5  7  2  0
  7  8  1  0
  8  9  2  0
  9 10  1  0
 10 11  2  0
 11 12  1  0
 12 13  1  0
 13 14  1  0
 14 15  2  0
 15 16  1  0
 16 17  2  0
 17 18  1  0
 18 19  2  0
 17 20  1  0
 20 21  1  0
 21 22  1  0
 22 23  1  0
 23 24  1  0
 24 25  1  0
 23 26  1  0
 26 27  2  0
 26 28  1  0
 28 29  1  0
 12 30  2  0
 30 31  1  0
 31 32  2  0
  9  4  1  0
 32 10  1  0
 19 14  1  0
 25 20  1  0
  1 33  1  0
  1 34  1  0
  1 35  1  0
  2 36  1  0
  3 37  1  0
  3 38  1  0
  3 39  1  0
  6 40  1  0
  6 41  1  0
  6 42  1  0
  8 43  1  0
 13 44  1  0
 15 45  1  0
 16 46  1  0
 18 47  1  0
 19 48  1  0
 21 49  1  0
 21 50  1  0
 22 51  1  0
 22 52  1  0
 24 53  1  0
 24 54  1  0
 25 55  1  0
 25 56  1  0
 28 57  1  0
 28 58  1  0
 29 59  1  0
 31 60  1  0
 32 61  1  0
M  END
$$$$
