
     RDKit          3D

 56 60  0  0  0  0  0  0  0  0999 V2000
   -2.7135    0.5952   -1.6687 O   0  0  0  0  0  0  0  0  0  0  0  0
   -2.6927   -0.3817   -2.4414 C   0  0  0  0  0  0  0  0  0  0  0  0
   -3.9436   -0.9040   -3.0841 C   0  0  0  0  0  0  0  0  0  0  0  0
   -5.1568   -0.1918   -2.6061 C   0  0  0  0  0  0  0  0  0  0  0  0
   -5.4306   -0.3400   -1.1535 C   0  0  0  0  0  0  0  0  0  0  0  0
   -6.4959    0.2946   -0.5916 N   0  0  0  0  0  0  0  0  0  0  0  0
   -6.8127    0.1912    0.7027 C   0  0  0  0  0  0  0  0  0  0  0  0
   -7.9079    0.8512    1.2526 C   0  0  0  0  0  0  0  0  0  0  0  0
   -8.2244    0.7367    2.5892 C   0  0  0  0  0  0  0  0  0  0  0  0
   -7.4635   -0.0405    3.4369 C   0  0  0  0  0  0  0  0  0  0  0  0
   -6.3794   -0.6921    2.8863 C   0  0  0  0  0  0  0  0  0  0  0  0
   -6.0524   -0.5855    1.5499 C   0  0  0  0  0  0  0  0  0  0  0  0
   -4.9708   -1.2346    0.9961 C   0  0  0  0  0  0  0  0  0  0  0  0
   -4.2586   -1.9467    1.7301 O   0  0  0  0  0  0  0  0  0  0  0  0
   -4.6866   -1.0985   -0.3333 N   0  0  0  0  0  0  0  0  0  0  0  0
   -1.4668   -1.0241   -2.7289 N   0  0  0  0  0  0  0  0  0  0  0  0
   -0.1925   -0.6807   -2.2240 C   0  0  0  0  0  0  0  0  0  0  0  0
    0.0873    0.3437   -1.3593 C   0  0  0  0  0  0  0  0  0  0  0  0
    1.3680    0.6364   -0.8933 C   0  0  0  0  0  0  0  0  0  0  0  0
    2.4194   -0.1338   -1.3132 C   0  0  0  0  0  0  0  0  0  0  0  0
    3.7772    0.1048   -0.8760 C   0  0  0  0  0  0  0  0  0  0  0  0
    4.7138   -0.6484   -1.3036 O   0  0  0  0  0  0  0  0  0  0  0  0
    4.1469    1.1417    0.0152 N   0  0  0  0  0  0  0  0  0  0  0  0
    5.5291    1.2913    0.3861 C   0  0  0  0  0  0  0  0  0  0  0  0
    6.3606    2.0974   -0.3598 C   0  0  0  0  0  0  0  0  0  0  0  0
    7.7010    2.2650   -0.0311 C   0  0  0  0  0  0  0  0  0  0  0  0
    8.2058    1.6122    1.0615 C   0  0  0  0  0  0  0  0  0  0  0  0
    7.4068    0.7960    1.8344 C   0  0  0  0  0  0  0  0  0  0  0  0
    7.9406    0.1496    2.9301 C   0  0  0  0  0  0  0  0  0  0  0  0
    7.1381   -0.6703    3.7064 C   0  0  0  0  0  0  0  0  0  0  0  0
    5.8183   -0.7838    3.3130 C   0  0  0  0  0  0  0  0  0  0  0  0
    5.3154   -0.1449    2.2403 N   0  0  0  0  0  0  0  0  0  0  0  0
    6.0724    0.6517    1.4765 C   0  0  0  0  0  0  0  0  0  0  0  0
    2.1436   -1.1631   -2.1810 C   0  0  0  0  0  0  0  0  0  0  0  0
    0.8845   -1.4556   -2.6430 C   0  0  0  0  0  0  0  0  0  0  0  0
   -4.0093   -1.9825   -2.8787 H   0  0  0  0  0  0  0  0  0  0  0  0
   -3.8954   -0.7879   -4.1832 H   0  0  0  0  0  0  0  0  0  0  0  0
   -5.0524    0.9092   -2.7965 H   0  0  0  0  0  0  0  0  0  0  0  0
   -6.0360   -0.5262   -3.1969 H   0  0  0  0  0  0  0  0  0  0  0  0
   -8.5054    1.4547    0.6129 H   0  0  0  0  0  0  0  0  0  0  0  0
   -9.0782    1.2474    3.0323 H   0  0  0  0  0  0  0  0  0  0  0  0
   -7.6657   -0.1656    4.4916 H   0  0  0  0  0  0  0  0  0  0  0  0
   -5.7404   -1.3182    3.4956 H   0  0  0  0  0  0  0  0  0  0  0  0
   -3.8598   -1.6276   -0.6942 H   0  0  0  0  0  0  0  0  0  0  0  0
   -1.5058   -1.8535   -3.3952 H   0  0  0  0  0  0  0  0  0  0  0  0
   -0.7049    0.9802   -0.9982 H   0  0  0  0  0  0  0  0  0  0  0  0
    1.5057    1.4688   -0.2071 H   0  0  0  0  0  0  0  0  0  0  0  0
    3.4166    1.7909    0.3975 H   0  0  0  0  0  0  0  0  0  0  0  0
    5.9691    2.6138   -1.2208 H   0  0  0  0  0  0  0  0  0  0  0  0
    8.3269    2.9053   -0.6377 H   0  0  0  0  0  0  0  0  0  0  0  0
    9.2396    1.7455    1.3095 H   0  0  0  0  0  0  0  0  0  0  0  0
    8.9772    0.2426    3.2339 H   0  0  0  0  0  0  0  0  0  0  0  0
    7.5350   -1.1873    4.5701 H   0  0  0  0  0  0  0  0  0  0  0  0
    5.1984   -1.4379    3.9406 H   0  0  0  0  0  0  0  0  0  0  0  0
    2.9536   -1.8131   -2.5495 H   0  0  0  0  0  0  0  0  0  0  0  0
    0.7512   -2.2972   -3.3358 H   0  0  0  0  0  0  0  0  0  0  0  0
  1  2  2  0
  2  3  1  0
  3  4  1  0
  4  5  1  0
  5  6  2  0
  6  7  1  0
  7  8  2  0
  8  9  1  0
  9 10  2  0
 10 11  1  0
 11 12  2  0
 12 13  1  0
 13 14  2  0
 13 15  1  0
  2 16  1  0
 16 17  1  0
 17 18  2  0
 18 19  1  0
 19 20  2  0
 20 21  1  0
 21 22  2  0
 21 23  1  0
 23 24  1  0
 24 25  2  0
 25 26  1  0
 26 27  2  0
 27 28  1  0
 28 29  2  0
 29 30  1  0
 30 31  2  0
 31 32  1  0
 32 33  2  0
 20 34  1  0
 34 35  2  0
 15  5  1  0
 35 17  1  0
 12  7  1  0
 33 24  1  0
 33 28  1  0
  3 36  1  0
  3 37  1  0
  4 38  1  0
  4 39  1  0
  8 40  1  0
  9 41  1  0
 10 42  1  0
 11 43  1  0
 15 44  1  0
 16 45  1  0
 18 46  1  0
 19 47  1  0
 23 48  1  0
 25 49  1  0
 26 50  1  0
 27 51  1  0
 29 52  1  0
 30 53  1  0
 31 54  1  0
 34 55  1  0
 35 56  1  0
M  END
$$$$
