@<TRIPOS>MOLECULE
*****
 56 60 0 0 0
SMALL
GASTEIGER

@<TRIPOS>ATOM
      1 O          -2.7135    0.5952   -1.6687 O.2     1  UNL1       -0.2755
      2 C          -2.6927   -0.3817   -2.4414 C.2     1  UNL1        0.2176
      3 C          -3.9436   -0.9040   -3.0841 C.3     1  UNL1        0.0311
      4 C          -5.1568   -0.1918   -2.6061 C.3     1  UNL1        0.0138
      5 C          -5.4306   -0.3400   -1.1535 C.ar    1  UNL1        0.1108
      6 N          -6.4959    0.2946   -0.5916 N.ar    1  UNL1       -0.2337
      7 C          -6.8127    0.1912    0.7027 C.ar    1  UNL1        0.0781
      8 C          -7.9079    0.8512    1.2526 C.ar    1  UNL1       -0.0355
      9 C          -8.2244    0.7367    2.5892 C.ar    1  UNL1       -0.0597
     10 C          -7.4635   -0.0405    3.4369 C.ar    1  UNL1       -0.0609
     11 C          -6.3794   -0.6921    2.8863 C.ar    1  UNL1       -0.0474
     12 C          -6.0524   -0.5855    1.5499 C.ar    1  UNL1        0.0647
     13 C          -4.9708   -1.2346    0.9961 C.ar    1  UNL1        0.2592
     14 O          -4.2586   -1.9467    1.7301 O.2     1  UNL1       -0.2672
     15 N          -4.6866   -1.0985   -0.3333 N.ar    1  UNL1       -0.3103
     16 N          -1.4668   -1.0241   -2.7289 N.am    1  UNL1       -0.2855
     17 C          -0.1925   -0.6807   -2.2240 C.ar    1  UNL1        0.0334
     18 C           0.0873    0.3437   -1.3593 C.ar    1  UNL1       -0.0398
     19 C           1.3680    0.6364   -0.8933 C.ar    1  UNL1       -0.0479
     20 C           2.4194   -0.1338   -1.3132 C.ar    1  UNL1        0.0371
     21 C           3.7772    0.1048   -0.8760 C.2     1  UNL1        0.2483
     22 O           4.7138   -0.6484   -1.3036 O.2     1  UNL1       -0.2699
     23 N           4.1469    1.1417    0.0152 N.am    1  UNL1       -0.2797
     24 C           5.5291    1.2913    0.3861 C.ar    1  UNL1        0.0598
     25 C           6.3606    2.0974   -0.3598 C.ar    1  UNL1       -0.0384
     26 C           7.7010    2.2650   -0.0311 C.ar    1  UNL1       -0.0593
     27 C           8.2058    1.6122    1.0615 C.ar    1  UNL1       -0.0524
     28 C           7.4068    0.7960    1.8344 C.ar    1  UNL1        0.0022
     29 C           7.9406    0.1496    2.9301 C.ar    1  UNL1       -0.0511
     30 C           7.1381   -0.6703    3.7064 C.ar    1  UNL1       -0.0430
     31 C           5.8183   -0.7838    3.3130 C.ar    1  UNL1        0.0283
     32 N           5.3154   -0.1449    2.2403 N.ar    1  UNL1       -0.2531
     33 C           6.0724    0.6517    1.4765 C.ar    1  UNL1        0.0921
     34 C           2.1436   -1.1631   -2.1810 C.ar    1  UNL1       -0.0479
     35 C           0.8845   -1.4556   -2.6430 C.ar    1  UNL1       -0.0398
     36 H          -4.0093   -1.9825   -2.8787 H       1  UNL1        0.0363
     37 H          -3.8954   -0.7879   -4.1832 H       1  UNL1        0.0363
     38 H          -5.0524    0.9092   -2.7965 H       1  UNL1        0.0348
     39 H          -6.0360   -0.5262   -3.1969 H       1  UNL1        0.0348
     40 H          -8.5054    1.4547    0.6129 H       1  UNL1        0.0639
     41 H          -9.0782    1.2474    3.0323 H       1  UNL1        0.0618
     42 H          -7.6657   -0.1656    4.4916 H       1  UNL1        0.0618
     43 H          -5.7404   -1.3182    3.4956 H       1  UNL1        0.0626
     44 H          -3.8598   -1.6276   -0.6942 H       1  UNL1        0.1700
     45 H          -1.5058   -1.8535   -3.3952 H       1  UNL1        0.1548
     46 H          -0.7049    0.9802   -0.9982 H       1  UNL1        0.0636
     47 H           1.5057    1.4688   -0.2071 H       1  UNL1        0.0626
     48 H           3.4166    1.7909    0.3975 H       1  UNL1        0.1552
     49 H           5.9691    2.6138   -1.2208 H       1  UNL1        0.0637
     50 H           8.3269    2.9053   -0.6377 H       1  UNL1        0.0618
     51 H           9.2396    1.7455    1.3095 H       1  UNL1        0.0624
     52 H           8.9772    0.2426    3.2339 H       1  UNL1        0.0625
     53 H           7.5350   -1.1873    4.5701 H       1  UNL1        0.0633
     54 H           5.1984   -1.4379    3.9406 H       1  UNL1        0.0830
     55 H           2.9536   -1.8131   -2.5495 H       1  UNL1        0.0626
     56 H           0.7512   -2.2972   -3.3358 H       1  UNL1        0.0636
@<TRIPOS>BOND
     1     1     2    2
     2     2     3    1
     3     3     4    1
     4     4     5    1
     5     5     6   ar
     6     6     7   ar
     7     7     8   ar
     8     8     9   ar
     9     9    10   ar
    10    10    11   ar
    11    11    12   ar
    12    12    13   ar
    13    13    14    2
    14    13    15   ar
    15     2    16   am
    16    16    17    1
    17    17    18   ar
    18    18    19   ar
    19    19    20   ar
    20    20    21    1
    21    21    22    2
    22    21    23   am
    23    23    24    1
    24    24    25   ar
    25    25    26   ar
    26    26    27   ar
    27    27    28   ar
    28    28    29   ar
    29    29    30   ar
    30    30    31   ar
    31    31    32   ar
    32    32    33   ar
    33    20    34   ar
    34    34    35   ar
    35    15     5   ar
    36    35    17   ar
    37    12     7   ar
    38    33    24   ar
    39    33    28   ar
    40     3    36    1
    41     3    37    1
    42     4    38    1
    43     4    39    1
    44     8    40    1
    45     9    41    1
    46    10    42    1
    47    11    43    1
    48    15    44    1
    49    16    45    1
    50    18    46    1
    51    19    47    1
    52    23    48    1
    53    25    49    1
    54    26    50    1
    55    27    51    1
    56    29    52    1
    57    30    53    1
    58    31    54    1
    59    34    55    1
    60    35    56    1
