
     RDKit          3D

 42 43  0  0  0  0  0  0  0  0999 V2000
   -2.6996    3.9326    0.0177 C   0  0  0  0  0  0  0  0  0  0  0  0
   -2.2719    2.6501   -0.3269 O   0  0  0  0  0  0  0  0  0  0  0  0
   -3.2480    1.7944   -0.0348 N   0  0  0  0  0  0  0  0  0  0  0  0
   -2.8334    0.4243    0.1442 C   0  0  1  0  0  0  0  0  0  0  0  0
   -2.1723   -0.1718   -1.0808 C   0  0  0  0  0  0  0  0  0  0  0  0
   -1.3961   -1.3241   -0.4742 C   0  0  1  0  0  0  0  0  0  0  0  0
   -1.0760   -0.8671    0.7982 N   0  0  0  0  0  0  0  0  0  0  0  0
   -1.7822    0.2718    1.2113 C   0  0  0  0  0  0  0  0  0  0  0  0
    0.2916   -1.3490    1.5882 S   0  0  0  0  0  0  0  0  0  0  0  0
    0.2957   -0.7885    2.9834 O   0  0  0  0  0  0  0  0  0  0  0  0
    0.2268   -2.8599    1.7676 O   0  0  0  0  0  0  0  0  0  0  0  0
    1.8037   -0.9390    0.8082 C   0  0  0  0  0  0  0  0  0  0  0  0
    2.4762   -1.7243   -0.1054 C   0  0  0  0  0  0  0  0  0  0  0  0
    3.6679   -1.3043   -0.6635 C   0  0  0  0  0  0  0  0  0  0  0  0
    4.2295   -0.0891   -0.3309 C   0  0  0  0  0  0  0  0  0  0  0  0
    5.4083    0.3987   -0.8406 O   0  0  0  0  0  0  0  0  0  0  0  0
    5.9777    1.6372   -0.4996 C   0  0  0  0  0  0  0  0  0  0  0  0
    3.5594    0.7011    0.5839 C   0  0  0  0  0  0  0  0  0  0  0  0
    2.3571    0.2913    1.1552 C   0  0  0  0  0  0  0  0  0  0  0  0
   -2.3619   -2.4700   -0.3136 C   0  0  0  0  0  0  0  0  0  0  0  0
   -2.1826   -2.1845    0.9090 O   0  0  0  0  0  0  0  0  0  0  0  0
   -2.9975   -3.2872   -1.2961 N   0  0  0  0  0  0  0  0  0  0  0  0
   -3.7639   -4.1627   -0.5863 O   0  0  0  0  0  0  0  0  0  0  0  0
   -2.5019    4.0822    1.1020 H   0  0  0  0  0  0  0  0  0  0  0  0
   -2.2081    4.7124   -0.5988 H   0  0  0  0  0  0  0  0  0  0  0  0
   -3.7940    4.0643   -0.1322 H   0  0  0  0  0  0  0  0  0  0  0  0
   -4.1170    1.8726   -0.5687 H   0  0  0  0  0  0  0  0  0  0  0  0
   -3.7525   -0.1512    0.3596 H   0  0  0  0  0  0  0  0  0  0  0  0
   -1.4158    0.5467   -1.4930 H   0  0  0  0  0  0  0  0  0  0  0  0
   -2.9068   -0.4955   -1.8374 H   0  0  0  0  0  0  0  0  0  0  0  0
   -0.5632   -1.6534   -1.1153 H   0  0  0  0  0  0  0  0  0  0  0  0
   -2.2845    0.0681    2.1809 H   0  0  0  0  0  0  0  0  0  0  0  0
   -1.1811    1.2021    1.2526 H   0  0  0  0  0  0  0  0  0  0  0  0
    2.0085   -2.6716   -0.3446 H   0  0  0  0  0  0  0  0  0  0  0  0
    4.1819   -1.9313   -1.3775 H   0  0  0  0  0  0  0  0  0  0  0  0
    5.5416    2.4877   -1.0809 H   0  0  0  0  0  0  0  0  0  0  0  0
    5.9721    1.8347    0.6075 H   0  0  0  0  0  0  0  0  0  0  0  0
    7.0472    1.6087   -0.7954 H   0  0  0  0  0  0  0  0  0  0  0  0
    3.9558    1.6730    0.8856 H   0  0  0  0  0  0  0  0  0  0  0  0
    1.8651    0.9449    1.8699 H   0  0  0  0  0  0  0  0  0  0  0  0
   -2.6681   -2.9480   -2.2392 H   0  0  0  0  0  0  0  0  0  0  0  0
   -4.6878   -3.8264   -0.5411 H   0  0  0  0  0  0  0  0  0  0  0  0
  1  2  1  0
  2  3  1  0
  3  4  1  0
  4  5  1  0
  5  6  1  0
  6  7  1  0
  7  8  1  0
  7  9  1  0
  9 10  2  0
  9 11  2  0
  9 12  1  0
 12 13  2  0
 13 14  1  0
 14 15  2  0
 15 16  1  0
 16 17  1  0
 15 18  1  0
 18 19  2  0
  6 20  1  0
 20 21  2  0
 20 22  1  0
 22 23  1  0
  8  4  1  0
 19 12  1  0
  1 24  1  0
  1 25  1  0
  1 26  1  0
  3 27  1  0
  4 28  1  1
  5 29  1  0
  5 30  1  0
  6 31  1  6
  8 32  1  0
  8 33  1  0
 13 34  1  0
 14 35  1  0
 17 36  1  0
 17 37  1  0
 17 38  1  0
 18 39  1  0
 19 40  1  0
 22 41  1  0
 23 42  1  0
M  END
$$$$
