@<TRIPOS>MOLECULE
*****
 51 51 0 0 0
SMALL
GASTEIGER

@<TRIPOS>ATOM
      1 C           4.4302   -2.4029   -0.5649 C.3     1  UNK1        0.1037
      2 N           3.6930   -3.3230    0.2654 N.3     1  UNK1       -0.3184
      3 C           4.7123   -1.1149    0.1822 C.3     1  UNK1       -0.0191
      4 C           3.4358   -0.4220    0.6131 C.3     1  UNK1        0.0259
      5 C           2.6372   -0.1040   -0.5934 C.2     1  UNK1        0.2137
      6 O           2.6999   -0.2356   -1.8422 O.2     1  UNK1       -0.2758
      7 N           1.4138    0.5585   -0.2348 N.am    1  UNK1       -0.3032
      8 C           0.3850    1.0193   -1.1484 C.3     1  UNK1        0.1086
      9 C          -0.9284    0.3043   -0.9079 C.3     1  UNK1        0.0255
     10 S          -1.5658    0.5527    0.7539 S.3     1  UNK1       -0.1163
     11 C          -3.1027   -0.3490    0.8673 C.ar    1  UNK1        0.0856
     12 C          -4.3625    0.1520    0.5672 C.ar    1  UNK1        0.2928
     13 C          -5.4499   -0.6732    0.7067 C.ar    1  UNK1        0.0937
     14 C          -5.3138   -1.9834    1.1372 C.ar    1  UNK1        0.2797
     15 C          -4.0660   -2.4859    1.4364 C.ar    1  UNK1        0.0171
     16 C          -2.9679   -1.6632    1.2989 C.ar    1  UNK1       -0.0354
     17 N          -6.4633   -2.8193    1.2731 N.pl3   1  UNK1        0.0798
     18 O          -6.2807   -4.1114    1.7031 O.co2   1  UNK1       -0.5760
     19 O          -7.5855   -2.3674    1.0040 O.2     1  UNK1        0.0414
     20 N          -4.3968    1.5076    0.1338 N.pl3   1  UNK1        0.0810
     21 O          -5.4372    1.6957   -0.7618 O.co2   1  UNK1       -0.5760
     22 O          -3.5782    2.3347    0.5465 O.2     1  UNK1        0.0415
     23 C           0.2552    2.4846   -0.9373 C.2     1  UNK1        0.2346
     24 O           1.1099    2.7546   -0.0267 O.2     1  UNK1       -0.2737
     25 N          -0.6285    3.3728   -1.6081 N.am    2  GLY2       -0.3033
     26 CA         -0.4058    4.7236   -1.0740 C.3     2  GLY2        0.1089
     27 C          -0.6676    4.7871    0.3853 C.2     2  GLY2        0.3221
     28 O          -1.0663    3.9339    1.4073 O.3     2  GLY2       -0.4795
     29 OXT        -0.4636    5.9750    0.8116 O.2     2  GLY2       -0.2492
     30 C           5.7338   -2.9695   -0.9992 C.2     1  UNK1        0.3217
     31 O           6.9638   -3.3541   -1.4793 O.3     1  UNK1       -0.4795
     32 O           5.9357   -4.1327   -0.5614 O.2     1  UNK1       -0.2493
     33 H           3.8503   -2.2356   -1.4894 H       1  UNK1        0.0574
     34 H           4.1493   -4.2599    0.2348 H       1  UNK1        0.1190
     35 H           3.7430   -2.9756    1.2569 H       1  UNK1        0.1190
     36 H           5.3162   -0.4228   -0.4379 H       1  UNK1        0.0290
     37 H           5.3557   -1.3719    1.0446 H       1  UNK1        0.0290
     38 H           2.8693   -1.0197    1.3472 H       1  UNK1        0.0359
     39 H           3.7719    0.5052    1.1453 H       1  UNK1        0.0359
     40 H           1.0866    0.8057    0.7440 H       1  UNK1        0.1495
     41 H           0.6451    0.8004   -2.2060 H       1  UNK1        0.0603
     42 H          -1.6870    0.7137   -1.6055 H       1  UNK1        0.0403
     43 H          -0.7969   -0.7627   -1.1687 H       1  UNK1        0.0403
     44 H          -6.4123   -0.2379    0.4608 H       1  UNK1        0.0754
     45 H          -3.9861   -3.5035    1.7677 H       1  UNK1        0.0686
     46 H          -2.0221   -2.1393    1.5558 H       1  UNK1        0.0633
     47 H          -1.2465    2.9278   -2.3243 H       2  GLY2        0.1493
     48 HA1         0.6449    5.0441   -1.2417 H       2  GLY2        0.0577
     49 HA2        -1.0545    5.4213   -1.6459 H       2  GLY2        0.0577
     50 H          -0.4694    3.8124    2.2292 H       2  GLY2        0.2951
     51 H           7.5674   -2.7470   -2.0207 H       1  UNK1        0.2951
@<TRIPOS>UNITY_ATOM_ATTR
17 1
charge 1
18 1
charge -1
20 1
charge 1
21 1
charge -1
@<TRIPOS>BOND
     1     1     2    1
     2     1     3    1
     3     3     4    1
     4     4     5    1
     5     5     6    2
     6     5     7   am
     7     7     8    1
     8     8     9    1
     9     9    10    1
    10    10    11    1
    11    11    12   ar
    12    12    13   ar
    13    13    14   ar
    14    14    15   ar
    15    15    16   ar
    16    14    17    1
    17    17    18    1
    18    17    19    2
    19    12    20    1
    20    20    21    1
    21    20    22    2
    22     8    23    1
    23    23    24    2
    24    23    25   am
    25    25    26    1
    26    26    27    1
    27    27    28    1
    28    27    29    2
    29     1    30    1
    30    30    31    1
    31    30    32    2
    32    16    11   ar
    33     1    33    1
    34     2    34    1
    35     2    35    1
    36     3    36    1
    37     3    37    1
    38     4    38    1
    39     4    39    1
    40     7    40    1
    41     8    41    1
    42     9    42    1
    43     9    43    1
    44    13    44    1
    45    15    45    1
    46    16    46    1
    47    25    47    1
    48    26    48    1
    49    26    49    1
    50    28    50    1
    51    31    51    1
