
     RDKit          3D

 52 52  0  0  0  0  0  0  0  0999 V2000
    6.8997    1.3713    0.2262 C   0  0  0  0  0  0  0  0  0  0  0  0
    5.8931    0.4172    0.8504 C   0  0  0  0  0  0  0  0  0  0  0  0
    5.7996   -0.7770   -0.0883 C   0  0  0  0  0  0  0  0  0  0  0  0
    4.8395   -1.8018    0.4101 C   0  0  0  0  0  0  0  0  0  0  0  0
    3.5526   -1.3533    0.5661 O   0  0  0  0  0  0  0  0  0  0  0  0
    2.9872   -0.9001   -0.6142 C   0  0  0  0  0  0  0  0  0  0  0  0
    1.5552   -0.4682   -0.2605 C   0  0  0  0  0  0  0  0  0  0  0  0
    0.8516    0.0396   -1.4864 C   0  0  0  0  0  0  0  0  0  0  0  0
   -0.5409    0.4799   -1.2101 C   0  0  0  0  0  0  0  0  0  0  0  0
   -1.3796   -0.6453   -0.6776 C   0  0  0  0  0  0  0  0  0  0  0  0
   -2.6823   -0.1987   -0.4305 N   0  0  0  0  0  0  0  0  0  0  0  0
   -3.5143    0.1551   -1.5113 C   0  0  0  0  0  0  0  0  0  0  0  0
   -4.9695    0.1149   -1.0282 C   0  0  2  0  0  0  0  0  0  0  0  0
   -5.7347    0.6113   -2.0935 O   0  0  0  0  0  0  0  0  0  0  0  0
   -5.1885    1.0295    0.1475 C   0  0  1  0  0  0  0  0  0  0  0  0
   -6.3182    0.6042    0.8342 O   0  0  0  0  0  0  0  0  0  0  0  0
   -4.0152    1.0030    1.1093 C   0  0  2  0  0  0  0  0  0  0  0  0
   -3.1718    2.0648    0.7187 O   0  0  0  0  0  0  0  0  0  0  0  0
   -3.2773   -0.2908    0.8236 C   0  0  2  0  0  0  0  0  0  0  0  0
   -2.3987   -0.6626    1.9732 C   0  0  0  0  0  0  0  0  0  0  0  0
   -3.1146   -0.7165    3.1682 O   0  0  0  0  0  0  0  0  0  0  0  0
    7.2739    2.0685    1.0017 H   0  0  0  0  0  0  0  0  0  0  0  0
    7.7777    0.7534   -0.1122 H   0  0  0  0  0  0  0  0  0  0  0  0
    6.4546    1.9221   -0.6075 H   0  0  0  0  0  0  0  0  0  0  0  0
    4.8767    0.8939    0.8655 H   0  0  0  0  0  0  0  0  0  0  0  0
    6.1703    0.1355    1.8677 H   0  0  0  0  0  0  0  0  0  0  0  0
    6.8160   -1.2433   -0.1716 H   0  0  0  0  0  0  0  0  0  0  0  0
    5.5061   -0.4293   -1.0827 H   0  0  0  0  0  0  0  0  0  0  0  0
    5.2475   -2.2181    1.3707 H   0  0  0  0  0  0  0  0  0  0  0  0
    4.8815   -2.6783   -0.3002 H   0  0  0  0  0  0  0  0  0  0  0  0
    3.5405   -0.0306   -1.0170 H   0  0  0  0  0  0  0  0  0  0  0  0
    2.9532   -1.7139   -1.3709 H   0  0  0  0  0  0  0  0  0  0  0  0
    1.6569    0.3288    0.4952 H   0  0  0  0  0  0  0  0  0  0  0  0
    1.0893   -1.3701    0.1889 H   0  0  0  0  0  0  0  0  0  0  0  0
    0.7893   -0.7691   -2.2718 H   0  0  0  0  0  0  0  0  0  0  0  0
    1.4877    0.8238   -1.9407 H   0  0  0  0  0  0  0  0  0  0  0  0
   -1.0049    0.7652   -2.2016 H   0  0  0  0  0  0  0  0  0  0  0  0
   -0.6133    1.4033   -0.6017 H   0  0  0  0  0  0  0  0  0  0  0  0
   -0.9117   -1.2291    0.1397 H   0  0  0  0  0  0  0  0  0  0  0  0
   -1.4419   -1.3997   -1.5247 H   0  0  0  0  0  0  0  0  0  0  0  0
   -3.4850   -0.5620   -2.3694 H   0  0  0  0  0  0  0  0  0  0  0  0
   -3.2909    1.1692   -1.8983 H   0  0  0  0  0  0  0  0  0  0  0  0
   -5.3096   -0.9122   -0.8441 H   0  0  0  0  0  0  0  0  0  0  0  0
   -6.4687    0.0040   -2.3384 H   0  0  0  0  0  0  0  0  0  0  0  0
   -5.3880    2.0454   -0.2465 H   0  0  0  0  0  0  0  0  0  0  0  0
   -6.4288    1.2424    1.5980 H   0  0  0  0  0  0  0  0  0  0  0  0
   -4.3125    1.1224    2.1529 H   0  0  0  0  0  0  0  0  0  0  0  0
   -3.6761    2.8587    0.4680 H   0  0  0  0  0  0  0  0  0  0  0  0
   -4.0869   -1.0812    0.7821 H   0  0  0  0  0  0  0  0  0  0  0  0
   -2.0098   -1.7144    1.8278 H   0  0  0  0  0  0  0  0  0  0  0  0
   -1.5253   -0.0397    2.1315 H   0  0  0  0  0  0  0  0  0  0  0  0
   -2.6407   -0.2220    3.8998 H   0  0  0  0  0  0  0  0  0  0  0  0
  1  2  1  0
  2  3  1  0
  3  4  1  0
  4  5  1  0
  5  6  1  0
  6  7  1  0
  7  8  1  0
  8  9  1  0
  9 10  1  0
 10 11  1  0
 11 12  1  0
 12 13  1  0
 13 14  1  0
 13 15  1  0
 15 16  1  0
 15 17  1  0
 17 18  1  0
 17 19  1  0
 19 20  1  0
 20 21  1  0
 19 11  1  0
  1 22  1  0
  1 23  1  0
  1 24  1  0
  2 25  1  0
  2 26  1  0
  3 27  1  0
  3 28  1  0
  4 29  1  0
  4 30  1  0
  6 31  1  0
  6 32  1  0
  7 33  1  0
  7 34  1  0
  8 35  1  0
  8 36  1  0
  9 37  1  0
  9 38  1  0
 10 39  1  0
 10 40  1  0
 12 41  1  0
 12 42  1  0
 13 43  1  1
 14 44  1  0
 15 45  1  6
 16 46  1  0
 17 47  1  1
 18 48  1  0
 19 49  1  6
 20 50  1  0
 20 51  1  0
 21 52  1  0
M  END
$$$$
