@<TRIPOS>MOLECULE
*****
 52 52 0 0 0
SMALL
GASTEIGER

@<TRIPOS>ATOM
      1 C           6.8997    1.3713    0.2262 C.3     1  UNL1       -0.0652
      2 C           5.8931    0.4172    0.8504 C.3     1  UNL1       -0.0538
      3 C           5.7996   -0.7770   -0.0883 C.3     1  UNL1       -0.0297
      4 C           4.8395   -1.8018    0.4101 C.3     1  UNL1        0.0477
      5 O           3.5526   -1.3533    0.5661 O.3     1  UNL1       -0.3798
      6 C           2.9872   -0.9001   -0.6142 C.3     1  UNL1        0.0477
      7 C           1.5552   -0.4682   -0.2605 C.3     1  UNL1       -0.0294
      8 C           0.8516    0.0396   -1.4864 C.3     1  UNL1       -0.0498
      9 C          -0.5409    0.4799   -1.2101 C.3     1  UNL1       -0.0401
     10 C          -1.3796   -0.6453   -0.6776 C.3     1  UNL1       -0.0006
     11 N          -2.6823   -0.1987   -0.4305 N.3     1  UNL1       -0.2923
     12 C          -3.5143    0.1551   -1.5113 C.3     1  UNL1        0.0279
     13 C          -4.9695    0.1149   -1.0282 C.3     1  UNL1        0.0962
     14 O          -5.7347    0.6113   -2.0935 O.3     1  UNL1       -0.3879
     15 C          -5.1885    1.0295    0.1475 C.3     1  UNL1        0.1095
     16 O          -6.3182    0.6042    0.8342 O.3     1  UNL1       -0.3866
     17 C          -4.0152    1.0030    1.1093 C.3     1  UNL1        0.1011
     18 O          -3.1718    2.0648    0.7187 O.3     1  UNL1       -0.3875
     19 C          -3.2773   -0.2908    0.8236 C.3     1  UNL1        0.0621
     20 C          -2.3987   -0.6626    1.9732 C.3     1  UNL1        0.0622
     21 O          -3.1146   -0.7165    3.1682 O.3     1  UNL1       -0.3934
     22 H           7.2739    2.0685    1.0017 H       1  UNL1        0.0230
     23 H           7.7777    0.7534   -0.1122 H       1  UNL1        0.0230
     24 H           6.4546    1.9221   -0.6075 H       1  UNL1        0.0230
     25 H           4.8767    0.8939    0.8655 H       1  UNL1        0.0263
     26 H           6.1703    0.1355    1.8677 H       1  UNL1        0.0263
     27 H           6.8160   -1.2433   -0.1716 H       1  UNL1        0.0287
     28 H           5.5061   -0.4293   -1.0827 H       1  UNL1        0.0287
     29 H           5.2475   -2.2181    1.3707 H       1  UNL1        0.0560
     30 H           4.8815   -2.6783   -0.3002 H       1  UNL1        0.0560
     31 H           3.5405   -0.0306   -1.0170 H       1  UNL1        0.0560
     32 H           2.9532   -1.7139   -1.3709 H       1  UNL1        0.0560
     33 H           1.6569    0.3288    0.4952 H       1  UNL1        0.0287
     34 H           1.0893   -1.3701    0.1889 H       1  UNL1        0.0287
     35 H           0.7893   -0.7691   -2.2718 H       1  UNL1        0.0266
     36 H           1.4877    0.8238   -1.9407 H       1  UNL1        0.0266
     37 H          -1.0049    0.7652   -2.2016 H       1  UNL1        0.0278
     38 H          -0.6133    1.4033   -0.6017 H       1  UNL1        0.0278
     39 H          -0.9117   -1.2291    0.1397 H       1  UNL1        0.0427
     40 H          -1.4419   -1.3997   -1.5247 H       1  UNL1        0.0427
     41 H          -3.4850   -0.5620   -2.3694 H       1  UNL1        0.0453
     42 H          -3.2909    1.1692   -1.8983 H       1  UNL1        0.0453
     43 H          -5.3096   -0.9122   -0.8441 H       1  UNL1        0.0633
     44 H          -6.4687    0.0040   -2.3384 H       1  UNL1        0.2099
     45 H          -5.3880    2.0454   -0.2465 H       1  UNL1        0.0646
     46 H          -6.4288    1.2424    1.5980 H       1  UNL1        0.2100
     47 H          -4.3125    1.1224    2.1529 H       1  UNL1        0.0636
     48 H          -3.6761    2.8587    0.4680 H       1  UNL1        0.2100
     49 H          -4.0869   -1.0812    0.7821 H       1  UNL1        0.0511
     50 H          -2.0098   -1.7144    1.8278 H       1  UNL1        0.0573
     51 H          -1.5253   -0.0397    2.1315 H       1  UNL1        0.0573
     52 H          -2.6407   -0.2220    3.8998 H       1  UNL1        0.2095
@<TRIPOS>BOND
     1     1     2    1
     2     2     3    1
     3     3     4    1
     4     4     5    1
     5     5     6    1
     6     6     7    1
     7     7     8    1
     8     8     9    1
     9     9    10    1
    10    10    11    1
    11    11    12    1
    12    12    13    1
    13    13    14    1
    14    13    15    1
    15    15    16    1
    16    15    17    1
    17    17    18    1
    18    17    19    1
    19    19    20    1
    20    20    21    1
    21    19    11    1
    22     1    22    1
    23     1    23    1
    24     1    24    1
    25     2    25    1
    26     2    26    1
    27     3    27    1
    28     3    28    1
    29     4    29    1
    30     4    30    1
    31     6    31    1
    32     6    32    1
    33     7    33    1
    34     7    34    1
    35     8    35    1
    36     8    36    1
    37     9    37    1
    38     9    38    1
    39    10    39    1
    40    10    40    1
    41    12    41    1
    42    12    42    1
    43    13    43    1
    44    14    44    1
    45    15    45    1
    46    16    46    1
    47    17    47    1
    48    18    48    1
    49    19    49    1
    50    20    50    1
    51    20    51    1
    52    21    52    1
