@<TRIPOS>MOLECULE
*****
 48 50 0 0 0
SMALL
GASTEIGER

@<TRIPOS>ATOM
      1 C          -0.5300   -1.2965   -0.1845 C.3     1  UNL1        0.0105
      2 C          -0.6351   -0.1207   -1.0697 C.3     1  UNL1       -0.0209
      3 C          -1.6039   -0.1623   -2.1482 C.ar    1  UNL1       -0.0433
      4 C          -1.2677   -0.6423   -3.4208 C.ar    1  UNL1       -0.0549
      5 C          -2.1558   -0.7053   -4.4880 C.ar    1  UNL1       -0.0163
      6 C          -3.4348   -0.2647   -4.2552 C.ar    1  UNL1        0.1585
      7 O          -4.2879   -0.3515   -5.3684 O.3     1  UNL1       -0.5033
      8 C          -3.8282    0.2231   -3.0111 C.ar    1  UNL1        0.1615
      9 O          -5.1460    0.6103   -2.9938 O.3     1  UNL1       -0.4915
     10 C          -5.7935    1.1370   -1.8625 C.3     1  UNL1        0.0790
     11 C          -2.8935    0.2528   -2.0105 C.ar    1  UNL1       -0.0131
     12 C          -0.1516   -2.5754   -0.9384 C.3     1  UNL1        0.0963
     13 O           0.5534   -3.3566    0.0418 O.3     1  UNL1       -0.4641
     14 C           0.8874   -2.5418    1.1391 C.2     1  UNL1        0.3109
     15 O           1.1722   -3.2873    2.1146 O.2     1  UNL1       -0.2505
     16 C           0.7534   -1.1502    0.6505 C.3     1  UNL1        0.0666
     17 C           0.5112   -0.1339    1.7143 C.3     1  UNL1       -0.0143
     18 C           1.6965    0.0847    2.5832 C.ar    1  UNL1       -0.0429
     19 C           1.9625   -0.6009    3.7476 C.ar    1  UNL1       -0.0549
     20 C           3.0689   -0.3733    4.5193 C.ar    1  UNL1       -0.0163
     21 C           3.9768    0.5830    4.1350 C.ar    1  UNL1        0.1585
     22 O           5.1149    0.8333    4.9071 O.3     1  UNL1       -0.5033
     23 C           3.7827    1.3235    2.9679 C.ar    1  UNL1        0.1615
     24 O           4.6841    2.2992    2.5516 O.3     1  UNL1       -0.4915
     25 C           4.3597    2.9692    1.3520 C.3     1  UNL1        0.0790
     26 C           2.6516    1.0354    2.2523 C.ar    1  UNL1       -0.0131
     27 H          -1.3295   -1.4570    0.5286 H       1  UNL1        0.0345
     28 H          -0.8359    0.7896   -0.4699 H       1  UNL1        0.0317
     29 H           0.3668    0.0767   -1.5390 H       1  UNL1        0.0317
     30 H          -0.2471   -1.0001   -3.6272 H       1  UNL1        0.0621
     31 H          -1.8221   -1.0885   -5.4411 H       1  UNL1        0.0655
     32 H          -5.1113    0.2048   -5.4709 H       1  UNL1        0.2923
     33 H          -5.2566    0.8802   -0.9487 H       1  UNL1        0.0660
     34 H          -6.8208    0.7153   -1.7434 H       1  UNL1        0.0660
     35 H          -5.8720    2.2345   -1.9966 H       1  UNL1        0.0660
     36 H          -3.2425    0.6318   -1.0840 H       1  UNL1        0.0658
     37 H           0.5258   -2.2938   -1.7641 H       1  UNL1        0.0700
     38 H          -1.0204   -3.1611   -1.2404 H       1  UNL1        0.0700
     39 H           1.5643   -0.8710   -0.0482 H       1  UNL1        0.0420
     40 H           0.3103    0.8373    1.2186 H       1  UNL1        0.0321
     41 H          -0.3797   -0.3767    2.2959 H       1  UNL1        0.0321
     42 H           1.2553   -1.3550    4.0612 H       1  UNL1        0.0621
     43 H           3.2539   -0.9335    5.4390 H       1  UNL1        0.0655
     44 H           5.8882    1.3533    4.5327 H       1  UNL1        0.2923
     45 H           5.1561    3.6966    1.0539 H       1  UNL1        0.0660
     46 H           3.4255    3.5498    1.4289 H       1  UNL1        0.0660
     47 H           4.2782    2.1798    0.5613 H       1  UNL1        0.0660
     48 H           2.4659    1.5980    1.3282 H       1  UNL1        0.0658
@<TRIPOS>BOND
     1     1     2    1
     2     2     3    1
     3     3     4   ar
     4     4     5   ar
     5     5     6   ar
     6     6     7    1
     7     6     8   ar
     8     8     9    1
     9     9    10    1
    10     8    11   ar
    11     1    12    1
    12    12    13    1
    13    13    14    1
    14    14    15    2
    15    14    16    1
    16    16    17    1
    17    17    18    1
    18    18    19   ar
    19    19    20   ar
    20    20    21   ar
    21    21    22    1
    22    21    23   ar
    23    23    24    1
    24    24    25    1
    25    23    26   ar
    26    16     1    1
    27    26    18   ar
    28    11     3   ar
    29     1    27    1
    30     2    28    1
    31     2    29    1
    32     4    30    1
    33     5    31    1
    34     7    32    1
    35    10    33    1
    36    10    34    1
    37    10    35    1
    38    11    36    1
    39    12    37    1
    40    12    38    1
    41    16    39    1
    42    17    40    1
    43    17    41    1
    44    19    42    1
    45    20    43    1
    46    22    44    1
    47    25    45    1
    48    25    46    1
    49    25    47    1
    50    26    48    1
