
     RDKit          3D

 48 50  0  0  0  0  0  0  0  0999 V2000
   -0.5300   -1.2965   -0.1845 C   0  0  1  0  0  0  0  0  0  0  0  0
   -0.6351   -0.1207   -1.0697 C   0  0  0  0  0  0  0  0  0  0  0  0
   -1.6039   -0.1623   -2.1482 C   0  0  0  0  0  0  0  0  0  0  0  0
   -1.2677   -0.6423   -3.4208 C   0  0  0  0  0  0  0  0  0  0  0  0
   -2.1558   -0.7053   -4.4880 C   0  0  0  0  0  0  0  0  0  0  0  0
   -3.4348   -0.2647   -4.2552 C   0  0  0  0  0  0  0  0  0  0  0  0
   -4.2879   -0.3515   -5.3684 O   0  0  0  0  0  0  0  0  0  0  0  0
   -3.8282    0.2231   -3.0111 C   0  0  0  0  0  0  0  0  0  0  0  0
   -5.1460    0.6103   -2.9938 O   0  0  0  0  0  0  0  0  0  0  0  0
   -5.7935    1.1370   -1.8625 C   0  0  0  0  0  0  0  0  0  0  0  0
   -2.8935    0.2528   -2.0105 C   0  0  0  0  0  0  0  0  0  0  0  0
   -0.1516   -2.5754   -0.9384 C   0  0  0  0  0  0  0  0  0  0  0  0
    0.5534   -3.3566    0.0418 O   0  0  0  0  0  0  0  0  0  0  0  0
    0.8874   -2.5418    1.1391 C   0  0  0  0  0  0  0  0  0  0  0  0
    1.1722   -3.2873    2.1146 O   0  0  0  0  0  0  0  0  0  0  0  0
    0.7534   -1.1502    0.6505 C   0  0  2  0  0  0  0  0  0  0  0  0
    0.5112   -0.1339    1.7143 C   0  0  0  0  0  0  0  0  0  0  0  0
    1.6965    0.0847    2.5832 C   0  0  0  0  0  0  0  0  0  0  0  0
    1.9625   -0.6009    3.7476 C   0  0  0  0  0  0  0  0  0  0  0  0
    3.0689   -0.3733    4.5193 C   0  0  0  0  0  0  0  0  0  0  0  0
    3.9768    0.5830    4.1350 C   0  0  0  0  0  0  0  0  0  0  0  0
    5.1149    0.8333    4.9071 O   0  0  0  0  0  0  0  0  0  0  0  0
    3.7827    1.3235    2.9679 C   0  0  0  0  0  0  0  0  0  0  0  0
    4.6841    2.2992    2.5516 O   0  0  0  0  0  0  0  0  0  0  0  0
    4.3597    2.9692    1.3520 C   0  0  0  0  0  0  0  0  0  0  0  0
    2.6516    1.0354    2.2523 C   0  0  0  0  0  0  0  0  0  0  0  0
   -1.3295   -1.4570    0.5286 H   0  0  0  0  0  0  0  0  0  0  0  0
   -0.8359    0.7896   -0.4699 H   0  0  0  0  0  0  0  0  0  0  0  0
    0.3668    0.0767   -1.5390 H   0  0  0  0  0  0  0  0  0  0  0  0
   -0.2471   -1.0001   -3.6272 H   0  0  0  0  0  0  0  0  0  0  0  0
   -1.8221   -1.0885   -5.4411 H   0  0  0  0  0  0  0  0  0  0  0  0
   -5.1113    0.2048   -5.4709 H   0  0  0  0  0  0  0  0  0  0  0  0
   -5.2566    0.8802   -0.9487 H   0  0  0  0  0  0  0  0  0  0  0  0
   -6.8208    0.7153   -1.7434 H   0  0  0  0  0  0  0  0  0  0  0  0
   -5.8720    2.2345   -1.9966 H   0  0  0  0  0  0  0  0  0  0  0  0
   -3.2425    0.6318   -1.0840 H   0  0  0  0  0  0  0  0  0  0  0  0
    0.5258   -2.2938   -1.7641 H   0  0  0  0  0  0  0  0  0  0  0  0
   -1.0204   -3.1611   -1.2404 H   0  0  0  0  0  0  0  0  0  0  0  0
    1.5643   -0.8710   -0.0482 H   0  0  0  0  0  0  0  0  0  0  0  0
    0.3103    0.8373    1.2186 H   0  0  0  0  0  0  0  0  0  0  0  0
   -0.3797   -0.3767    2.2959 H   0  0  0  0  0  0  0  0  0  0  0  0
    1.2553   -1.3550    4.0612 H   0  0  0  0  0  0  0  0  0  0  0  0
    3.2539   -0.9335    5.4390 H   0  0  0  0  0  0  0  0  0  0  0  0
    5.8882    1.3533    4.5327 H   0  0  0  0  0  0  0  0  0  0  0  0
    5.1561    3.6966    1.0539 H   0  0  0  0  0  0  0  0  0  0  0  0
    3.4255    3.5498    1.4289 H   0  0  0  0  0  0  0  0  0  0  0  0
    4.2782    2.1798    0.5613 H   0  0  0  0  0  0  0  0  0  0  0  0
    2.4659    1.5980    1.3282 H   0  0  0  0  0  0  0  0  0  0  0  0
  1  2  1  0
  2  3  1  0
  3  4  2  0
  4  5  1  0
  5  6  2  0
  6  7  1  0
  6  8  1  0
  8  9  1  0
  9 10  1  0
  8 11  2  0
  1 12  1  0
 12 13  1  0
 13 14  1  0
 14 15  2  0
 14 16  1  0
 16 17  1  0
 17 18  1  0
 18 19  2  0
 19 20  1  0
 20 21  2  0
 21 22  1  0
 21 23  1  0
 23 24  1  0
 24 25  1  0
 23 26  2  0
 16  1  1  0
 26 18  1  0
 11  3  1  0
  1 27  1  1
  2 28  1  0
  2 29  1  0
  4 30  1  0
  5 31  1  0
  7 32  1  0
 10 33  1  0
 10 34  1  0
 10 35  1  0
 11 36  1  0
 12 37  1  0
 12 38  1  0
 16 39  1  6
 17 40  1  0
 17 41  1  0
 19 42  1  0
 20 43  1  0
 22 44  1  0
 25 45  1  0
 25 46  1  0
 25 47  1  0
 26 48  1  0
M  END
$$$$
