@<TRIPOS>MOLECULE
*****
 61 64 0 0 0
SMALL
GASTEIGER

@<TRIPOS>ATOM
      1 C           7.2611    0.1444    0.0642 C.3     1  UNL1       -0.0385
      2 C           6.1042   -0.8272   -0.1228 C.3     1  UNL1        0.0747
      3 C           6.5808   -2.2514    0.0973 C.3     1  UNL1       -0.0385
      4 C           4.9986   -0.4380    0.7742 C.3     1  UNL1        0.0435
      5 N           3.9032   -0.0243   -0.1210 N.pl3   1  UNL1       -0.2799
      6 C           2.5918    0.4578   -0.0188 C.2     1  UNL1        0.0296
      7 C           1.9503    0.6900    1.3482 C.3     1  UNL1        0.0398
      8 S           0.2944    1.2993    1.1742 S.3     1  UNL1       -0.0849
      9 C          -0.8697    0.1685    0.4936 C.2     1  UNL1        0.1501
     10 N          -2.0649    0.5550    0.3130 N.2     1  UNL1       -0.2602
     11 C          -2.5881    1.8449    0.6098 C.3     1  UNL1        0.0533
     12 C          -3.8862    2.0647   -0.1773 C.3     1  UNL1       -0.0305
     13 C          -4.6418    3.1619    0.5343 C.3     1  UNL1       -0.0511
     14 C          -3.7710    4.3781    0.6296 C.3     1  UNL1       -0.0529
     15 C          -2.4803    4.2277   -0.1467 C.3     1  UNL1       -0.0511
     16 C          -1.7016    3.0050    0.3125 C.3     1  UNL1       -0.0305
     17 N          -0.5074   -1.1611    0.1452 N.pl3   1  UNL1       -0.3211
     18 C          -1.4979   -2.1164   -0.2187 C.3     1  UNL1        0.0224
     19 C          -2.3110   -1.7450   -1.4282 C.3     1  UNL1       -0.0345
     20 C          -2.9286   -3.0405   -1.9531 C.3     1  UNL1       -0.0514
     21 C          -3.5012   -3.8681   -0.8359 C.3     1  UNL1       -0.0529
     22 C          -3.6809   -3.1060    0.4358 C.3     1  UNL1       -0.0514
     23 C          -2.4517   -2.4214    0.9236 C.3     1  UNL1       -0.0345
     24 C           1.9385    0.7046   -1.1265 C.2     1  UNL1       -0.0031
     25 S           3.0401    0.3055   -2.4745 S.3     1  UNL1       -0.0607
     26 C           4.3897   -0.1938   -1.4244 C.2     1  UNL1        0.1609
     27 N           5.5854   -0.6313   -1.4484 N.2     1  UNL1       -0.2551
     28 H           7.3593    0.3234    1.1500 H       1  UNL1        0.0253
     29 H           8.1888   -0.1839   -0.4138 H       1  UNL1        0.0253
     30 H           6.9355    1.1178   -0.3815 H       1  UNL1        0.0253
     31 H           5.8303   -2.8601    0.5990 H       1  UNL1        0.0253
     32 H           7.4691   -2.1787    0.7601 H       1  UNL1        0.0253
     33 H           6.9414   -2.6463   -0.8710 H       1  UNL1        0.0253
     34 H           4.5745   -1.2913    1.3493 H       1  UNL1        0.0492
     35 H           5.2327    0.4102    1.4534 H       1  UNL1        0.0492
     36 H           1.9492   -0.2687    1.9134 H       1  UNL1        0.0442
     37 H           2.5637    1.4360    1.8634 H       1  UNL1        0.0442
     38 H          -2.9194    1.8893    1.6883 H       1  UNL1        0.0545
     39 H          -3.6418    2.4430   -1.1906 H       1  UNL1        0.0286
     40 H          -4.4684    1.1323   -0.2463 H       1  UNL1        0.0286
     41 H          -5.6099    3.3939    0.0289 H       1  UNL1        0.0266
     42 H          -4.9099    2.8422    1.5716 H       1  UNL1        0.0266
     43 H          -4.3215    5.2352    0.1915 H       1  UNL1        0.0265
     44 H          -3.5375    4.6534    1.6844 H       1  UNL1        0.0265
     45 H          -2.6510    4.2262   -1.2369 H       1  UNL1        0.0266
     46 H          -1.8590    5.1199    0.0738 H       1  UNL1        0.0266
     47 H          -0.9747    2.7658   -0.4710 H       1  UNL1        0.0286
     48 H          -1.2249    3.3318    1.2838 H       1  UNL1        0.0286
     49 H           0.4865   -1.4168    0.1651 H       1  UNL1        0.1482
     50 H          -0.9998   -3.0787   -0.4565 H       1  UNL1        0.0498
     51 H          -1.6217   -1.4043   -2.2268 H       1  UNL1        0.0283
     52 H          -3.1001   -1.0214   -1.1765 H       1  UNL1        0.0283
     53 H          -3.6459   -2.8560   -2.7688 H       1  UNL1        0.0266
     54 H          -2.0774   -3.6179   -2.3919 H       1  UNL1        0.0266
     55 H          -2.9335   -4.7972   -0.6420 H       1  UNL1        0.0265
     56 H          -4.5190   -4.1854   -1.1713 H       1  UNL1        0.0265
     57 H          -4.5759   -2.4241    0.3897 H       1  UNL1        0.0266
     58 H          -3.9650   -3.8635    1.2246 H       1  UNL1        0.0266
     59 H          -1.9019   -3.0219    1.6981 H       1  UNL1        0.0283
     60 H          -2.7381   -1.4719    1.4092 H       1  UNL1        0.0283
     61 H           0.9093    1.0850   -1.2118 H       1  UNL1        0.0710
@<TRIPOS>BOND
     1     1     2    1
     2     2     3    1
     3     2     4    1
     4     4     5    1
     5     5     6    1
     6     6     7    1
     7     7     8    1
     8     8     9    1
     9     9    10    2
    10    10    11    1
    11    11    12    1
    12    12    13    1
    13    13    14    1
    14    14    15    1
    15    15    16    1
    16     9    17    1
    17    17    18    1
    18    18    19    1
    19    19    20    1
    20    20    21    1
    21    21    22    1
    22    22    23    1
    23     6    24    2
    24    24    25    1
    25    25    26    1
    26    26    27    2
    27    27     2    1
    28    26     5    1
    29    16    11    1
    30    23    18    1
    31     1    28    1
    32     1    29    1
    33     1    30    1
    34     3    31    1
    35     3    32    1
    36     3    33    1
    37     4    34    1
    38     4    35    1
    39     7    36    1
    40     7    37    1
    41    11    38    1
    42    12    39    1
    43    12    40    1
    44    13    41    1
    45    13    42    1
    46    14    43    1
    47    14    44    1
    48    15    45    1
    49    15    46    1
    50    16    47    1
    51    16    48    1
    52    17    49    1
    53    18    50    1
    54    19    51    1
    55    19    52    1
    56    20    53    1
    57    20    54    1
    58    21    55    1
    59    21    56    1
    60    22    57    1
    61    22    58    1
    62    23    59    1
    63    23    60    1
    64    24    61    1
