@<TRIPOS>MOLECULE
*****
 46 49 0 0 0
SMALL
GASTEIGER

@<TRIPOS>ATOM
      1 C           3.4796   -1.5427   -1.5072 C.3     1  UNL1       -0.0441
      2 C           2.5732   -0.3796   -1.1116 C.3     1  UNL1        0.0352
      3 C           2.7394    0.7321   -2.1153 C.3     1  UNL1       -0.0090
      4 C           4.1555    1.2139   -2.2137 C.3     1  UNL1        0.0461
      5 O           5.0188    0.1811   -2.6234 O.3     1  UNL1       -0.3949
      6 N           1.2148   -0.9065   -1.1659 N.ar    1  UNL1       -0.3267
      7 C           0.8505   -1.8260   -2.1301 C.ar    1  UNL1        0.0973
      8 N          -0.4149   -2.1619   -1.9487 N.ar    1  UNL1       -0.2351
      9 C          -0.9270   -1.5224   -0.9033 C.ar    1  UNL1        0.0967
     10 C          -2.2792   -1.6200   -0.3494 C.ar    1  UNL1        0.0026
     11 C          -3.3710   -1.7807   -1.1964 C.ar    1  UNL1       -0.0498
     12 C          -4.6327   -1.8469   -0.5850 C.ar    1  UNL1       -0.0258
     13 C          -4.8788   -1.7649    0.7540 C.ar    1  UNL1        0.1234
     14 F          -6.0758   -1.8422    1.3359 F       1  UNL1       -0.2055
     15 C          -3.7679   -1.5988    1.6155 C.ar    1  UNL1       -0.0258
     16 C          -2.5153   -1.5345    0.9979 C.ar    1  UNL1       -0.0498
     17 C           0.1303   -0.7204   -0.4204 C.ar    1  UNL1        0.0781
     18 C           0.0246    0.1576    0.7262 C.ar    1  UNL1        0.0173
     19 C           0.9238   -0.0602    1.7967 C.ar    1  UNL1       -0.0477
     20 C           0.7612    0.7835    2.8627 C.ar    1  UNL1       -0.0181
     21 C          -0.0940    1.7473    3.0195 C.ar    1  UNL1        0.1385
     22 N          -0.3418    2.6150    4.0122 N.ar    1  UNL1       -0.2348
     23 C          -1.4269    3.3960    3.5473 C.ar    1  UNL1        0.0643
     24 C          -1.7614    2.9688    2.3434 C.ar    1  UNL1        0.1438
     25 C          -2.8823    3.5806    1.5079 C.1     1  UNL1        0.1192
     26 N          -3.7126    4.0289    0.8831 N.1     1  UNL1       -0.1893
     27 N          -1.0178    1.9907    1.9550 N.ar    1  UNL1       -0.2906
     28 C          -0.8679    1.1578    0.8873 C.ar    1  UNL1        0.0216
     29 H           4.4954   -1.4636   -1.1522 H       1  UNL1        0.0250
     30 H           3.0553   -2.5004   -1.1143 H       1  UNL1        0.0250
     31 H           3.5130   -1.5540   -2.6286 H       1  UNL1        0.0250
     32 H           2.8467    0.0051   -0.1088 H       1  UNL1        0.0526
     33 H           2.0386    1.5375   -1.7687 H       1  UNL1        0.0307
     34 H           2.3461    0.4064   -3.0767 H       1  UNL1        0.0307
     35 H           4.1875    2.0542   -2.9357 H       1  UNL1        0.0558
     36 H           4.5181    1.6365   -1.2261 H       1  UNL1        0.0558
     37 H           5.0496    0.0513   -3.6102 H       1  UNL1        0.2094
     38 H           1.5435   -2.1865   -2.8980 H       1  UNL1        0.1029
     39 H          -3.2265   -1.8415   -2.2625 H       1  UNL1        0.0625
     40 H          -5.4748   -1.9734   -1.2930 H       1  UNL1        0.0646
     41 H          -3.8733   -1.5197    2.6936 H       1  UNL1        0.0646
     42 H          -1.6272   -1.4187    1.6599 H       1  UNL1        0.0625
     43 H           1.6394   -0.8192    1.7685 H       1  UNL1        0.0626
     44 H           1.4969    0.6019    3.7262 H       1  UNL1        0.0654
     45 H          -1.8370    4.1786    4.1855 H       1  UNL1        0.0859
     46 H          -1.5957    1.3599    0.0669 H       1  UNL1        0.0820
@<TRIPOS>BOND
     1     1     2    1
     2     2     3    1
     3     3     4    1
     4     4     5    1
     5     2     6    1
     6     6     7   ar
     7     7     8   ar
     8     8     9   ar
     9     9    10    1
    10    10    11   ar
    11    11    12   ar
    12    12    13   ar
    13    13    14    1
    14    13    15   ar
    15    15    16   ar
    16     9    17   ar
    17    17    18    1
    18    18    19   ar
    19    19    20   ar
    20    20    21   ar
    21    21    22   ar
    22    22    23   ar
    23    23    24   ar
    24    24    25    1
    25    25    26    3
    26    24    27   ar
    27    27    28   ar
    28    17     6   ar
    29    28    18   ar
    30    16    10   ar
    31    27    21   ar
    32     1    29    1
    33     1    30    1
    34     1    31    1
    35     2    32    1
    36     3    33    1
    37     3    34    1
    38     4    35    1
    39     4    36    1
    40     5    37    1
    41     7    38    1
    42    11    39    1
    43    12    40    1
    44    15    41    1
    45    16    42    1
    46    19    43    1
    47    20    44    1
    48    23    45    1
    49    28    46    1
