
     RDKit          3D

 76 80  0  0  0  0  0  0  0  0999 V2000
   -7.3757    5.0821   -1.7383 C   0  0  0  0  0  0  0  0  0  0  0  0
   -6.8331    3.7669   -1.3091 C   0  0  0  0  0  0  0  0  0  0  0  0
   -6.4992    2.8032   -2.2542 C   0  0  0  0  0  0  0  0  0  0  0  0
   -5.9952    1.5818   -1.8469 C   0  0  0  0  0  0  0  0  0  0  0  0
   -5.8284    1.3301   -0.5142 C   0  0  0  0  0  0  0  0  0  0  0  0
   -5.3107    0.0779   -0.1067 N   0  0  0  0  0  0  0  0  0  0  0  0
   -6.0265   -0.9963    0.2487 N   0  0  0  0  0  0  0  0  0  0  0  0
   -5.2217   -2.0103    0.5729 C   0  0  0  0  0  0  0  0  0  0  0  0
   -5.5862   -3.3852    1.0255 C   0  0  0  0  0  0  0  0  0  0  0  0
   -4.3126   -4.1660    1.2784 C   0  0  0  0  0  0  0  0  0  0  0  0
   -6.3696   -3.2432    2.3146 C   0  0  0  0  0  0  0  0  0  0  0  0
   -6.4285   -4.0208   -0.0423 C   0  0  0  0  0  0  0  0  0  0  0  0
   -3.9187   -1.5207    0.4035 C   0  0  0  0  0  0  0  0  0  0  0  0
   -3.9786   -0.2180   -0.0201 C   0  0  0  0  0  0  0  0  0  0  0  0
   -2.9586    0.7039   -0.3279 N   0  0  0  0  0  0  0  0  0  0  0  0
   -1.5736    0.3231   -0.2499 C   0  0  0  0  0  0  0  0  0  0  0  0
   -1.2574   -0.8344    0.0787 O   0  0  0  0  0  0  0  0  0  0  0  0
   -0.5398    1.2577   -0.5454 N   0  0  0  0  0  0  0  0  0  0  0  0
    0.8499    1.0017   -0.5252 C   0  0  0  0  0  0  0  0  0  0  0  0
    1.3872   -0.2555   -0.4823 C   0  0  0  0  0  0  0  0  0  0  0  0
    2.7689   -0.4349   -0.4344 C   0  0  0  0  0  0  0  0  0  0  0  0
    3.6378    0.6093   -0.4281 C   0  0  0  0  0  0  0  0  0  0  0  0
    5.0206    0.4495   -0.3800 O   0  0  0  0  0  0  0  0  0  0  0  0
    5.6046   -0.8580   -0.3390 C   0  0  0  0  0  0  0  0  0  0  0  0
    7.0887   -0.6806   -0.2876 C   0  0  0  0  0  0  0  0  0  0  0  0
    7.8323   -1.9013   -0.2514 N   0  0  0  0  0  0  0  0  0  0  0  0
    7.7045   -2.6717    0.9393 C   0  0  0  0  0  0  0  0  0  0  0  0
    8.4212   -2.1473    2.1388 C   0  0  0  0  0  0  0  0  0  0  0  0
    9.7059   -1.7059    1.8640 O   0  0  0  0  0  0  0  0  0  0  0  0
    9.7557   -0.8870    0.7408 C   0  0  0  0  0  0  0  0  0  0  0  0
    9.2289   -1.6052   -0.4812 C   0  0  0  0  0  0  0  0  0  0  0  0
    3.1079    1.8890   -0.4712 C   0  0  0  0  0  0  0  0  0  0  0  0
    3.9899    2.9723   -0.4594 C   0  0  0  0  0  0  0  0  0  0  0  0
    3.4801    4.2374   -0.4951 C   0  0  0  0  0  0  0  0  0  0  0  0
    2.1306    4.4716   -0.5422 C   0  0  0  0  0  0  0  0  0  0  0  0
    1.2501    3.3885   -0.5542 C   0  0  0  0  0  0  0  0  0  0  0  0
    1.7324    2.1008   -0.5194 C   0  0  0  0  0  0  0  0  0  0  0  0
   -6.1591    2.2825    0.4064 C   0  0  0  0  0  0  0  0  0  0  0  0
   -6.6653    3.5123    0.0226 C   0  0  0  0  0  0  0  0  0  0  0  0
   -7.6139    5.0762   -2.8198 H   0  0  0  0  0  0  0  0  0  0  0  0
   -8.3091    5.3309   -1.1839 H   0  0  0  0  0  0  0  0  0  0  0  0
   -6.6320    5.8899   -1.5742 H   0  0  0  0  0  0  0  0  0  0  0  0
   -6.6351    3.0158   -3.2925 H   0  0  0  0  0  0  0  0  0  0  0  0
   -5.7541    0.8725   -2.6265 H   0  0  0  0  0  0  0  0  0  0  0  0
   -4.5158   -5.0864    1.8828 H   0  0  0  0  0  0  0  0  0  0  0  0
   -3.8054   -4.4216    0.3326 H   0  0  0  0  0  0  0  0  0  0  0  0
   -3.6223   -3.5602    1.8996 H   0  0  0  0  0  0  0  0  0  0  0  0
   -7.1583   -2.4837    2.1701 H   0  0  0  0  0  0  0  0  0  0  0  0
   -6.7703   -4.2022    2.6623 H   0  0  0  0  0  0  0  0  0  0  0  0
   -5.6753   -2.8366    3.0976 H   0  0  0  0  0  0  0  0  0  0  0  0
   -7.0406   -3.2499   -0.5429 H   0  0  0  0  0  0  0  0  0  0  0  0
   -7.1441   -4.7707    0.3740 H   0  0  0  0  0  0  0  0  0  0  0  0
   -5.7637   -4.4637   -0.8063 H   0  0  0  0  0  0  0  0  0  0  0  0
   -3.0349   -2.1145    0.5903 H   0  0  0  0  0  0  0  0  0  0  0  0
   -3.1914    1.6823   -0.6094 H   0  0  0  0  0  0  0  0  0  0  0  0
   -0.9143    2.2139   -0.8150 H   0  0  0  0  0  0  0  0  0  0  0  0
    0.7724   -1.1266   -0.4963 H   0  0  0  0  0  0  0  0  0  0  0  0
    3.2011   -1.4402   -0.3999 H   0  0  0  0  0  0  0  0  0  0  0  0
    5.3562   -1.3322   -1.3253 H   0  0  0  0  0  0  0  0  0  0  0  0
    5.1902   -1.4620    0.4699 H   0  0  0  0  0  0  0  0  0  0  0  0
    7.3838   -0.1084   -1.1940 H   0  0  0  0  0  0  0  0  0  0  0  0
    7.3189   -0.1052    0.6328 H   0  0  0  0  0  0  0  0  0  0  0  0
    6.6124   -2.7111    1.2143 H   0  0  0  0  0  0  0  0  0  0  0  0
    8.0179   -3.7129    0.7095 H   0  0  0  0  0  0  0  0  0  0  0  0
    8.5471   -3.0255    2.8396 H   0  0  0  0  0  0  0  0  0  0  0  0
    7.8392   -1.3997    2.7245 H   0  0  0  0  0  0  0  0  0  0  0  0
    9.3232    0.1022    0.8840 H   0  0  0  0  0  0  0  0  0  0  0  0
   10.8509   -0.7164    0.5451 H   0  0  0  0  0  0  0  0  0  0  0  0
    9.7883   -2.5558   -0.5897 H   0  0  0  0  0  0  0  0  0  0  0  0
    9.3723   -0.9285   -1.3483 H   0  0  0  0  0  0  0  0  0  0  0  0
    5.0397    2.7425   -0.4220 H   0  0  0  0  0  0  0  0  0  0  0  0
    4.1387    5.0970   -0.4867 H   0  0  0  0  0  0  0  0  0  0  0  0
    1.7328    5.4909   -0.5700 H   0  0  0  0  0  0  0  0  0  0  0  0
    0.2113    3.5977   -0.5852 H   0  0  0  0  0  0  0  0  0  0  0  0
   -6.0462    2.1347    1.4850 H   0  0  0  0  0  0  0  0  0  0  0  0
   -6.9278    4.2686    0.7455 H   0  0  0  0  0  0  0  0  0  0  0  0
  1  2  1  0
  2  3  2  0
  3  4  1  0
  4  5  2  0
  5  6  1  0
  6  7  1  0
  7  8  2  0
  8  9  1  0
  9 10  1  0
  9 11  1  0
  9 12  1  0
  8 13  1  0
 13 14  2  0
 14 15  1  0
 15 16  1  0
 16 17  2  0
 16 18  1  0
 18 19  1  0
 19 20  2  0
 20 21  1  0
 21 22  2  0
 22 23  1  0
 23 24  1  0
 24 25  1  0
 25 26  1  0
 26 27  1  0
 27 28  1  0
 28 29  1  0
 29 30  1  0
 30 31  1  0
 22 32  1  0
 32 33  2  0
 33 34  1  0
 34 35  2  0
 35 36  1  0
 36 37  2  0
  5 38  1  0
 38 39  2  0
 39  2  1  0
 14  6  1  0
 37 19  1  0
 31 26  1  0
 37 32  1  0
  1 40  1  0
  1 41  1  0
  1 42  1  0
  3 43  1  0
  4 44  1  0
 10 45  1  0
 10 46  1  0
 10 47  1  0
 11 48  1  0
 11 49  1  0
 11 50  1  0
 12 51  1  0
 12 52  1  0
 12 53  1  0
 13 54  1  0
 15 55  1  0
 18 56  1  0
 20 57  1  0
 21 58  1  0
 24 59  1  0
 24 60  1  0
 25 61  1  0
 25 62  1  0
 27 63  1  0
 27 64  1  0
 28 65  1  0
 28 66  1  0
 30 67  1  0
 30 68  1  0
 31 69  1  0
 31 70  1  0
 33 71  1  0
 34 72  1  0
 35 73  1  0
 36 74  1  0
 38 75  1  0
 39 76  1  0
M  END
$$$$
