@<TRIPOS>MOLECULE
*****
 76 80 0 0 0
SMALL
GASTEIGER

@<TRIPOS>ATOM
      1 C          -7.3757    5.0821   -1.7383 C.3     1  UNL1       -0.0397
      2 C          -6.8331    3.7669   -1.3091 C.ar    1  UNL1       -0.0503
      3 C          -6.4992    2.8032   -2.2542 C.ar    1  UNL1       -0.0568
      4 C          -5.9952    1.5818   -1.8469 C.ar    1  UNL1       -0.0359
      5 C          -5.8284    1.3301   -0.5142 C.ar    1  UNL1        0.0674
      6 N          -5.3107    0.0779   -0.1067 N.ar    1  UNL1       -0.2181
      7 N          -6.0265   -0.9963    0.2487 N.ar    1  UNL1       -0.1691
      8 C          -5.2217   -2.0103    0.5729 C.ar    1  UNL1        0.0706
      9 C          -5.5862   -3.3852    1.0255 C.3     1  UNL1        0.0063
     10 C          -4.3126   -4.1660    1.2784 C.3     1  UNL1       -0.0546
     11 C          -6.3696   -3.2432    2.3146 C.3     1  UNL1       -0.0546
     12 C          -6.4285   -4.0208   -0.0423 C.3     1  UNL1       -0.0546
     13 C          -3.9187   -1.5207    0.4035 C.ar    1  UNL1        0.0021
     14 C          -3.9786   -0.2180   -0.0201 C.ar    1  UNL1        0.1299
     15 N          -2.9586    0.7039   -0.3279 N.am    1  UNL1       -0.2538
     16 C          -1.5736    0.3231   -0.2499 C.2     1  UNL1        0.3092
     17 O          -1.2574   -0.8344    0.0787 O.2     1  UNL1       -0.2521
     18 N          -0.5398    1.2577   -0.5454 N.am    1  UNL1       -0.2686
     19 C           0.8499    1.0017   -0.5252 C.ar    1  UNL1        0.0427
     20 C           1.3872   -0.2555   -0.4823 C.ar    1  UNL1       -0.0364
     21 C           2.7689   -0.4349   -0.4344 C.ar    1  UNL1       -0.0176
     22 C           3.6378    0.6093   -0.4281 C.ar    1  UNL1        0.1283
     23 O           5.0206    0.4495   -0.3800 O.3     1  UNL1       -0.4901
     24 C           5.6046   -0.8580   -0.3390 C.3     1  UNL1        0.1023
     25 C           7.0887   -0.6806   -0.2876 C.3     1  UNL1        0.0333
     26 N           7.8323   -1.9013   -0.2514 N.3     1  UNL1       -0.2948
     27 C           7.7045   -2.6717    0.9393 C.3     1  UNL1        0.0225
     28 C           8.4212   -2.1473    2.1388 C.3     1  UNL1        0.0604
     29 O           9.7059   -1.7059    1.8640 O.3     1  UNL1       -0.3772
     30 C           9.7557   -0.8870    0.7408 C.3     1  UNL1        0.0604
     31 C           9.2289   -1.6052   -0.4812 C.3     1  UNL1        0.0225
     32 C           3.1079    1.8890   -0.4712 C.ar    1  UNL1        0.0256
     33 C           3.9899    2.9723   -0.4594 C.ar    1  UNL1       -0.0505
     34 C           3.4801    4.2374   -0.4951 C.ar    1  UNL1       -0.0611
     35 C           2.1306    4.4716   -0.5422 C.ar    1  UNL1       -0.0611
     36 C           1.2501    3.3885   -0.5542 C.ar    1  UNL1       -0.0521
     37 C           1.7324    2.1008   -0.5194 C.ar    1  UNL1        0.0069
     38 C          -6.1591    2.2825    0.4064 C.ar    1  UNL1       -0.0359
     39 C          -6.6653    3.5123    0.0226 C.ar    1  UNL1       -0.0568
     40 H          -7.6139    5.0762   -2.8198 H       1  UNL1        0.0278
     41 H          -8.3091    5.3309   -1.1839 H       1  UNL1        0.0278
     42 H          -6.6320    5.8899   -1.5742 H       1  UNL1        0.0278
     43 H          -6.6351    3.0158   -3.2925 H       1  UNL1        0.0621
     44 H          -5.7541    0.8725   -2.6265 H       1  UNL1        0.0639
     45 H          -4.5158   -5.0864    1.8828 H       1  UNL1        0.0239
     46 H          -3.8054   -4.4216    0.3326 H       1  UNL1        0.0239
     47 H          -3.6223   -3.5602    1.8996 H       1  UNL1        0.0239
     48 H          -7.1583   -2.4837    2.1701 H       1  UNL1        0.0239
     49 H          -6.7703   -4.2022    2.6623 H       1  UNL1        0.0239
     50 H          -5.6753   -2.8366    3.0976 H       1  UNL1        0.0239
     51 H          -7.0406   -3.2499   -0.5429 H       1  UNL1        0.0239
     52 H          -7.1441   -4.7707    0.3740 H       1  UNL1        0.0239
     53 H          -5.7637   -4.4637   -0.8063 H       1  UNL1        0.0239
     54 H          -3.0349   -2.1145    0.5903 H       1  UNL1        0.0671
     55 H          -3.1914    1.6823   -0.6094 H       1  UNL1        0.1578
     56 H          -0.9143    2.2139   -0.8150 H       1  UNL1        0.1564
     57 H           0.7724   -1.1266   -0.4963 H       1  UNL1        0.0637
     58 H           3.2011   -1.4402   -0.3999 H       1  UNL1        0.0655
     59 H           5.3562   -1.3322   -1.3253 H       1  UNL1        0.0709
     60 H           5.1902   -1.4620    0.4699 H       1  UNL1        0.0709
     61 H           7.3838   -0.1084   -1.1940 H       1  UNL1        0.0460
     62 H           7.3189   -0.1052    0.6328 H       1  UNL1        0.0460
     63 H           6.6124   -2.7111    1.2143 H       1  UNL1        0.0449
     64 H           8.0179   -3.7129    0.7095 H       1  UNL1        0.0449
     65 H           8.5471   -3.0255    2.8396 H       1  UNL1        0.0572
     66 H           7.8392   -1.3997    2.7245 H       1  UNL1        0.0572
     67 H           9.3232    0.1022    0.8840 H       1  UNL1        0.0572
     68 H          10.8509   -0.7164    0.5451 H       1  UNL1        0.0572
     69 H           9.7883   -2.5558   -0.5897 H       1  UNL1        0.0449
     70 H           9.3723   -0.9285   -1.3483 H       1  UNL1        0.0449
     71 H           5.0397    2.7425   -0.4220 H       1  UNL1        0.0625
     72 H           4.1387    5.0970   -0.4867 H       1  UNL1        0.0618
     73 H           1.7328    5.4909   -0.5700 H       1  UNL1        0.0618
     74 H           0.2113    3.5977   -0.5852 H       1  UNL1        0.0624
     75 H          -6.0462    2.1347    1.4850 H       1  UNL1        0.0639
     76 H          -6.9278    4.2686    0.7455 H       1  UNL1        0.0621
@<TRIPOS>BOND
     1     1     2    1
     2     2     3   ar
     3     3     4   ar
     4     4     5   ar
     5     5     6    1
     6     6     7   ar
     7     7     8   ar
     8     8     9    1
     9     9    10    1
    10     9    11    1
    11     9    12    1
    12     8    13   ar
    13    13    14   ar
    14    14    15    1
    15    15    16   am
    16    16    17    2
    17    16    18   am
    18    18    19    1
    19    19    20   ar
    20    20    21   ar
    21    21    22   ar
    22    22    23    1
    23    23    24    1
    24    24    25    1
    25    25    26    1
    26    26    27    1
    27    27    28    1
    28    28    29    1
    29    29    30    1
    30    30    31    1
    31    22    32   ar
    32    32    33   ar
    33    33    34   ar
    34    34    35   ar
    35    35    36   ar
    36    36    37   ar
    37     5    38   ar
    38    38    39   ar
    39    39     2   ar
    40    14     6   ar
    41    37    19   ar
    42    31    26    1
    43    37    32   ar
    44     1    40    1
    45     1    41    1
    46     1    42    1
    47     3    43    1
    48     4    44    1
    49    10    45    1
    50    10    46    1
    51    10    47    1
    52    11    48    1
    53    11    49    1
    54    11    50    1
    55    12    51    1
    56    12    52    1
    57    12    53    1
    58    13    54    1
    59    15    55    1
    60    18    56    1
    61    20    57    1
    62    21    58    1
    63    24    59    1
    64    24    60    1
    65    25    61    1
    66    25    62    1
    67    27    63    1
    68    27    64    1
    69    28    65    1
    70    28    66    1
    71    30    67    1
    72    30    68    1
    73    31    69    1
    74    31    70    1
    75    33    71    1
    76    34    72    1
    77    35    73    1
    78    36    74    1
    79    38    75    1
    80    39    76    1
