
     RDKit          3D

 25 25  0  0  0  0  0  0  0  0999 V2000
   -1.2683   -1.4066    0.1934 C   0  0  1  0  0  0  0  0  0  0  0  0
   -1.9260   -2.4815   -0.5657 N   0  0  0  0  0  0  0  0  0  0  0  0
    0.4893   -1.7471    0.1440 S   0  0  0  0  0  0  0  0  0  0  0  0
    1.4503   -0.2556   -0.2915 C   0  0  2  0  0  0  0  0  0  0  0  0
    2.8045   -0.2330    0.3669 C   0  0  0  0  0  0  0  0  0  0  0  0
    3.4333    0.9592   -0.0503 O   0  0  0  0  0  0  0  0  0  0  0  0
    0.5722    0.8859    0.1777 C   0  0  1  0  0  0  0  0  0  0  0  0
    1.2366    2.0992    0.2135 O   0  0  0  0  0  0  0  0  0  0  0  0
   -0.6418    0.8725   -0.7152 C   0  0  2  0  0  0  0  0  0  0  0  0
   -1.1605    2.1622   -0.7744 O   0  0  0  0  0  0  0  0  0  0  0  0
   -1.7017   -0.0849   -0.3066 C   0  0  2  0  0  0  0  0  0  0  0  0
   -2.5173    0.5905    0.6285 O   0  0  0  0  0  0  0  0  0  0  0  0
   -1.6094   -1.4992    1.2651 H   0  0  0  0  0  0  0  0  0  0  0  0
   -2.9510   -2.3899   -0.5752 H   0  0  0  0  0  0  0  0  0  0  0  0
   -1.5792   -3.3915   -0.2191 H   0  0  0  0  0  0  0  0  0  0  0  0
    1.5220   -0.2479   -1.3955 H   0  0  0  0  0  0  0  0  0  0  0  0
    2.6926   -0.1873    1.4492 H   0  0  0  0  0  0  0  0  0  0  0  0
    3.4162   -1.0578   -0.0109 H   0  0  0  0  0  0  0  0  0  0  0  0
    3.6481    0.8685   -1.0099 H   0  0  0  0  0  0  0  0  0  0  0  0
    0.2142    0.5929    1.1959 H   0  0  0  0  0  0  0  0  0  0  0  0
    0.7959    2.8378   -0.2387 H   0  0  0  0  0  0  0  0  0  0  0  0
   -0.3479    0.6338   -1.7762 H   0  0  0  0  0  0  0  0  0  0  0  0
   -1.9663    2.2724   -0.2136 H   0  0  0  0  0  0  0  0  0  0  0  0
   -2.3802   -0.2184   -1.1970 H   0  0  0  0  0  0  0  0  0  0  0  0
   -2.2255    0.4257    1.5435 H   0  0  0  0  0  0  0  0  0  0  0  0
  1  2  1  0
  1  3  1  0
  3  4  1  0
  4  5  1  0
  5  6  1  0
  4  7  1  0
  7  8  1  0
  7  9  1  0
  9 10  1  0
  9 11  1  0
 11 12  1  0
 11  1  1  0
  1 13  1  1
  2 14  1  0
  2 15  1  0
  4 16  1  6
  5 17  1  0
  5 18  1  0
  6 19  1  0
  7 20  1  1
  8 21  1  0
  9 22  1  6
 10 23  1  0
 11 24  1  6
 12 25  1  0
M  END
$$$$
