@<TRIPOS>MOLECULE
*****
 25 25 0 0 0
SMALL
GASTEIGER

@<TRIPOS>ATOM
      1 C          -1.2683   -1.4066    0.1934 C.3     1  UNL1        0.0810
      2 N          -1.9260   -2.4815   -0.5657 N.3     1  UNL1       -0.3169
      3 S           0.4893   -1.7471    0.1440 S.3     1  UNL1       -0.1312
      4 C           1.4503   -0.2556   -0.2915 C.3     1  UNL1        0.0583
      5 C           2.8045   -0.2330    0.3669 C.3     1  UNL1        0.0585
      6 O           3.4333    0.9592   -0.0503 O.3     1  UNL1       -0.3938
      7 C           0.5722    0.8859    0.1777 C.3     1  UNL1        0.0974
      8 O           1.2366    2.0992    0.2135 O.3     1  UNL1       -0.3880
      9 C          -0.6418    0.8725   -0.7152 C.3     1  UNL1        0.1102
     10 O          -1.1605    2.1622   -0.7744 O.3     1  UNL1       -0.3865
     11 C          -1.7017   -0.0849   -0.3066 C.3     1  UNL1        0.1078
     12 O          -2.5173    0.5905    0.6285 O.3     1  UNL1       -0.3868
     13 H          -1.6094   -1.4992    1.2651 H       1  UNL1        0.0600
     14 H          -2.9510   -2.3899   -0.5752 H       1  UNL1        0.1193
     15 H          -1.5792   -3.3915   -0.2191 H       1  UNL1        0.1193
     16 H           1.5220   -0.2479   -1.3955 H       1  UNL1        0.0461
     17 H           2.6926   -0.1873    1.4492 H       1  UNL1        0.0569
     18 H           3.4162   -1.0578   -0.0109 H       1  UNL1        0.0569
     19 H           3.6481    0.8685   -1.0099 H       1  UNL1        0.2094
     20 H           0.2142    0.5929    1.1959 H       1  UNL1        0.0632
     21 H           0.7959    2.8378   -0.2387 H       1  UNL1        0.2099
     22 H          -0.3479    0.6338   -1.7762 H       1  UNL1        0.0646
     23 H          -1.9663    2.2724   -0.2136 H       1  UNL1        0.2100
     24 H          -2.3802   -0.2184   -1.1970 H       1  UNL1        0.0644
     25 H          -2.2255    0.4257    1.5435 H       1  UNL1        0.2100
@<TRIPOS>BOND
     1     1     2    1
     2     1     3    1
     3     3     4    1
     4     4     5    1
     5     5     6    1
     6     4     7    1
     7     7     8    1
     8     7     9    1
     9     9    10    1
    10     9    11    1
    11    11    12    1
    12    11     1    1
    13     1    13    1
    14     2    14    1
    15     2    15    1
    16     4    16    1
    17     5    17    1
    18     5    18    1
    19     6    19    1
    20     7    20    1
    21     8    21    1
    22     9    22    1
    23    10    23    1
    24    11    24    1
    25    12    25    1
