
     RDKit          3D

 43 46  0  0  0  0  0  0  0  0999 V2000
   -4.4924    1.0393   -0.1802 C   0  0  0  0  0  0  0  0  0  0  0  0
   -4.0036   -0.3588    0.0177 C   0  0  0  0  0  0  0  0  0  0  0  0
   -5.2022   -1.2873    0.0438 C   0  0  0  0  0  0  0  0  0  0  0  0
   -3.2512   -0.5383    1.3156 C   0  0  0  0  0  0  0  0  0  0  0  0
   -1.7499   -0.5148    1.1189 C   0  0  0  0  0  0  0  0  0  0  0  0
   -1.3958    0.5655    0.1213 C   0  0  0  0  0  0  0  0  0  0  0  0
   -0.0077    0.8798    0.0952 N   0  0  0  0  0  0  0  0  0  0  0  0
    1.0291   -0.0283   -0.2065 C   0  0  0  0  0  0  0  0  0  0  0  0
    0.7287   -1.3033   -0.4981 N   0  0  0  0  0  0  0  0  0  0  0  0
    1.6922   -2.2202   -0.7965 C   0  0  0  0  0  0  0  0  0  0  0  0
    2.9762   -1.8221   -0.7949 N   0  0  0  0  0  0  0  0  0  0  0  0
    3.3646   -0.5651   -0.5143 C   0  0  0  0  0  0  0  0  0  0  0  0
    2.3539    0.3433   -0.2145 C   0  0  0  0  0  0  0  0  0  0  0  0
    2.9880    1.5101    0.0254 N   0  0  0  0  0  0  0  0  0  0  0  0
    4.2975    1.3724   -0.1069 N   0  0  0  0  0  0  0  0  0  0  0  0
    5.3487    2.2169    0.0223 C   0  0  0  0  0  0  0  0  0  0  0  0
    6.6537    1.8297   -0.1712 C   0  0  0  0  0  0  0  0  0  0  0  0
    6.9447    0.5415   -0.5105 C   0  0  0  0  0  0  0  0  0  0  0  0
    5.8645   -0.3315   -0.6445 C   0  0  0  0  0  0  0  0  0  0  0  0
    4.5691    0.0981   -0.4413 C   0  0  0  0  0  0  0  0  0  0  0  0
   -1.9121    0.0785   -1.2340 C   0  0  0  0  0  0  0  0  0  0  0  0
   -3.0949   -0.8265   -1.0953 C   0  0  0  0  0  0  0  0  0  0  0  0
   -3.9434    1.5876   -0.9940 H   0  0  0  0  0  0  0  0  0  0  0  0
   -5.5557    1.0434   -0.5006 H   0  0  0  0  0  0  0  0  0  0  0  0
   -4.4673    1.6340    0.7708 H   0  0  0  0  0  0  0  0  0  0  0  0
   -4.9224   -2.3150   -0.2104 H   0  0  0  0  0  0  0  0  0  0  0  0
   -5.6290   -1.2811    1.0868 H   0  0  0  0  0  0  0  0  0  0  0  0
   -6.0283   -0.8817   -0.5981 H   0  0  0  0  0  0  0  0  0  0  0  0
   -3.4896   -1.5481    1.7340 H   0  0  0  0  0  0  0  0  0  0  0  0
   -3.5755    0.1871    2.0819 H   0  0  0  0  0  0  0  0  0  0  0  0
   -1.3155   -0.2009    2.0971 H   0  0  0  0  0  0  0  0  0  0  0  0
   -1.3488   -1.5026    0.8366 H   0  0  0  0  0  0  0  0  0  0  0  0
   -1.9638    1.4655    0.4280 H   0  0  0  0  0  0  0  0  0  0  0  0
    0.2881    1.8710    0.3175 H   0  0  0  0  0  0  0  0  0  0  0  0
    1.4314   -3.2443   -1.0293 H   0  0  0  0  0  0  0  0  0  0  0  0
    5.1556    3.2499    0.2914 H   0  0  0  0  0  0  0  0  0  0  0  0
    7.4828    2.5247   -0.0622 H   0  0  0  0  0  0  0  0  0  0  0  0
    7.9629    0.2298   -0.6638 H   0  0  0  0  0  0  0  0  0  0  0  0
    6.0685   -1.3509   -0.9111 H   0  0  0  0  0  0  0  0  0  0  0  0
   -2.2144    0.9412   -1.8618 H   0  0  0  0  0  0  0  0  0  0  0  0
   -1.1056   -0.4542   -1.7509 H   0  0  0  0  0  0  0  0  0  0  0  0
   -2.8289   -1.8794   -0.8978 H   0  0  0  0  0  0  0  0  0  0  0  0
   -3.7024   -0.7549   -2.0429 H   0  0  0  0  0  0  0  0  0  0  0  0
  1  2  1  0
  2  3  1  0
  2  4  1  0
  4  5  1  0
  5  6  1  0
  6  7  1  0
  7  8  1  0
  8  9  2  0
  9 10  1  0
 10 11  2  0
 11 12  1  0
 12 13  1  0
 13 14  2  0
 14 15  1  0
 15 16  1  0
 16 17  2  0
 17 18  1  0
 18 19  2  0
 19 20  1  0
  6 21  1  0
 21 22  1  0
 22  2  1  0
 13  8  1  0
 20 15  1  0
 20 12  2  0
  1 23  1  0
  1 24  1  0
  1 25  1  0
  3 26  1  0
  3 27  1  0
  3 28  1  0
  4 29  1  0
  4 30  1  0
  5 31  1  0
  5 32  1  0
  6 33  1  0
  7 34  1  0
 10 35  1  0
 16 36  1  0
 17 37  1  0
 18 38  1  0
 19 39  1  0
 21 40  1  0
 21 41  1  0
 22 42  1  0
 22 43  1  0
M  END
$$$$
