@<TRIPOS>MOLECULE
*****
 43 46 0 0 0
SMALL
GASTEIGER

@<TRIPOS>ATOM
      1 C          -4.4924    1.0393   -0.1802 C.3     1  UNL1       -0.0598
      2 C          -4.0036   -0.3588    0.0177 C.3     1  UNL1       -0.0348
      3 C          -5.2022   -1.2873    0.0438 C.3     1  UNL1       -0.0598
      4 C          -3.2512   -0.5383    1.3156 C.3     1  UNL1       -0.0462
      5 C          -1.7499   -0.5148    1.1189 C.3     1  UNL1       -0.0341
      6 C          -1.3958    0.5655    0.1213 C.3     1  UNL1        0.0221
      7 N          -0.0077    0.8798    0.0952 N.pl3   1  UNL1       -0.3244
      8 C           1.0291   -0.0283   -0.2065 C.ar    1  UNL1        0.1502
      9 N           0.7287   -1.3033   -0.4981 N.ar    1  UNL1       -0.2187
     10 C           1.6922   -2.2202   -0.7965 C.ar    1  UNL1        0.1189
     11 N           2.9762   -1.8221   -0.7949 N.ar    1  UNL1       -0.2316
     12 C           3.3646   -0.5651   -0.5143 C.ar    1  UNL1        0.1212
     13 C           2.3539    0.3433   -0.2145 C.ar    1  UNL1        0.1515
     14 N           2.9880    1.5101    0.0254 N.ar    1  UNL1       -0.1613
     15 N           4.2975    1.3724   -0.1069 N.ar    1  UNL1       -0.2371
     16 C           5.3487    2.2169    0.0223 C.ar    1  UNL1        0.0298
     17 C           6.6537    1.8297   -0.1712 C.ar    1  UNL1       -0.0435
     18 C           6.9447    0.5415   -0.5105 C.ar    1  UNL1       -0.0583
     19 C           5.8645   -0.3315   -0.6445 C.ar    1  UNL1       -0.0341
     20 C           4.5691    0.0981   -0.4413 C.ar    1  UNL1        0.0929
     21 C          -1.9121    0.0785   -1.2340 C.3     1  UNL1       -0.0341
     22 C          -3.0949   -0.8265   -1.0953 C.3     1  UNL1       -0.0462
     23 H          -3.9434    1.5876   -0.9940 H       1  UNL1        0.0235
     24 H          -5.5557    1.0434   -0.5006 H       1  UNL1        0.0235
     25 H          -4.4673    1.6340    0.7708 H       1  UNL1        0.0235
     26 H          -4.9224   -2.3150   -0.2104 H       1  UNL1        0.0235
     27 H          -5.6290   -1.2811    1.0868 H       1  UNL1        0.0235
     28 H          -6.0283   -0.8817   -0.5981 H       1  UNL1        0.0235
     29 H          -3.4896   -1.5481    1.7340 H       1  UNL1        0.0271
     30 H          -3.5755    0.1871    2.0819 H       1  UNL1        0.0271
     31 H          -1.3155   -0.2009    2.0971 H       1  UNL1        0.0283
     32 H          -1.3488   -1.5026    0.8366 H       1  UNL1        0.0283
     33 H          -1.9638    1.4655    0.4280 H       1  UNL1        0.0498
     34 H           0.2881    1.8710    0.3175 H       1  UNL1        0.1478
     35 H           1.4314   -3.2443   -1.0293 H       1  UNL1        0.1048
     36 H           5.1556    3.2499    0.2914 H       1  UNL1        0.0830
     37 H           7.4828    2.5247   -0.0622 H       1  UNL1        0.0633
     38 H           7.9629    0.2298   -0.6638 H       1  UNL1        0.0619
     39 H           6.0685   -1.3509   -0.9111 H       1  UNL1        0.0639
     40 H          -2.2144    0.9412   -1.8618 H       1  UNL1        0.0283
     41 H          -1.1056   -0.4542   -1.7509 H       1  UNL1        0.0283
     42 H          -2.8289   -1.8794   -0.8978 H       1  UNL1        0.0271
     43 H          -3.7024   -0.7549   -2.0429 H       1  UNL1        0.0271
@<TRIPOS>BOND
     1     1     2    1
     2     2     3    1
     3     2     4    1
     4     4     5    1
     5     5     6    1
     6     6     7    1
     7     7     8    1
     8     8     9   ar
     9     9    10   ar
    10    10    11   ar
    11    11    12   ar
    12    12    13   ar
    13    13    14   ar
    14    14    15   ar
    15    15    16   ar
    16    16    17   ar
    17    17    18   ar
    18    18    19   ar
    19    19    20   ar
    20     6    21    1
    21    21    22    1
    22    22     2    1
    23    13     8   ar
    24    20    15   ar
    25    20    12   ar
    26     1    23    1
    27     1    24    1
    28     1    25    1
    29     3    26    1
    30     3    27    1
    31     3    28    1
    32     4    29    1
    33     4    30    1
    34     5    31    1
    35     5    32    1
    36     6    33    1
    37     7    34    1
    38    10    35    1
    39    16    36    1
    40    17    37    1
    41    18    38    1
    42    19    39    1
    43    21    40    1
    44    21    41    1
    45    22    42    1
    46    22    43    1
