
     RDKit          3D

 37 40  0  0  0  0  0  0  0  0999 V2000
    5.8506   -0.4756   -1.3012 C   0  0  0  0  0  0  0  0  0  0  0  0
    5.2340   -1.0714   -0.0594 C   0  0  0  0  0  0  0  0  0  0  0  0
    3.7892   -0.7279    0.0232 C   0  0  0  0  0  0  0  0  0  0  0  0
    2.7968   -1.5149   -0.5262 C   0  0  0  0  0  0  0  0  0  0  0  0
    1.4594   -1.1963   -0.4494 C   0  0  0  0  0  0  0  0  0  0  0  0
    1.1011   -0.0340    0.2093 C   0  0  0  0  0  0  0  0  0  0  0  0
    2.0554    0.7888    0.7768 C   0  0  0  0  0  0  0  0  0  0  0  0
    3.3866    0.4235    0.6718 C   0  0  0  0  0  0  0  0  0  0  0  0
    1.6457    1.8950    1.3979 N   0  0  0  0  0  0  0  0  0  0  0  0
    0.3517    2.2528    1.5016 C   0  0  0  0  0  0  0  0  0  0  0  0
   -0.0294    3.2920    2.0855 O   0  0  0  0  0  0  0  0  0  0  0  0
   -0.6077    1.4472    0.9439 C   0  0  0  0  0  0  0  0  0  0  0  0
   -1.9515    1.4663    0.8427 N   0  0  0  0  0  0  0  0  0  0  0  0
   -2.4064    0.4148    0.1815 C   0  0  0  0  0  0  0  0  0  0  0  0
   -3.7897    0.0472   -0.1521 C   0  0  0  0  0  0  0  0  0  0  0  0
   -4.8573    0.8384    0.2274 C   0  0  0  0  0  0  0  0  0  0  0  0
   -6.1518    0.4789   -0.0940 C   0  0  0  0  0  0  0  0  0  0  0  0
   -6.4041   -0.6876   -0.8064 C   0  0  0  0  0  0  0  0  0  0  0  0
   -5.3539   -1.4856   -1.1913 C   0  0  0  0  0  0  0  0  0  0  0  0
   -4.0714   -1.0922   -0.8508 C   0  0  0  0  0  0  0  0  0  0  0  0
   -2.7480   -2.1287   -1.3542 Cl  0  0  0  0  0  0  0  0  0  0  0  0
   -1.3278   -0.3127   -0.1592 N   0  0  0  0  0  0  0  0  0  0  0  0
   -0.2190    0.2920    0.2919 C   0  0  0  0  0  0  0  0  0  0  0  0
    6.6486   -1.1433   -1.7081 H   0  0  0  0  0  0  0  0  0  0  0  0
    5.0734   -0.4115   -2.0763 H   0  0  0  0  0  0  0  0  0  0  0  0
    6.3129    0.5208   -1.0652 H   0  0  0  0  0  0  0  0  0  0  0  0
    5.3275   -2.1796   -0.1497 H   0  0  0  0  0  0  0  0  0  0  0  0
    5.7756   -0.7435    0.8751 H   0  0  0  0  0  0  0  0  0  0  0  0
    3.1190   -2.4150   -1.0326 H   0  0  0  0  0  0  0  0  0  0  0  0
    0.6875   -1.8108   -0.8781 H   0  0  0  0  0  0  0  0  0  0  0  0
    4.1022    1.1013    1.1333 H   0  0  0  0  0  0  0  0  0  0  0  0
    2.3632    2.5094    1.8221 H   0  0  0  0  0  0  0  0  0  0  0  0
   -2.5497    2.2288    1.2445 H   0  0  0  0  0  0  0  0  0  0  0  0
   -4.6585    1.7310    0.7729 H   0  0  0  0  0  0  0  0  0  0  0  0
   -7.0016    1.0776    0.1895 H   0  0  0  0  0  0  0  0  0  0  0  0
   -7.4267   -0.9622   -1.0547 H   0  0  0  0  0  0  0  0  0  0  0  0
   -5.5258   -2.4130   -1.7552 H   0  0  0  0  0  0  0  0  0  0  0  0
  1  2  1  0
  2  3  1  0
  3  4  2  0
  4  5  1  0
  5  6  2  0
  6  7  1  0
  7  8  2  0
  7  9  1  0
  9 10  1  0
 10 11  2  0
 10 12  1  0
 12 13  1  0
 13 14  1  0
 14 15  1  0
 15 16  2  0
 16 17  1  0
 17 18  2  0
 18 19  1  0
 19 20  2  0
 20 21  1  0
 14 22  2  0
 22 23  1  0
  8  3  1  0
 23 12  2  0
 23  6  1  0
 20 15  1  0
  1 24  1  0
  1 25  1  0
  1 26  1  0
  2 27  1  0
  2 28  1  0
  4 29  1  0
  5 30  1  0
  8 31  1  0
  9 32  1  0
 13 33  1  0
 16 34  1  0
 17 35  1  0
 18 36  1  0
 19 37  1  0
M  END
$$$$
