@<TRIPOS>MOLECULE
*****
 37 40 0 0 0
SMALL
GASTEIGER

@<TRIPOS>ATOM
      1 C           5.8506   -0.4756   -1.3012 C.3     1  UNL1       -0.0613
      2 C           5.2340   -1.0714   -0.0594 C.3     1  UNL1       -0.0305
      3 C           3.7892   -0.7279    0.0232 C.ar    1  UNL1       -0.0456
      4 C           2.7968   -1.5149   -0.5262 C.ar    1  UNL1       -0.0578
      5 C           1.4594   -1.1963   -0.4494 C.ar    1  UNL1       -0.0503
      6 C           1.1011   -0.0340    0.2093 C.ar    1  UNL1        0.0260
      7 C           2.0554    0.7888    0.7768 C.ar    1  UNL1        0.0516
      8 C           3.3866    0.4235    0.6718 C.ar    1  UNL1       -0.0345
      9 N           1.6457    1.8950    1.3979 N.ar    1  UNL1       -0.3203
     10 C           0.3517    2.2528    1.5016 C.ar    1  UNL1        0.2748
     11 O          -0.0294    3.2920    2.0855 O.2     1  UNL1       -0.2656
     12 C          -0.6077    1.4472    0.9439 C.ar    1  UNL1        0.1322
     13 N          -1.9515    1.4663    0.8427 N.ar    1  UNL1       -0.3336
     14 C          -2.4064    0.4148    0.1815 C.ar    1  UNL1        0.1408
     15 C          -3.7897    0.0472   -0.1521 C.ar    1  UNL1        0.0356
     16 C          -4.8573    0.8384    0.2274 C.ar    1  UNL1       -0.0497
     17 C          -6.1518    0.4789   -0.0940 C.ar    1  UNL1       -0.0610
     18 C          -6.4041   -0.6876   -0.8064 C.ar    1  UNL1       -0.0603
     19 C          -5.3539   -1.4856   -1.1913 C.ar    1  UNL1       -0.0427
     20 C          -4.0714   -1.0922   -0.8508 C.ar    1  UNL1        0.0516
     21 CL         -2.7480   -2.1287   -1.3542 Cl      1  UNL1       -0.0828
     22 N          -1.3278   -0.3127   -0.1592 N.ar    1  UNL1       -0.2269
     23 C          -0.2190    0.2920    0.2919 C.ar    1  UNL1        0.1039
     24 H           6.6486   -1.1433   -1.7081 H       1  UNL1        0.0233
     25 H           5.0734   -0.4115   -2.0763 H       1  UNL1        0.0233
     26 H           6.3129    0.5208   -1.0652 H       1  UNL1        0.0233
     27 H           5.3275   -2.1796   -0.1497 H       1  UNL1        0.0311
     28 H           5.7756   -0.7435    0.8751 H       1  UNL1        0.0311
     29 H           3.1190   -2.4150   -1.0326 H       1  UNL1        0.0620
     30 H           0.6875   -1.8108   -0.8781 H       1  UNL1        0.0625
     31 H           4.1022    1.1013    1.1333 H       1  UNL1        0.0641
     32 H           2.3632    2.5094    1.8221 H       1  UNL1        0.1690
     33 H          -2.5497    2.2288    1.2445 H       1  UNL1        0.1675
     34 H          -4.6585    1.7310    0.7729 H       1  UNL1        0.0625
     35 H          -7.0016    1.0776    0.1895 H       1  UNL1        0.0618
     36 H          -7.4267   -0.9622   -1.0547 H       1  UNL1        0.0618
     37 H          -5.5258   -2.4130   -1.7552 H       1  UNL1        0.0632
@<TRIPOS>BOND
     1     1     2    1
     2     2     3    1
     3     3     4   ar
     4     4     5   ar
     5     5     6   ar
     6     6     7   ar
     7     7     8   ar
     8     7     9   ar
     9     9    10   ar
    10    10    11    2
    11    10    12   ar
    12    12    13   ar
    13    13    14   ar
    14    14    15    1
    15    15    16   ar
    16    16    17   ar
    17    17    18   ar
    18    18    19   ar
    19    19    20   ar
    20    20    21    1
    21    14    22   ar
    22    22    23   ar
    23     8     3   ar
    24    23    12   ar
    25    23     6   ar
    26    20    15   ar
    27     1    24    1
    28     1    25    1
    29     1    26    1
    30     2    27    1
    31     2    28    1
    32     4    29    1
    33     5    30    1
    34     8    31    1
    35     9    32    1
    36    13    33    1
    37    16    34    1
    38    17    35    1
    39    18    36    1
    40    19    37    1
