@<TRIPOS>MOLECULE
*****
 23 24 0 0 0
SMALL
GASTEIGER

@<TRIPOS>ATOM
      1 N           4.4661   -1.5053    0.0770 N.pl3   1  UNL1       -0.3262
      2 C           3.1524   -0.9404    0.0370 C.ar    1  UNL1        0.2341
      3 N           2.8125    0.3538    0.0175 N.ar    1  UNL1       -0.1967
      4 C           1.5188    0.7019   -0.0201 C.ar    1  UNL1        0.1478
      5 N           1.2387    2.0678   -0.0387 N.pl3   1  UNL1       -0.3413
      6 C           0.4823   -0.1812   -0.0409 C.ar    1  UNL1        0.1342
      7 N           0.9174   -1.4583   -0.0189 N.ar    1  UNL1       -0.1424
      8 N           2.1621   -1.8457    0.0177 N.ar    1  UNL1       -0.1128
      9 C          -0.9105    0.0704   -0.0804 C.ar    1  UNL1        0.0252
     10 C          -1.7746   -1.0229   -0.0949 C.ar    1  UNL1        0.0686
     11 CL         -1.1414   -2.6783   -0.0645 Cl      1  UNL1       -0.0814
     12 C          -3.1469   -0.9250   -0.1326 C.ar    1  UNL1        0.0599
     13 CL         -4.1788   -2.3348   -0.1489 Cl      1  UNL1       -0.0820
     14 C          -3.7583    0.3097   -0.1590 C.ar    1  UNL1       -0.0419
     15 C          -2.9566    1.4191   -0.1463 C.ar    1  UNL1       -0.0597
     16 C          -1.5978    1.2454   -0.1084 C.ar    1  UNL1       -0.0509
     17 H           4.7781   -2.2234   -0.6306 H       1  UNL1        0.1452
     18 H           4.8993   -1.0260    0.9074 H       1  UNL1        0.1452
     19 H           1.1271    2.6753    0.8274 H       1  UNL1        0.1438
     20 H           1.1658    2.3491   -1.0619 H       1  UNL1        0.1438
     21 H          -4.8166    0.3954   -0.1881 H       1  UNL1        0.0633
     22 H          -3.4135    2.3947   -0.1665 H       1  UNL1        0.0618
     23 H          -1.0255    2.1584   -0.1004 H       1  UNL1        0.0625
@<TRIPOS>BOND
     1     1     2    1
     2     2     3   ar
     3     3     4   ar
     4     4     5    1
     5     4     6   ar
     6     6     7   ar
     7     7     8   ar
     8     6     9    1
     9     9    10   ar
    10    10    11    1
    11    10    12   ar
    12    12    13    1
    13    12    14   ar
    14    14    15   ar
    15    15    16   ar
    16     8     2   ar
    17    16     9   ar
    18     1    17    1
    19     1    18    1
    20     5    19    1
    21     5    20    1
    22    14    21    1
    23    15    22    1
    24    16    23    1
