
     RDKit          3D

 68 72  0  0  0  0  0  0  0  0999 V2000
   -2.1302    5.9511    0.6201 C   0  0  0  0  0  0  0  0  0  0  0  0
   -1.8886    4.6446   -0.1242 C   0  0  0  0  0  0  0  0  0  0  0  0
   -1.5285    3.3987    1.0297 S   0  0  0  0  0  6  0  0  0  0  0  0
   -2.7192    3.2488    1.9679 O   0  0  0  0  0  0  0  0  0  0  0  0
   -0.3795    3.8683    1.9023 O   0  0  0  0  0  0  0  0  0  0  0  0
   -1.2170    1.8645    0.3636 N   0  0  0  0  0  0  0  0  0  0  0  0
   -2.1239    1.1633   -0.3624 C   0  0  0  0  0  0  0  0  0  0  0  0
   -1.5516   -0.0089   -0.7460 C   0  0  0  0  0  0  0  0  0  0  0  0
   -0.2708   -0.0222   -0.2436 C   0  0  0  0  0  0  0  0  0  0  0  0
    0.7700   -0.9420   -0.3064 C   0  0  0  0  0  0  0  0  0  0  0  0
    1.9956   -0.7303    0.2956 C   0  0  0  0  0  0  0  0  0  0  0  0
    3.0650   -1.7111    0.2130 C   0  0  0  0  0  0  0  0  0  0  0  0
    2.9136   -2.8673    0.7380 O   0  0  0  0  0  0  0  0  0  0  0  0
    4.2986   -1.4763   -0.4223 N   0  0  0  0  0  0  0  0  0  0  0  0
    4.5619   -0.2054   -1.0500 C   0  0  0  0  0  0  0  0  0  0  0  0
    6.0365    0.0910   -0.7619 C   0  0  0  0  0  0  0  0  0  0  0  0
    6.4487   -0.5127    0.5730 C   0  0  0  0  0  0  0  0  0  0  0  0
    7.8598   -0.0200    0.8439 C   0  0  0  0  0  0  0  0  0  0  0  0
    6.3783   -2.0164    0.5853 C   0  0  0  0  0  0  0  0  0  0  0  0
    5.3708   -2.4549   -0.4829 C   0  0  0  0  0  0  0  0  0  0  0  0
    2.1583    0.4703    0.9870 C   0  0  0  0  0  0  0  0  0  0  0  0
    1.1478    1.3980    1.0655 C   0  0  0  0  0  0  0  0  0  0  0  0
   -0.0542    1.1525    0.4554 C   0  0  0  0  0  0  0  0  0  0  0  0
   -2.2876   -1.0294   -1.5635 C   0  0  0  0  0  0  0  0  0  0  0  0
   -3.6852   -0.8898   -1.3534 N   0  0  0  0  0  0  0  0  0  0  0  0
   -4.3030   -2.0210   -0.8737 C   0  0  0  0  0  0  0  0  0  0  0  0
   -3.7127   -2.4260    0.4769 C   0  0  0  0  0  0  0  0  0  0  0  0
   -4.6556   -3.4003    1.1516 C   0  0  0  0  0  0  0  0  0  0  0  0
   -5.8206   -2.7831    1.5287 O   0  0  0  0  0  0  0  0  0  0  0  0
   -6.0908   -1.6387    0.7539 C   0  0  0  0  0  0  0  0  0  0  0  0
   -5.7900   -1.9650   -0.6734 C   0  0  0  0  0  0  0  0  0  0  0  0
   -4.2403    0.3742   -1.4165 C   0  0  0  0  0  0  0  0  0  0  0  0
   -3.5054    1.4735   -0.7431 C   0  0  0  0  0  0  0  0  0  0  0  0
   -2.8985    6.5740    0.1220 H   0  0  0  0  0  0  0  0  0  0  0  0
   -1.1553    6.5062    0.7475 H   0  0  0  0  0  0  0  0  0  0  0  0
   -2.4470    5.6910    1.6497 H   0  0  0  0  0  0  0  0  0  0  0  0
   -0.9749    4.8375   -0.7509 H   0  0  0  0  0  0  0  0  0  0  0  0
   -2.7962    4.4822   -0.7249 H   0  0  0  0  0  0  0  0  0  0  0  0
    0.5670   -1.8434   -0.8576 H   0  0  0  0  0  0  0  0  0  0  0  0
    3.9002    0.6113   -0.7733 H   0  0  0  0  0  0  0  0  0  0  0  0
    4.5211   -0.3697   -2.1648 H   0  0  0  0  0  0  0  0  0  0  0  0
    6.6808   -0.3689   -1.5289 H   0  0  0  0  0  0  0  0  0  0  0  0
    6.2372    1.1738   -0.7185 H   0  0  0  0  0  0  0  0  0  0  0  0
    5.7451   -0.0920    1.3326 H   0  0  0  0  0  0  0  0  0  0  0  0
    8.5475   -0.5634    0.1504 H   0  0  0  0  0  0  0  0  0  0  0  0
    8.1611   -0.1764    1.8983 H   0  0  0  0  0  0  0  0  0  0  0  0
    7.9199    1.0550    0.6238 H   0  0  0  0  0  0  0  0  0  0  0  0
    7.3748   -2.4338    0.3943 H   0  0  0  0  0  0  0  0  0  0  0  0
    6.0073   -2.3349    1.5942 H   0  0  0  0  0  0  0  0  0  0  0  0
    5.8720   -2.3476   -1.4751 H   0  0  0  0  0  0  0  0  0  0  0  0
    5.0126   -3.4797   -0.3041 H   0  0  0  0  0  0  0  0  0  0  0  0
    3.1208    0.6304    1.4635 H   0  0  0  0  0  0  0  0  0  0  0  0
    1.3242    2.3052    1.6080 H   0  0  0  0  0  0  0  0  0  0  0  0
   -1.9804   -2.0658   -1.3292 H   0  0  0  0  0  0  0  0  0  0  0  0
   -2.0431   -0.8829   -2.6560 H   0  0  0  0  0  0  0  0  0  0  0  0
   -4.1056   -2.9396   -1.5244 H   0  0  0  0  0  0  0  0  0  0  0  0
   -3.5659   -1.5563    1.1357 H   0  0  0  0  0  0  0  0  0  0  0  0
   -2.7451   -2.9299    0.2981 H   0  0  0  0  0  0  0  0  0  0  0  0
   -4.0899   -3.8700    1.9809 H   0  0  0  0  0  0  0  0  0  0  0  0
   -4.8552   -4.2423    0.4310 H   0  0  0  0  0  0  0  0  0  0  0  0
   -7.1787   -1.4288    0.8625 H   0  0  0  0  0  0  0  0  0  0  0  0
   -5.4583   -0.8393    1.1359 H   0  0  0  0  0  0  0  0  0  0  0  0
   -6.2000   -2.9812   -0.8514 H   0  0  0  0  0  0  0  0  0  0  0  0
   -6.3177   -1.3130   -1.3957 H   0  0  0  0  0  0  0  0  0  0  0  0
   -5.2574    0.3452   -0.9036 H   0  0  0  0  0  0  0  0  0  0  0  0
   -4.4635    0.6102   -2.4999 H   0  0  0  0  0  0  0  0  0  0  0  0
   -3.4340    2.3171   -1.4974 H   0  0  0  0  0  0  0  0  0  0  0  0
   -4.0751    1.9422    0.0988 H   0  0  0  0  0  0  0  0  0  0  0  0
  1  2  1  0
  2  3  1  0
  3  4  2  0
  3  5  2  0
  3  6  1  0
  6  7  1  0
  7  8  2  0
  8  9  1  0
  9 10  2  0
 10 11  1  0
 11 12  1  0
 12 13  2  0
 12 14  1  0
 14 15  1  0
 15 16  1  0
 16 17  1  0
 17 18  1  0
 17 19  1  0
 19 20  1  0
 11 21  2  0
 21 22  1  0
 22 23  2  0
  8 24  1  0
 24 25  1  0
 25 26  1  0
 26 27  1  0
 27 28  1  0
 28 29  1  0
 29 30  1  0
 30 31  1  0
 25 32  1  0
 32 33  1  0
 23  6  1  0
 31 26  1  0
 33  7  1  0
 23  9  1  0
 20 14  1  0
  1 34  1  0
  1 35  1  0
  1 36  1  0
  2 37  1  0
  2 38  1  0
 10 39  1  0
 15 40  1  0
 15 41  1  0
 16 42  1  0
 16 43  1  0
 17 44  1  0
 18 45  1  0
 18 46  1  0
 18 47  1  0
 19 48  1  0
 19 49  1  0
 20 50  1  0
 20 51  1  0
 21 52  1  0
 22 53  1  0
 24 54  1  0
 24 55  1  0
 26 56  1  0
 27 57  1  0
 27 58  1  0
 28 59  1  0
 28 60  1  0
 30 61  1  0
 30 62  1  0
 31 63  1  0
 31 64  1  0
 32 65  1  0
 32 66  1  0
 33 67  1  0
 33 68  1  0
M  END
$$$$
