@<TRIPOS>MOLECULE
*****
 68 72 0 0 0
SMALL
GASTEIGER

@<TRIPOS>ATOM
      1 C          -2.1302    5.9511    0.6201 C.3     1  UNL1       -0.0438
      2 C          -1.8886    4.6446   -0.1242 C.3     1  UNL1        0.0843
      3 S          -1.5285    3.3987    1.0297 S.O2    1  UNL1        0.0549
      4 O          -2.7192    3.2488    1.9679 O.2     1  UNL1       -0.1529
      5 O          -0.3795    3.8683    1.9023 O.2     1  UNL1       -0.1529
      6 N          -1.2170    1.8645    0.3636 N.ar    1  UNL1       -0.2191
      7 C          -2.1239    1.1633   -0.3624 C.ar    1  UNL1        0.0490
      8 C          -1.5516   -0.0089   -0.7460 C.ar    1  UNL1       -0.0031
      9 C          -0.2708   -0.0222   -0.2436 C.ar    1  UNL1        0.0070
     10 C           0.7700   -0.9420   -0.3064 C.ar    1  UNL1       -0.0401
     11 C           1.9956   -0.7303    0.2956 C.ar    1  UNL1        0.0376
     12 C           3.0650   -1.7111    0.2130 C.2     1  UNL1        0.2466
     13 O           2.9136   -2.8673    0.7380 O.2     1  UNL1       -0.2700
     14 N           4.2986   -1.4763   -0.4223 N.am    1  UNL1       -0.2975
     15 C           4.5619   -0.2054   -1.0500 C.3     1  UNL1        0.0152
     16 C           6.0365    0.0910   -0.7619 C.3     1  UNL1       -0.0345
     17 C           6.4487   -0.5127    0.5730 C.3     1  UNL1       -0.0410
     18 C           7.8598   -0.0200    0.8439 C.3     1  UNL1       -0.0623
     19 C           6.3783   -2.0164    0.5853 C.3     1  UNL1       -0.0345
     20 C           5.3708   -2.4549   -0.4829 C.3     1  UNL1        0.0152
     21 C           2.1583    0.4703    0.9870 C.ar    1  UNL1       -0.0476
     22 C           1.1478    1.3980    1.0655 C.ar    1  UNL1       -0.0352
     23 C          -0.0542    1.1525    0.4554 C.ar    1  UNL1        0.0725
     24 C          -2.2876   -1.0294   -1.5635 C.3     1  UNL1        0.0266
     25 N          -3.6852   -0.8898   -1.3534 N.3     1  UNL1       -0.2946
     26 C          -4.3030   -2.0210   -0.8737 C.3     1  UNL1        0.0149
     27 C          -3.7127   -2.4260    0.4769 C.3     1  UNL1       -0.0137
     28 C          -4.6556   -3.4003    1.1516 C.3     1  UNL1        0.0491
     29 O          -5.8206   -2.7831    1.5287 O.3     1  UNL1       -0.3797
     30 C          -6.0908   -1.6387    0.7539 C.3     1  UNL1        0.0491
     31 C          -5.7900   -1.9650   -0.6734 C.3     1  UNL1       -0.0137
     32 C          -4.2403    0.3742   -1.4165 C.3     1  UNL1        0.0049
     33 C          -3.5054    1.4735   -0.7431 C.3     1  UNL1        0.0026
     34 H          -2.8985    6.5740    0.1220 H       1  UNL1        0.0246
     35 H          -1.1553    6.5062    0.7475 H       1  UNL1        0.0246
     36 H          -2.4470    5.6910    1.6497 H       1  UNL1        0.0246
     37 H          -0.9749    4.8375   -0.7509 H       1  UNL1        0.0518
     38 H          -2.7962    4.4822   -0.7249 H       1  UNL1        0.0518
     39 H           0.5670   -1.8434   -0.8576 H       1  UNL1        0.0632
     40 H           3.9002    0.6113   -0.7733 H       1  UNL1        0.0465
     41 H           4.5211   -0.3697   -2.1648 H       1  UNL1        0.0465
     42 H           6.6808   -0.3689   -1.5289 H       1  UNL1        0.0283
     43 H           6.2372    1.1738   -0.7185 H       1  UNL1        0.0283
     44 H           5.7451   -0.0920    1.3326 H       1  UNL1        0.0299
     45 H           8.5475   -0.5634    0.1504 H       1  UNL1        0.0232
     46 H           8.1611   -0.1764    1.8983 H       1  UNL1        0.0232
     47 H           7.9199    1.0550    0.6238 H       1  UNL1        0.0232
     48 H           7.3748   -2.4338    0.3943 H       1  UNL1        0.0283
     49 H           6.0073   -2.3349    1.5942 H       1  UNL1        0.0283
     50 H           5.8720   -2.3476   -1.4751 H       1  UNL1        0.0465
     51 H           5.0126   -3.4797   -0.3041 H       1  UNL1        0.0465
     52 H           3.1208    0.6304    1.4635 H       1  UNL1        0.0626
     53 H           1.3242    2.3052    1.6080 H       1  UNL1        0.0639
     54 H          -1.9804   -2.0658   -1.3292 H       1  UNL1        0.0476
     55 H          -2.0431   -0.8829   -2.6560 H       1  UNL1        0.0476
     56 H          -4.1056   -2.9396   -1.5244 H       1  UNL1        0.0464
     57 H          -3.5659   -1.5563    1.1357 H       1  UNL1        0.0302
     58 H          -2.7451   -2.9299    0.2981 H       1  UNL1        0.0302
     59 H          -4.0899   -3.8700    1.9809 H       1  UNL1        0.0560
     60 H          -4.8552   -4.2423    0.4310 H       1  UNL1        0.0560
     61 H          -7.1787   -1.4288    0.8625 H       1  UNL1        0.0560
     62 H          -5.4583   -0.8393    1.1359 H       1  UNL1        0.0560
     63 H          -6.2000   -2.9812   -0.8514 H       1  UNL1        0.0302
     64 H          -6.3177   -1.3130   -1.3957 H       1  UNL1        0.0302
     65 H          -5.2574    0.3452   -0.9036 H       1  UNL1        0.0430
     66 H          -4.4635    0.6102   -2.4999 H       1  UNL1        0.0430
     67 H          -3.4340    2.3171   -1.4974 H       1  UNL1        0.0341
     68 H          -4.0751    1.9422    0.0988 H       1  UNL1        0.0341
@<TRIPOS>BOND
     1     1     2    1
     2     2     3    1
     3     3     4    2
     4     3     5    2
     5     3     6    1
     6     6     7   ar
     7     7     8   ar
     8     8     9   ar
     9     9    10   ar
    10    10    11   ar
    11    11    12    1
    12    12    13    2
    13    12    14   am
    14    14    15    1
    15    15    16    1
    16    16    17    1
    17    17    18    1
    18    17    19    1
    19    19    20    1
    20    11    21   ar
    21    21    22   ar
    22    22    23   ar
    23     8    24    1
    24    24    25    1
    25    25    26    1
    26    26    27    1
    27    27    28    1
    28    28    29    1
    29    29    30    1
    30    30    31    1
    31    25    32    1
    32    32    33    1
    33    23     6   ar
    34    31    26    1
    35    33     7    1
    36    23     9   ar
    37    20    14    1
    38     1    34    1
    39     1    35    1
    40     1    36    1
    41     2    37    1
    42     2    38    1
    43    10    39    1
    44    15    40    1
    45    15    41    1
    46    16    42    1
    47    16    43    1
    48    17    44    1
    49    18    45    1
    50    18    46    1
    51    18    47    1
    52    19    48    1
    53    19    49    1
    54    20    50    1
    55    20    51    1
    56    21    52    1
    57    22    53    1
    58    24    54    1
    59    24    55    1
    60    26    56    1
    61    27    57    1
    62    27    58    1
    63    28    59    1
    64    28    60    1
    65    30    61    1
    66    30    62    1
    67    31    63    1
    68    31    64    1
    69    32    65    1
    70    32    66    1
    71    33    67    1
    72    33    68    1
