
     RDKit          3D

 53 56  0  0  0  0  0  0  0  0999 V2000
    1.3203    0.4942   -0.6877 C   0  0  2  0  0  0  0  0  0  0  0  0
    2.2991    0.6522   -1.8083 C   0  0  0  0  0  0  0  0  0  0  0  0
    3.5469    1.0484   -1.0152 C   0  0  0  0  0  0  0  0  0  0  0  0
    3.3589    0.4885    0.3830 C   0  0  1  0  0  0  0  0  0  0  0  0
    4.4699   -0.3042    0.6581 O   0  0  0  0  0  0  0  0  0  0  0  0
    3.2306    1.4858    1.4101 C   0  0  0  0  0  0  0  0  0  0  0  0
    3.1301    2.3281    2.2494 C   0  0  0  0  0  0  0  0  0  0  0  0
    2.0768   -0.3812    0.2650 C   0  0  2  0  0  0  0  0  0  0  0  0
    2.5760   -1.6807   -0.2314 C   0  0  0  0  0  0  0  0  0  0  0  0
    1.6251   -2.6971   -0.7283 C   0  0  0  0  0  0  0  0  0  0  0  0
    1.3461   -0.4328    1.5569 C   0  0  0  0  0  0  0  0  0  0  0  0
   -0.0047    0.1364    1.5260 C   0  0  0  0  0  0  0  0  0  0  0  0
   -0.5016    0.3804    2.7269 C   0  0  0  0  0  0  0  0  0  0  0  0
   -0.8112    0.4420    0.3229 C   0  0  2  0  0  0  0  0  0  0  0  0
   -2.0909   -0.3215    0.2463 C   0  0  1  0  0  0  0  0  0  0  0  0
   -2.8668   -0.3640    1.5326 C   0  0  0  0  0  0  0  0  0  0  0  0
   -4.2788   -0.8312    1.1600 C   0  0  0  0  0  0  0  0  0  0  0  0
   -4.9044    0.4137    0.5187 C   0  0  0  0  0  0  0  0  0  0  0  0
   -4.1689    0.6628   -0.7430 C   0  0  0  0  0  0  0  0  0  0  0  0
   -2.8845    0.3237   -0.8579 C   0  0  0  0  0  0  0  0  0  0  0  0
   -2.2027    0.5894   -2.1219 C   0  0  0  0  0  0  0  0  0  0  0  0
   -0.7429    0.7845   -2.0650 C   0  0  0  0  0  0  0  0  0  0  0  0
   -0.0292    0.0482   -0.9499 C   0  0  1  0  0  0  0  0  0  0  0  0
    1.3060    1.5083   -0.1774 H   0  0  0  0  0  0  0  0  0  0  0  0
    2.0196    1.4505   -2.5282 H   0  0  0  0  0  0  0  0  0  0  0  0
    2.5412   -0.2467   -2.3667 H   0  0  0  0  0  0  0  0  0  0  0  0
    3.4998    2.1684   -0.9054 H   0  0  0  0  0  0  0  0  0  0  0  0
    4.4767    0.7097   -1.5043 H   0  0  0  0  0  0  0  0  0  0  0  0
    5.0819   -0.3962   -0.1085 H   0  0  0  0  0  0  0  0  0  0  0  0
    3.0559    3.0814    3.0038 H   0  0  0  0  0  0  0  0  0  0  0  0
    3.1926   -2.2123    0.5654 H   0  0  0  0  0  0  0  0  0  0  0  0
    3.3573   -1.5567   -1.0472 H   0  0  0  0  0  0  0  0  0  0  0  0
    0.7176   -2.8703   -0.1287 H   0  0  0  0  0  0  0  0  0  0  0  0
    1.3375   -2.6006   -1.7944 H   0  0  0  0  0  0  0  0  0  0  0  0
    2.1233   -3.7337   -0.7118 H   0  0  0  0  0  0  0  0  0  0  0  0
    1.9499    0.1558    2.2986 H   0  0  0  0  0  0  0  0  0  0  0  0
    1.3273   -1.4620    1.9975 H   0  0  0  0  0  0  0  0  0  0  0  0
    0.4566   -0.0150    3.0420 H   0  0  0  0  0  0  0  0  0  0  0  0
   -1.1523    0.6779    3.5127 H   0  0  0  0  0  0  0  0  0  0  0  0
   -1.0342    1.5221    0.2097 H   0  0  0  0  0  0  0  0  0  0  0  0
   -1.8937   -1.3710   -0.0732 H   0  0  0  0  0  0  0  0  0  0  0  0
   -2.4037   -1.0999    2.1987 H   0  0  0  0  0  0  0  0  0  0  0  0
   -2.9684    0.6534    1.9495 H   0  0  0  0  0  0  0  0  0  0  0  0
   -4.8457   -1.2108    2.0081 H   0  0  0  0  0  0  0  0  0  0  0  0
   -4.2258   -1.5891    0.3550 H   0  0  0  0  0  0  0  0  0  0  0  0
   -5.9849    0.3303    0.3939 H   0  0  0  0  0  0  0  0  0  0  0  0
   -4.6565    1.2364    1.2499 H   0  0  0  0  0  0  0  0  0  0  0  0
   -4.6698    1.1261   -1.5908 H   0  0  0  0  0  0  0  0  0  0  0  0
   -2.5057   -0.2359   -2.8301 H   0  0  0  0  0  0  0  0  0  0  0  0
   -2.6495    1.5029   -2.6024 H   0  0  0  0  0  0  0  0  0  0  0  0
   -0.3015    0.3756   -3.0137 H   0  0  0  0  0  0  0  0  0  0  0  0
   -0.4234    1.8478   -2.0216 H   0  0  0  0  0  0  0  0  0  0  0  0
   -0.2213   -1.0123   -1.1326 H   0  0  0  0  0  0  0  0  0  0  0  0
  1  2  1  0
  2  3  1  0
  3  4  1  0
  4  5  1  0
  4  6  1  1
  6  7  3  0
  4  8  1  0
  8  9  1  6
  9 10  1  0
  8 11  1  0
 11 12  1  0
 12 13  2  0
 12 14  1  0
 14 15  1  0
 15 16  1  0
 16 17  1  0
 17 18  1  0
 18 19  1  0
 19 20  2  0
 20 21  1  0
 21 22  1  0
 22 23  1  0
  8  1  1  0
 23 14  1  0
 23  1  1  0
 20 15  1  0
  1 24  1  1
  2 25  1  0
  2 26  1  0
  3 27  1  0
  3 28  1  0
  5 29  1  0
  7 30  1  0
  9 31  1  0
  9 32  1  0
 10 33  1  0
 10 34  1  0
 10 35  1  0
 11 36  1  0
 11 37  1  0
 13 38  1  0
 13 39  1  0
 14 40  1  6
 15 41  1  6
 16 42  1  0
 16 43  1  0
 17 44  1  0
 17 45  1  0
 18 46  1  0
 18 47  1  0
 19 48  1  0
 21 49  1  0
 21 50  1  0
 22 51  1  0
 22 52  1  0
 23 53  1  6
M  END
$$$$
