@<TRIPOS>MOLECULE
*****
 53 56 0 0 0
SMALL
GASTEIGER

@<TRIPOS>ATOM
      1 C           1.3203    0.4942   -0.6877 C.3     1  UNL1       -0.0280
      2 C           2.2991    0.6522   -1.8083 C.3     1  UNL1       -0.0458
      3 C           3.5469    1.0484   -1.0152 C.3     1  UNL1       -0.0118
      4 C           3.3589    0.4885    0.3830 C.3     1  UNL1        0.1322
      5 O           4.4699   -0.3042    0.6581 O.3     1  UNL1       -0.3760
      6 C           3.2306    1.4858    1.4101 C.1     1  UNL1       -0.0704
      7 C           3.1301    2.3281    2.2494 C.1     1  UNL1       -0.1163
      8 C           2.0768   -0.3812    0.2650 C.3     1  UNL1        0.0173
      9 C           2.5760   -1.6807   -0.2314 C.3     1  UNL1       -0.0461
     10 C           1.6251   -2.6971   -0.7283 C.3     1  UNL1       -0.0646
     11 C           1.3461   -0.4328    1.5569 C.3     1  UNL1       -0.0222
     12 C          -0.0047    0.1364    1.5260 C.2     1  UNL1       -0.0720
     13 C          -0.5016    0.3804    2.7269 C.2     1  UNL1       -0.0991
     14 C          -0.8112    0.4420    0.3229 C.3     1  UNL1       -0.0105
     15 C          -2.0909   -0.3215    0.2463 C.3     1  UNL1       -0.0131
     16 C          -2.8668   -0.3640    1.5326 C.3     1  UNL1       -0.0457
     17 C          -4.2788   -0.8312    1.1600 C.3     1  UNL1       -0.0491
     18 C          -4.9044    0.4137    0.5187 C.3     1  UNL1       -0.0345
     19 C          -4.1689    0.6628   -0.7430 C.2     1  UNL1       -0.0845
     20 C          -2.8845    0.3237   -0.8579 C.2     1  UNL1       -0.0698
     21 C          -2.2027    0.5894   -2.1219 C.3     1  UNL1       -0.0312
     22 C          -0.7429    0.7845   -2.0650 C.3     1  UNL1       -0.0457
     23 C          -0.0292    0.0482   -0.9499 C.3     1  UNL1       -0.0302
     24 H           1.3060    1.5083   -0.1774 H       1  UNL1        0.0310
     25 H           2.0196    1.4505   -2.5282 H       1  UNL1        0.0269
     26 H           2.5412   -0.2467   -2.3667 H       1  UNL1        0.0269
     27 H           3.4998    2.1684   -0.9054 H       1  UNL1        0.0303
     28 H           4.4767    0.7097   -1.5043 H       1  UNL1        0.0303
     29 H           5.0819   -0.3962   -0.1085 H       1  UNL1        0.2114
     30 H           3.0559    3.0814    3.0038 H       1  UNL1        0.1229
     31 H           3.1926   -2.2123    0.5654 H       1  UNL1        0.0269
     32 H           3.3573   -1.5567   -1.0472 H       1  UNL1        0.0269
     33 H           0.7176   -2.8703   -0.1287 H       1  UNL1        0.0230
     34 H           1.3375   -2.6006   -1.7944 H       1  UNL1        0.0230
     35 H           2.1233   -3.7337   -0.7118 H       1  UNL1        0.0230
     36 H           1.9499    0.1558    2.2986 H       1  UNL1        0.0317
     37 H           1.3273   -1.4620    1.9975 H       1  UNL1        0.0317
     38 H           0.4566   -0.0150    3.0420 H       1  UNL1        0.0534
     39 H          -1.1523    0.6779    3.5127 H       1  UNL1        0.0534
     40 H          -1.0342    1.5221    0.2097 H       1  UNL1        0.0354
     41 H          -1.8937   -1.3710   -0.0732 H       1  UNL1        0.0351
     42 H          -2.4037   -1.0999    2.1987 H       1  UNL1        0.0271
     43 H          -2.9684    0.6534    1.9495 H       1  UNL1        0.0271
     44 H          -4.8457   -1.2108    2.0081 H       1  UNL1        0.0268
     45 H          -4.2258   -1.5891    0.3550 H       1  UNL1        0.0268
     46 H          -5.9849    0.3303    0.3939 H       1  UNL1        0.0307
     47 H          -4.6565    1.2364    1.2499 H       1  UNL1        0.0307
     48 H          -4.6698    1.1261   -1.5908 H       1  UNL1        0.0572
     49 H          -2.5057   -0.2359   -2.8301 H       1  UNL1        0.0310
     50 H          -2.6495    1.5029   -2.6024 H       1  UNL1        0.0310
     51 H          -0.3015    0.3756   -3.0137 H       1  UNL1        0.0271
     52 H          -0.4234    1.8478   -2.0216 H       1  UNL1        0.0271
     53 H          -0.2213   -1.0123   -1.1326 H       1  UNL1        0.0310
@<TRIPOS>BOND
     1     1     2    1
     2     2     3    1
     3     3     4    1
     4     4     5    1
     5     4     6    1
     6     6     7    3
     7     4     8    1
     8     8     9    1
     9     9    10    1
    10     8    11    1
    11    11    12    1
    12    12    13    2
    13    12    14    1
    14    14    15    1
    15    15    16    1
    16    16    17    1
    17    17    18    1
    18    18    19    1
    19    19    20    2
    20    20    21    1
    21    21    22    1
    22    22    23    1
    23     8     1    1
    24    23    14    1
    25    23     1    1
    26    20    15    1
    27     1    24    1
    28     2    25    1
    29     2    26    1
    30     3    27    1
    31     3    28    1
    32     5    29    1
    33     7    30    1
    34     9    31    1
    35     9    32    1
    36    10    33    1
    37    10    34    1
    38    10    35    1
    39    11    36    1
    40    11    37    1
    41    13    38    1
    42    13    39    1
    43    14    40    1
    44    15    41    1
    45    16    42    1
    46    16    43    1
    47    17    44    1
    48    17    45    1
    49    18    46    1
    50    18    47    1
    51    19    48    1
    52    21    49    1
    53    21    50    1
    54    22    51    1
    55    22    52    1
    56    23    53    1
