@<TRIPOS>MOLECULE
*****
 58 60 0 0 0
SMALL
GASTEIGER

@<TRIPOS>ATOM
      1 C          -4.9873   -0.6633   -1.2862 C.3     1  UNL1       -0.0612
      2 C          -4.3299    0.2541   -0.2477 C.3     1  UNL1       -0.0294
      3 C          -2.9401   -0.2634   -0.0494 C.2     1  UNL1       -0.0322
      4 C          -1.8590    0.4691   -0.1617 C.2     1  UNL1       -0.0070
      5 C          -1.8904    1.9123   -0.4914 C.ar    1  UNL1       -0.0168
      6 C          -2.7004    2.7961    0.2230 C.ar    1  UNL1       -0.0506
      7 C          -2.8480    4.1407    0.0149 C.ar    1  UNL1       -0.0196
      8 C          -2.1118    4.6723   -1.0137 C.ar    1  UNL1        0.1169
      9 O          -2.2315    6.0350   -1.2606 O.3     1  UNL1       -0.5068
     10 C          -1.2857    3.8396   -1.7606 C.ar    1  UNL1       -0.0196
     11 C          -1.1763    2.4812   -1.5046 C.ar    1  UNL1       -0.0506
     12 C          -0.4701    0.0905   -0.0256 C.ar    1  UNL1       -0.0168
     13 C           0.3365   -0.8513   -0.6089 C.ar    1  UNL1       -0.0506
     14 C           1.6513   -1.1022   -0.3205 C.ar    1  UNL1       -0.0194
     15 C           2.2820   -0.3603    0.6481 C.ar    1  UNL1        0.1206
     16 O           3.5924   -0.5430    0.9975 O.3     1  UNL1       -0.4907
     17 C           4.3551   -1.5302    0.3422 C.3     1  UNL1        0.1022
     18 C           5.7554   -1.5646    0.8718 C.3     1  UNL1        0.0325
     19 N           6.4090   -0.3075    0.6854 N.3     1  UNL1       -0.3051
     20 C           6.6402   -0.0341   -0.7092 C.3     1  UNL1       -0.0129
     21 C           5.7885    0.8110    1.3344 C.3     1  UNL1       -0.0129
     22 C           1.5876    0.6214    1.3141 C.ar    1  UNL1       -0.0194
     23 C           0.2485    0.8086    0.9548 C.ar    1  UNL1       -0.0506
     24 C          -2.9747   -1.6794    0.2635 C.ar    1  UNL1       -0.0213
     25 C          -2.4713   -2.8426   -0.2463 C.ar    1  UNL1       -0.0543
     26 C          -2.6340   -4.0697    0.3268 C.ar    1  UNL1       -0.0612
     27 C          -3.3371   -4.2603    1.4963 C.ar    1  UNL1       -0.0617
     28 C          -3.8772   -3.1385    2.0694 C.ar    1  UNL1       -0.0612
     29 C          -3.6930   -1.8915    1.4606 C.ar    1  UNL1       -0.0543
     30 H          -5.7858   -0.1471   -1.8472 H       1  UNL1        0.0233
     31 H          -4.1928   -1.0429   -1.9485 H       1  UNL1        0.0233
     32 H          -5.4634   -1.5315   -0.7866 H       1  UNL1        0.0233
     33 H          -4.9085    0.1743    0.6796 H       1  UNL1        0.0311
     34 H          -4.3188    1.2728   -0.6828 H       1  UNL1        0.0311
     35 H          -3.2808    2.3797    1.0639 H       1  UNL1        0.0625
     36 H          -3.5165    4.7227    0.6429 H       1  UNL1        0.0654
     37 H          -3.1792    6.3827   -1.3823 H       1  UNL1        0.2921
     38 H          -0.6956    4.2712   -2.5862 H       1  UNL1        0.0654
     39 H          -0.5242    1.8516   -2.0985 H       1  UNL1        0.0625
     40 H          -0.1399   -1.4033   -1.3742 H       1  UNL1        0.0625
     41 H           2.1536   -1.8765   -0.8658 H       1  UNL1        0.0654
     42 H           3.8829   -2.5536    0.3887 H       1  UNL1        0.0709
     43 H           4.3128   -1.2720   -0.7428 H       1  UNL1        0.0709
     44 H           5.6821   -1.7891    1.9688 H       1  UNL1        0.0460
     45 H           6.3431   -2.3355    0.3326 H       1  UNL1        0.0460
     46 H           6.4959   -0.9676   -1.2915 H       1  UNL1        0.0391
     47 H           5.9705    0.7758   -1.0775 H       1  UNL1        0.0391
     48 H           7.6771    0.3519   -0.8047 H       1  UNL1        0.0391
     49 H           6.6252    1.5158    1.6100 H       1  UNL1        0.0391
     50 H           5.3318    0.4886    2.3086 H       1  UNL1        0.0391
     51 H           5.0596    1.2832    0.6696 H       1  UNL1        0.0391
     52 H           2.0482    1.2228    2.0763 H       1  UNL1        0.0654
     53 H          -0.2451    1.6035    1.5210 H       1  UNL1        0.0625
     54 H          -1.9599   -2.6696   -1.1546 H       1  UNL1        0.0624
     55 H          -2.1583   -4.8733   -0.2279 H       1  UNL1        0.0618
     56 H          -3.4236   -5.2627    1.8820 H       1  UNL1        0.0618
     57 H          -4.4280   -3.2898    2.9855 H       1  UNL1        0.0618
     58 H          -4.1913   -1.1123    2.0615 H       1  UNL1        0.0624
@<TRIPOS>BOND
     1     1     2    1
     2     2     3    1
     3     3     4    2
     4     4     5    1
     5     5     6   ar
     6     6     7   ar
     7     7     8   ar
     8     8     9    1
     9     8    10   ar
    10    10    11   ar
    11     4    12    1
    12    12    13   ar
    13    13    14   ar
    14    14    15   ar
    15    15    16    1
    16    16    17    1
    17    17    18    1
    18    18    19    1
    19    19    20    1
    20    19    21    1
    21    15    22   ar
    22    22    23   ar
    23     3    24    1
    24    24    25   ar
    25    25    26   ar
    26    26    27   ar
    27    27    28   ar
    28    28    29   ar
    29    11     5   ar
    30    23    12   ar
    31    29    24   ar
    32     1    30    1
    33     1    31    1
    34     1    32    1
    35     2    33    1
    36     2    34    1
    37     6    35    1
    38     7    36    1
    39     9    37    1
    40    10    38    1
    41    11    39    1
    42    13    40    1
    43    14    41    1
    44    17    42    1
    45    17    43    1
    46    18    44    1
    47    18    45    1
    48    20    46    1
    49    20    47    1
    50    20    48    1
    51    21    49    1
    52    21    50    1
    53    21    51    1
    54    22    52    1
    55    23    53    1
    56    25    54    1
    57    26    55    1
    58    27    56    1
    59    28    57    1
    60    29    58    1
