@<TRIPOS>MOLECULE
*****
 30 30 0 0 0
SMALL
GASTEIGER

@<TRIPOS>ATOM
      1 N          -3.3320   -1.0399   -0.2166 N.3     1  PHE1       -0.3254
      2 CA         -2.2433   -0.1251    0.2244 C.3     1  PHE1        0.0285
      3 C          -2.4048    1.1186   -0.5659 C.3     1  PHE1        0.0594
      4 O          -3.7246    1.5811   -0.2646 O.3     1  PHE1       -0.3935
      5 CB         -1.0005   -0.9020    0.1043 C.3     1  PHE1       -0.0328
      6 CG          0.2972   -0.2965    0.4618 C.3     1  PHE1       -0.0396
      7 CD1         1.4145   -1.3516    0.2669 C.3     1  PHE1       -0.0502
      8 CE1         2.7032   -0.8029    0.8332 C.3     1  PHE1       -0.0528
      9 CZ          2.9376    0.6175    0.3879 C.3     1  PHE1       -0.0530
     10 CE2         2.1094    0.8213   -0.8532 C.3     1  PHE1       -0.0528
     11 CD2         0.6442    0.9000   -0.4376 C.3     1  PHE1       -0.0502
     12 H1         -3.1883   -1.1803   -1.2573 H       1  PHE1        0.1185
     13 H2         -3.0992   -1.9582    0.2245 H       1  PHE1        0.1185
     14 HA         -2.4836    0.1134    1.2813 H       1  PHE1        0.0481
     15 H1         -2.3572    1.0409   -1.6470 H       1  PHE1        0.0572
     16 H2         -1.7551    1.9568   -0.1822 H       1  PHE1        0.0572
     17 H          -3.7083    2.0548    0.6015 H       1  PHE1        0.2095
     18 HB1        -1.1361   -1.8295    0.7427 H       1  PHE1        0.0284
     19 HB2        -0.8907   -1.3488   -0.9318 H       1  PHE1        0.0284
     20 HG          0.4042    0.0534    1.4965 H       1  PHE1        0.0301
     21 HD11        1.1198   -2.2143    0.8778 H       1  PHE1        0.0268
     22 HD12        1.5130   -1.6670   -0.7697 H       1  PHE1        0.0268
     23 HE11        2.6940   -0.8219    1.9406 H       1  PHE1        0.0265
     24 HE12        3.5389   -1.4236    0.4862 H       1  PHE1        0.0265
     25 HZ1         3.9963    0.7432    0.1190 H       1  PHE1        0.0265
     26 HZ2         2.6481    1.3556    1.1682 H       1  PHE1        0.0265
     27 HE21        2.4225    1.7698   -1.3002 H       1  PHE1        0.0265
     28 HE22        2.2916    0.0326   -1.5810 H       1  PHE1        0.0265
     29 HD21        0.5635    1.8431    0.1250 H       1  PHE1        0.0268
     30 HD22        0.0256    0.9594   -1.3345 H       1  PHE1        0.0268
@<TRIPOS>BOND
     1     1     2    1
     2     2     3    1
     3     3     4    1
     4     2     5    1
     5     5     6    1
     6     6     7    1
     7     7     8    1
     8     8     9    1
     9     9    10    1
    10    10    11    1
    11    11     6    1
    12     1    12    1
    13     1    13    1
    14     2    14    1
    15     3    15    1
    16     3    16    1
    17     4    17    1
    18     5    18    1
    19     5    19    1
    20     6    20    1
    21     7    21    1
    22     7    22    1
    23     8    23    1
    24     8    24    1
    25     9    25    1
    26     9    26    1
    27    10    27    1
    28    10    28    1
    29    11    29    1
    30    11    30    1
