@<TRIPOS>MOLECULE
*****
 30 31 0 0 0
SMALL
GASTEIGER

@<TRIPOS>ATOM
      1 C           3.5517    2.0464   -0.8360 C.3     1  UNL1        0.0790
      2 O           2.2157    2.0153   -0.6734 O.3     1  UNL1       -0.4913
      3 C           1.1516    1.4013   -0.2858 C.ar    1  UNL1        0.1656
      4 C           0.0565    0.7695    0.1131 C.ar    1  UNL1       -0.0128
      5 C          -0.6481   -0.2259    0.6337 C.ar    1  UNL1       -0.0388
      6 C          -2.1037   -0.1467    0.7643 C.3     1  UNL1       -0.0124
      7 C          -2.8355   -0.6088   -0.4974 C.3     1  UNL1        0.0060
      8 C          -4.3217   -0.5246   -0.2780 C.3     1  UNL1       -0.0496
      9 N          -2.5027    0.3317   -1.5664 N.3     1  UNL1       -0.3272
     10 C           0.1699   -1.2528    1.0129 C.ar    1  UNL1       -0.0127
     11 C           1.4938   -1.0264    0.7720 C.ar    1  UNL1        0.1702
     12 C           2.0144    0.1724    0.1777 C.ar    1  UNL1        0.2075
     13 O           3.4004   -0.2039    0.2081 O.3     1  UNL1       -0.4489
     14 C           3.6410   -1.5428    0.3363 C.3     1  UNL1        0.2334
     15 O           2.4992   -1.9843    1.0968 O.3     1  UNL1       -0.4525
     16 H           3.9512    1.2318   -1.5052 H       1  UNL1        0.0660
     17 H           4.1279    1.9808    0.1233 H       1  UNL1        0.0660
     18 H           3.8702    3.0495   -1.2530 H       1  UNL1        0.0660
     19 H          -0.5540    1.6942   -0.2311 H       1  UNL1        0.0658
     20 H          -2.4759   -0.6843    1.6398 H       1  UNL1        0.0328
     21 H          -2.4310    0.9255    0.8975 H       1  UNL1        0.0328
     22 H          -2.5536   -1.6037   -0.7793 H       1  UNL1        0.0459
     23 H          -4.4972    0.0660    0.6571 H       1  UNL1        0.0245
     24 H          -4.8090    0.0403   -1.0919 H       1  UNL1        0.0245
     25 H          -4.7848   -1.5454   -0.1900 H       1  UNL1        0.0245
     26 H          -2.9918    0.1313   -2.4577 H       1  UNL1        0.1185
     27 H          -2.6427    1.3234   -1.2571 H       1  UNL1        0.1185
     28 H          -0.2630   -2.1205    1.4505 H       1  UNL1        0.0658
     29 H           3.7083   -2.0468   -0.6458 H       1  UNL1        0.1166
     30 H           4.5627   -1.6625    0.9507 H       1  UNL1        0.1166
@<TRIPOS>BOND
     1     1     2    1
     2     2     3    1
     3     3     4   ar
     4     4     5   ar
     5     5     6    1
     6     6     7    1
     7     7     8    1
     8     7     9    1
     9     5    10   ar
    10    10    11   ar
    11    11    12   ar
    12    12    13    1
    13    13    14    1
    14    14    15    1
    15    12     3   ar
    16    15    11    1
    17     1    16    1
    18     1    17    1
    19     1    18    1
    20     4    19    1
    21     6    20    1
    22     6    21    1
    23     7    22    1
    24     8    23    1
    25     8    24    1
    26     8    25    1
    27     9    26    1
    28     9    27    1
    29    10    28    1
    30    14    29    1
    31    14    30    1
