@<TRIPOS>MOLECULE
*****
 41 44 0 0 0
SMALL
GASTEIGER

@<TRIPOS>ATOM
      1 N          -5.4482    2.4222    0.3746 N.pl3   1  UNL1       -0.3134
      2 C          -4.4670    1.4311    0.7632 C.2     1  UNL1        0.2764
      3 N          -3.3397    1.3832    0.1467 N.2     1  UNL1       -0.2194
      4 C          -2.3737    0.3678    0.5685 C.3     1  UNL1        0.1603
      5 C          -1.4016    0.0948   -0.5138 C.ar    1  UNL1        0.0228
      6 C          -0.0604    0.2781   -0.3296 C.ar    1  UNL1       -0.0321
      7 C           0.8684    0.0125   -1.3490 C.ar    1  UNL1        0.0343
      8 N           2.2653    0.2032   -1.1581 N.am    1  UNL1       -0.2789
      9 C           3.1001   -0.8367   -0.6679 C.2     1  UNL1        0.2855
     10 O           2.5574   -1.9608   -0.3998 O.2     1  UNL1       -0.2664
     11 C           4.5206   -0.6152   -0.4829 C.ar    1  UNL1        0.2161
     12 N           5.0459    0.5677   -0.7733 N.ar    1  UNL1       -0.2304
     13 C           6.3406    0.8794   -0.6404 C.ar    1  UNL1        0.0499
     14 C           7.2112   -0.0810   -0.1697 C.ar    1  UNL1        0.0771
     15 CL          8.9129    0.2154    0.0419 Cl      1  UNL1       -0.0804
     16 C           6.6648   -1.3278    0.1378 C.ar    1  UNL1        0.0499
     17 N           5.3522   -1.5686   -0.0215 N.ar    1  UNL1       -0.2304
     18 C           0.4149   -0.4387   -2.5482 C.ar    1  UNL1       -0.0377
     19 C          -0.9373   -0.6272   -2.7450 C.ar    1  UNL1       -0.0243
     20 C          -1.8639   -0.3684   -1.7463 C.ar    1  UNL1        0.1292
     21 F          -3.1755   -0.5658   -1.9914 F       1  UNL1       -0.2051
     22 C          -1.6060    0.9041    1.7556 C.3     1  UNL1        0.2686
     23 F          -2.4468    1.1944    2.8245 F       1  UNL1       -0.2062
     24 F          -1.0443    2.1298    1.4146 F       1  UNL1       -0.2062
     25 C          -3.0822   -0.9096    0.8595 C.3     1  UNL1        0.0344
     26 C          -3.1904   -1.4590    2.2303 C.3     1  UNL1       -0.0064
     27 C          -4.3507   -0.8149    1.6114 C.3     1  UNL1        0.1091
     28 O          -4.7061    0.5260    1.7858 O.2     1  UNL1       -0.4622
     29 H          -5.6872    3.2156    1.0088 H       1  UNL1        0.1466
     30 H          -5.9307    2.3574   -0.5458 H       1  UNL1        0.1466
     31 H           0.4010    0.6282    0.5819 H       1  UNL1        0.0640
     32 H           2.6751    1.1280   -1.3854 H       1  UNL1        0.1552
     33 H           6.7439    1.8510   -0.8842 H       1  UNL1        0.0846
     34 H           7.3451   -2.0661    0.5017 H       1  UNL1        0.0846
     35 H           1.0656   -0.6666   -3.3846 H       1  UNL1        0.0637
     36 H          -1.3138   -0.9874   -3.6984 H       1  UNL1        0.0647
     37 H          -0.8182    0.2608    2.1270 H       1  UNL1        0.1047
     38 H          -3.1241   -1.6539    0.0090 H       1  UNL1        0.0366
     39 H          -3.2511   -2.5863    2.2882 H       1  UNL1        0.0306
     40 H          -2.6354   -1.0631    3.0913 H       1  UNL1        0.0306
     41 H          -5.2306   -1.4536    1.3131 H       1  UNL1        0.0737
@<TRIPOS>BOND
     1     1     2    1
     2     2     3    2
     3     3     4    1
     4     4     5    1
     5     5     6   ar
     6     6     7   ar
     7     7     8    1
     8     8     9   am
     9     9    10    2
    10     9    11    1
    11    11    12   ar
    12    12    13   ar
    13    13    14   ar
    14    14    15    1
    15    14    16   ar
    16    16    17   ar
    17     7    18   ar
    18    18    19   ar
    19    19    20   ar
    20    20    21    1
    21     4    22    1
    22    22    23    1
    23    22    24    1
    24     4    25    1
    25    25    26    1
    26    26    27    1
    27    27    28    1
    28    28     2    1
    29    20     5   ar
    30    27    25    1
    31    17    11   ar
    32     1    29    1
    33     1    30    1
    34     6    31    1
    35     8    32    1
    36    13    33    1
    37    16    34    1
    38    18    35    1
    39    19    36    1
    40    22    37    1
    41    25    38    1
    42    26    39    1
    43    26    40    1
    44    27    41    1
