
     RDKit          3D

 41 44  0  0  0  0  0  0  0  0999 V2000
   -5.4482    2.4222    0.3746 N   0  0  0  0  0  0  0  0  0  0  0  0
   -4.4670    1.4311    0.7632 C   0  0  0  0  0  0  0  0  0  0  0  0
   -3.3397    1.3832    0.1467 N   0  0  0  0  0  0  0  0  0  0  0  0
   -2.3737    0.3678    0.5685 C   0  0  1  0  0  0  0  0  0  0  0  0
   -1.4016    0.0948   -0.5138 C   0  0  0  0  0  0  0  0  0  0  0  0
   -0.0604    0.2781   -0.3296 C   0  0  0  0  0  0  0  0  0  0  0  0
    0.8684    0.0125   -1.3490 C   0  0  0  0  0  0  0  0  0  0  0  0
    2.2653    0.2032   -1.1581 N   0  0  0  0  0  0  0  0  0  0  0  0
    3.1001   -0.8367   -0.6679 C   0  0  0  0  0  0  0  0  0  0  0  0
    2.5574   -1.9608   -0.3998 O   0  0  0  0  0  0  0  0  0  0  0  0
    4.5206   -0.6152   -0.4829 C   0  0  0  0  0  0  0  0  0  0  0  0
    5.0459    0.5677   -0.7733 N   0  0  0  0  0  0  0  0  0  0  0  0
    6.3406    0.8794   -0.6404 C   0  0  0  0  0  0  0  0  0  0  0  0
    7.2112   -0.0810   -0.1697 C   0  0  0  0  0  0  0  0  0  0  0  0
    8.9129    0.2154    0.0419 Cl  0  0  0  0  0  0  0  0  0  0  0  0
    6.6648   -1.3278    0.1378 C   0  0  0  0  0  0  0  0  0  0  0  0
    5.3522   -1.5686   -0.0215 N   0  0  0  0  0  0  0  0  0  0  0  0
    0.4149   -0.4387   -2.5482 C   0  0  0  0  0  0  0  0  0  0  0  0
   -0.9373   -0.6272   -2.7450 C   0  0  0  0  0  0  0  0  0  0  0  0
   -1.8639   -0.3684   -1.7463 C   0  0  0  0  0  0  0  0  0  0  0  0
   -3.1755   -0.5658   -1.9914 F   0  0  0  0  0  0  0  0  0  0  0  0
   -1.6060    0.9041    1.7556 C   0  0  0  0  0  0  0  0  0  0  0  0
   -2.4468    1.1944    2.8245 F   0  0  0  0  0  0  0  0  0  0  0  0
   -1.0443    2.1298    1.4146 F   0  0  0  0  0  0  0  0  0  0  0  0
   -3.0822   -0.9096    0.8595 C   0  0  1  0  0  0  0  0  0  0  0  0
   -3.1904   -1.4590    2.2303 C   0  0  0  0  0  0  0  0  0  0  0  0
   -4.3507   -0.8149    1.6114 C   0  0  1  0  0  0  0  0  0  0  0  0
   -4.7061    0.5260    1.7858 O   0  0  0  0  0  0  0  0  0  0  0  0
   -5.6872    3.2156    1.0088 H   0  0  0  0  0  0  0  0  0  0  0  0
   -5.9307    2.3574   -0.5458 H   0  0  0  0  0  0  0  0  0  0  0  0
    0.4010    0.6282    0.5819 H   0  0  0  0  0  0  0  0  0  0  0  0
    2.6751    1.1280   -1.3854 H   0  0  0  0  0  0  0  0  0  0  0  0
    6.7439    1.8510   -0.8842 H   0  0  0  0  0  0  0  0  0  0  0  0
    7.3451   -2.0661    0.5017 H   0  0  0  0  0  0  0  0  0  0  0  0
    1.0656   -0.6666   -3.3846 H   0  0  0  0  0  0  0  0  0  0  0  0
   -1.3138   -0.9874   -3.6984 H   0  0  0  0  0  0  0  0  0  0  0  0
   -0.8182    0.2608    2.1270 H   0  0  0  0  0  0  0  0  0  0  0  0
   -3.1241   -1.6539    0.0090 H   0  0  0  0  0  0  0  0  0  0  0  0
   -3.2511   -2.5863    2.2882 H   0  0  0  0  0  0  0  0  0  0  0  0
   -2.6354   -1.0631    3.0913 H   0  0  0  0  0  0  0  0  0  0  0  0
   -5.2306   -1.4536    1.3131 H   0  0  0  0  0  0  0  0  0  0  0  0
  1  2  1  0
  2  3  2  0
  3  4  1  0
  4  5  1  0
  5  6  2  0
  6  7  1  0
  7  8  1  0
  8  9  1  0
  9 10  2  0
  9 11  1  0
 11 12  2  0
 12 13  1  0
 13 14  2  0
 14 15  1  0
 14 16  1  0
 16 17  2  0
  7 18  2  0
 18 19  1  0
 19 20  2  0
 20 21  1  0
  4 22  1  1
 22 23  1  0
 22 24  1  0
  4 25  1  0
 25 26  1  0
 26 27  1  0
 27 28  1  0
 28  2  1  0
 20  5  1  0
 27 25  1  0
 17 11  1  0
  1 29  1  0
  1 30  1  0
  6 31  1  0
  8 32  1  0
 13 33  1  0
 16 34  1  0
 18 35  1  0
 19 36  1  0
 22 37  1  0
 25 38  1  6
 26 39  1  0
 26 40  1  0
 27 41  1  6
M  END
$$$$
