@<TRIPOS>MOLECULE
*****
 28 29 0 0 0
SMALL
GASTEIGER

@<TRIPOS>ATOM
      1 O          -0.1639    0.4901   -0.5792 O.2     1  UNL1       -0.2522
      2 C          -0.1027   -0.1904    0.4625 C.2     1  UNL1        0.3081
      3 N          -1.3185   -0.5832    1.1560 N.am    1  UNL1       -0.2692
      4 C          -2.5359   -0.1366    0.5589 C.ar    1  UNL1        0.0348
      5 C          -3.1377    1.0519    0.8596 C.ar    1  UNL1       -0.0404
      6 C          -4.3261    1.4055    0.2259 C.ar    1  UNL1       -0.0600
      7 C          -4.8816    0.5463   -0.7010 C.ar    1  UNL1       -0.0616
      8 C          -4.2871   -0.6459   -1.0093 C.ar    1  UNL1       -0.0600
      9 C          -3.1078   -0.9937   -0.3786 C.ar    1  UNL1       -0.0404
     10 N           1.1596   -0.5747    0.9606 N.am    1  UNL1       -0.2692
     11 C           2.4188   -0.2704    0.4000 C.ar    1  UNL1        0.0348
     12 C           3.5672   -0.7477    1.0498 C.ar    1  UNL1       -0.0404
     13 C           4.8345   -0.4994    0.5747 C.ar    1  UNL1       -0.0600
     14 C           5.0371    0.2337   -0.5676 C.ar    1  UNL1       -0.0616
     15 C           3.9366    0.7229   -1.2391 C.ar    1  UNL1       -0.0600
     16 C           2.6613    0.4528   -0.7299 C.ar    1  UNL1       -0.0404
     17 H          -1.2674   -1.1423    2.0119 H       1  UNL1        0.1564
     18 H          -2.6672    1.6962    1.5934 H       1  UNL1        0.0636
     19 H          -4.8038    2.3543    0.4680 H       1  UNL1        0.0618
     20 H          -5.7934    0.8204   -1.1854 H       1  UNL1        0.0618
     21 H          -4.7468   -1.2982   -1.7402 H       1  UNL1        0.0618
     22 H          -2.6483   -1.9285   -0.6250 H       1  UNL1        0.0636
     23 H           1.1096   -1.1574    1.8601 H       1  UNL1        0.1564
     24 H           3.4285   -1.3370    1.9661 H       1  UNL1        0.0636
     25 H           5.7085   -0.8790    1.0944 H       1  UNL1        0.0618
     26 H           6.0201    0.4396   -0.9565 H       1  UNL1        0.0618
     27 H           4.0483    1.3096   -2.1495 H       1  UNL1        0.0618
     28 H           1.8582    0.8611   -1.2989 H       1  UNL1        0.0636
@<TRIPOS>BOND
     1     1     2    2
     2     2     3   am
     3     3     4    1
     4     4     5   ar
     5     5     6   ar
     6     6     7   ar
     7     7     8   ar
     8     8     9   ar
     9     2    10   am
    10    10    11    1
    11    11    12   ar
    12    12    13   ar
    13    13    14   ar
    14    14    15   ar
    15    15    16   ar
    16     9     4   ar
    17    16    11   ar
    18     3    17    1
    19     5    18    1
    20     6    19    1
    21     7    20    1
    22     8    21    1
    23     9    22    1
    24    10    23    1
    25    12    24    1
    26    13    25    1
    27    14    26    1
    28    15    27    1
    29    16    28    1
