
     RDKit          3D

 28 29  0  0  0  0  0  0  0  0999 V2000
   -0.1639    0.4901   -0.5792 O   0  0  0  0  0  0  0  0  0  0  0  0
   -0.1027   -0.1904    0.4625 C   0  0  0  0  0  0  0  0  0  0  0  0
   -1.3185   -0.5832    1.1560 N   0  0  0  0  0  0  0  0  0  0  0  0
   -2.5359   -0.1366    0.5589 C   0  0  0  0  0  0  0  0  0  0  0  0
   -3.1377    1.0519    0.8596 C   0  0  0  0  0  0  0  0  0  0  0  0
   -4.3261    1.4055    0.2259 C   0  0  0  0  0  0  0  0  0  0  0  0
   -4.8816    0.5463   -0.7010 C   0  0  0  0  0  0  0  0  0  0  0  0
   -4.2871   -0.6459   -1.0093 C   0  0  0  0  0  0  0  0  0  0  0  0
   -3.1078   -0.9937   -0.3786 C   0  0  0  0  0  0  0  0  0  0  0  0
    1.1596   -0.5747    0.9606 N   0  0  0  0  0  0  0  0  0  0  0  0
    2.4188   -0.2704    0.4000 C   0  0  0  0  0  0  0  0  0  0  0  0
    3.5672   -0.7477    1.0498 C   0  0  0  0  0  0  0  0  0  0  0  0
    4.8345   -0.4994    0.5747 C   0  0  0  0  0  0  0  0  0  0  0  0
    5.0371    0.2337   -0.5676 C   0  0  0  0  0  0  0  0  0  0  0  0
    3.9366    0.7229   -1.2391 C   0  0  0  0  0  0  0  0  0  0  0  0
    2.6613    0.4528   -0.7299 C   0  0  0  0  0  0  0  0  0  0  0  0
   -1.2674   -1.1423    2.0119 H   0  0  0  0  0  0  0  0  0  0  0  0
   -2.6672    1.6962    1.5934 H   0  0  0  0  0  0  0  0  0  0  0  0
   -4.8038    2.3543    0.4680 H   0  0  0  0  0  0  0  0  0  0  0  0
   -5.7934    0.8204   -1.1854 H   0  0  0  0  0  0  0  0  0  0  0  0
   -4.7468   -1.2982   -1.7402 H   0  0  0  0  0  0  0  0  0  0  0  0
   -2.6483   -1.9285   -0.6250 H   0  0  0  0  0  0  0  0  0  0  0  0
    1.1096   -1.1574    1.8601 H   0  0  0  0  0  0  0  0  0  0  0  0
    3.4285   -1.3370    1.9661 H   0  0  0  0  0  0  0  0  0  0  0  0
    5.7085   -0.8790    1.0944 H   0  0  0  0  0  0  0  0  0  0  0  0
    6.0201    0.4396   -0.9565 H   0  0  0  0  0  0  0  0  0  0  0  0
    4.0483    1.3096   -2.1495 H   0  0  0  0  0  0  0  0  0  0  0  0
    1.8582    0.8611   -1.2989 H   0  0  0  0  0  0  0  0  0  0  0  0
  1  2  2  0
  2  3  1  0
  3  4  1  0
  4  5  2  0
  5  6  1  0
  6  7  2  0
  7  8  1  0
  8  9  2  0
  2 10  1  0
 10 11  1  0
 11 12  2  0
 12 13  1  0
 13 14  2  0
 14 15  1  0
 15 16  2  0
  9  4  1  0
 16 11  1  0
  3 17  1  0
  5 18  1  0
  6 19  1  0
  7 20  1  0
  8 21  1  0
  9 22  1  0
 10 23  1  0
 12 24  1  0
 13 25  1  0
 14 26  1  0
 15 27  1  0
 16 28  1  0
M  END
$$$$
