
     RDKit          3D

 65 69  0  0  0  0  0  0  0  0999 V2000
    3.5496    0.3108    2.1904 O   0  0  0  0  0  0  0  0  0  0  0  0
    4.3685    0.3999    1.2441 C   0  0  0  0  0  0  0  0  0  0  0  0
    4.2587   -0.5745    0.2295 N   0  0  0  0  0  0  0  0  0  0  0  0
    3.3104   -1.6447    0.1834 C   0  0  2  0  0  0  0  0  0  0  0  0
    3.9375   -3.0088    0.1849 C   0  0  0  0  0  0  0  0  0  0  0  0
    2.9855   -4.0127    0.8397 C   0  0  0  0  0  0  0  0  0  0  0  0
    1.7678   -3.8583   -0.0614 C   0  0  0  0  0  0  0  0  0  0  0  0
    2.2423   -3.1082   -1.2901 C   0  0  0  0  0  0  0  0  0  0  0  0
    3.7252   -3.4684   -1.2694 C   0  0  0  0  0  0  0  0  0  0  0  0
    2.3368   -1.6191   -0.9366 C   0  0  1  0  0  0  0  0  0  0  0  0
    1.0309   -1.2556   -0.5668 O   0  0  0  0  0  0  0  0  0  0  0  0
    0.2007   -0.3895   -1.2297 C   0  0  0  0  0  0  0  0  0  0  0  0
    0.6548    0.1361   -2.2790 O   0  0  0  0  0  0  0  0  0  0  0  0
   -1.1129   -0.1372   -0.7001 C   0  0  0  0  0  0  0  0  0  0  0  0
   -1.5615   -0.7331    0.4491 C   0  0  0  0  0  0  0  0  0  0  0  0
   -2.8185   -0.5014    0.9643 C   0  0  0  0  0  0  0  0  0  0  0  0
   -3.2743   -1.1031    2.1265 O   0  0  0  0  0  0  0  0  0  0  0  0
   -3.6952    0.3706    0.3129 C   0  0  0  0  0  0  0  0  0  0  0  0
   -4.9730    0.6937    0.9194 C   0  0  0  0  0  0  0  0  0  0  0  0
   -5.1035    0.5448    2.1999 O   0  0  0  0  0  0  0  0  0  0  0  0
   -6.1507    1.1871    0.2513 C   0  0  0  0  0  0  0  0  0  0  0  0
   -6.8577    2.2016    0.9376 C   0  0  0  0  0  0  0  0  0  0  0  0
   -6.3672    2.6636    2.1784 O   0  0  0  0  0  0  0  0  0  0  0  0
   -7.9976    2.7127    0.3880 C   0  0  0  0  0  0  0  0  0  0  0  0
   -8.4806    2.2710   -0.8141 C   0  0  0  0  0  0  0  0  0  0  0  0
   -7.7966    1.2893   -1.4698 C   0  0  0  0  0  0  0  0  0  0  0  0
   -6.6163    0.7240   -0.9458 C   0  0  0  0  0  0  0  0  0  0  0  0
   -6.0991   -0.4657   -1.6311 C   0  0  0  0  0  0  0  0  0  0  0  0
   -6.5266   -0.7449   -2.7961 O   0  0  0  0  0  0  0  0  0  0  0  0
   -5.1814   -1.3194   -1.0994 O   0  0  0  0  0  0  0  0  0  0  0  0
   -3.2463    0.9707   -0.8392 C   0  0  0  0  0  0  0  0  0  0  0  0
   -4.0652    1.8668   -1.5494 O   0  0  0  0  0  0  0  0  0  0  0  0
   -1.9699    0.7166   -1.3370 C   0  0  0  0  0  0  0  0  0  0  0  0
    5.3273    1.4844    1.2994 C   0  0  0  0  0  0  0  0  0  0  0  0
    5.3432    2.4058    2.3212 C   0  0  0  0  0  0  0  0  0  0  0  0
    6.2862    3.4346    2.3441 C   0  0  0  0  0  0  0  0  0  0  0  0
    7.2111    3.5315    1.3360 C   0  0  0  0  0  0  0  0  0  0  0  0
    8.1799    4.5456    1.3120 O   0  0  0  0  0  0  0  0  0  0  0  0
    7.2152    2.6287    0.3107 C   0  0  0  0  0  0  0  0  0  0  0  0
    6.2632    1.6043    0.3037 C   0  0  0  0  0  0  0  0  0  0  0  0
    4.9402   -0.4936   -0.5553 H   0  0  0  0  0  0  0  0  0  0  0  0
    2.6995   -1.5782    1.1203 H   0  0  0  0  0  0  0  0  0  0  0  0
    4.9497   -3.0742    0.5103 H   0  0  0  0  0  0  0  0  0  0  0  0
    3.4325   -5.0372    0.7288 H   0  0  0  0  0  0  0  0  0  0  0  0
    2.7791   -3.7666    1.8834 H   0  0  0  0  0  0  0  0  0  0  0  0
    1.0602   -3.2078    0.5310 H   0  0  0  0  0  0  0  0  0  0  0  0
    1.2620   -4.7961   -0.2827 H   0  0  0  0  0  0  0  0  0  0  0  0
    1.7355   -3.3246   -2.1996 H   0  0  0  0  0  0  0  0  0  0  0  0
    3.8163   -4.5502   -1.3711 H   0  0  0  0  0  0  0  0  0  0  0  0
    4.3150   -2.8834   -1.9726 H   0  0  0  0  0  0  0  0  0  0  0  0
    2.6098   -1.1052   -1.8416 H   0  0  0  0  0  0  0  0  0  0  0  0
   -0.9372   -1.4331    1.0244 H   0  0  0  0  0  0  0  0  0  0  0  0
   -3.6927   -2.0052    2.1810 H   0  0  0  0  0  0  0  0  0  0  0  0
   -6.7377    2.2319    3.0243 H   0  0  0  0  0  0  0  0  0  0  0  0
   -8.5361    3.4993    0.9311 H   0  0  0  0  0  0  0  0  0  0  0  0
   -9.3955    2.6913   -1.2455 H   0  0  0  0  0  0  0  0  0  0  0  0
   -8.1599    0.9220   -2.4264 H   0  0  0  0  0  0  0  0  0  0  0  0
   -4.5973   -1.9199   -1.6702 H   0  0  0  0  0  0  0  0  0  0  0  0
   -4.0191    2.8465   -1.2350 H   0  0  0  0  0  0  0  0  0  0  0  0
   -1.6946    1.2346   -2.2579 H   0  0  0  0  0  0  0  0  0  0  0  0
    4.6279    2.3567    3.1291 H   0  0  0  0  0  0  0  0  0  0  0  0
    6.3156    4.1643    3.1338 H   0  0  0  0  0  0  0  0  0  0  0  0
    8.6233    4.8260    2.1980 H   0  0  0  0  0  0  0  0  0  0  0  0
    7.9594    2.7136   -0.4918 H   0  0  0  0  0  0  0  0  0  0  0  0
    6.3432    0.9394   -0.5424 H   0  0  0  0  0  0  0  0  0  0  0  0
  1  2  2  0
  2  3  1  0
  3  4  1  0
  4  5  1  0
  5  6  1  0
  6  7  1  0
  7  8  1  0
  8  9  1  0
  8 10  1  0
 10 11  1  0
 11 12  1  0
 12 13  2  0
 12 14  1  0
 14 15  2  0
 15 16  1  0
 16 17  1  0
 16 18  2  0
 18 19  1  0
 19 20  2  0
 19 21  1  0
 21 22  2  0
 22 23  1  0
 22 24  1  0
 24 25  2  0
 25 26  1  0
 26 27  2  0
 27 28  1  0
 28 29  2  0
 28 30  1  0
 18 31  1  0
 31 32  1  0
 31 33  2  0
  2 34  1  0
 34 35  2  0
 35 36  1  0
 36 37  2  0
 37 38  1  0
 37 39  1  0
 39 40  2  0
 10  4  1  0
 33 14  1  0
 40 34  1  0
  9  5  1  0
 27 21  1  0
  3 41  1  0
  4 42  1  1
  5 43  1  0
  6 44  1  0
  6 45  1  0
  7 46  1  0
  7 47  1  0
  8 48  1  0
  9 49  1  0
  9 50  1  0
 10 51  1  6
 15 52  1  0
 17 53  1  0
 23 54  1  0
 24 55  1  0
 25 56  1  0
 26 57  1  0
 30 58  1  0
 32 59  1  0
 33 60  1  0
 35 61  1  0
 36 62  1  0
 38 63  1  0
 39 64  1  0
 40 65  1  0
M  END
$$$$
