@<TRIPOS>MOLECULE
*****
 65 69 0 0 0
SMALL
GASTEIGER

@<TRIPOS>ATOM
      1 O           3.5496    0.3108    2.1904 O.2     1  UNL1       -0.2702
      2 C           4.3685    0.3999    1.2441 C.2     1  UNL1        0.2444
      3 N           4.2587   -0.5745    0.2295 N.am    1  UNL1       -0.3047
      4 C           3.3104   -1.6447    0.1834 C.3     1  UNL1        0.0634
      5 C           3.9375   -3.0088    0.1849 C.3     1  UNL1       -0.0187
      6 C           2.9855   -4.0127    0.8397 C.3     1  UNL1       -0.0480
      7 C           1.7678   -3.8583   -0.0614 C.3     1  UNL1       -0.0465
      8 C           2.2423   -3.1082   -1.2901 C.3     1  UNL1       -0.0017
      9 C           3.7252   -3.4684   -1.2694 C.3     1  UNL1       -0.0421
     10 C           2.3368   -1.6191   -0.9366 C.3     1  UNL1        0.1246
     11 O           1.0309   -1.2556   -0.5668 O.3     1  UNL1       -0.4557
     12 C           0.2007   -0.3895   -1.2297 C.2     1  UNL1        0.3397
     13 O           0.6548    0.1361   -2.2790 O.2     1  UNL1       -0.2449
     14 C          -1.1129   -0.1372   -0.7001 C.ar    1  UNL1        0.0659
     15 C          -1.5615   -0.7331    0.4491 C.ar    1  UNL1       -0.0053
     16 C          -2.8185   -0.5014    0.9643 C.ar    1  UNL1        0.1320
     17 O          -3.2743   -1.1031    2.1265 O.3     1  UNL1       -0.5059
     18 C          -3.6952    0.3706    0.3129 C.ar    1  UNL1        0.1050
     19 C          -4.9730    0.6937    0.9194 C.2     1  UNL1        0.2044
     20 O          -5.1035    0.5448    2.1999 O.2     1  UNL1       -0.2863
     21 C          -6.1507    1.1871    0.2513 C.ar    1  UNL1        0.0778
     22 C          -6.8577    2.2016    0.9376 C.ar    1  UNL1        0.1285
     23 O          -6.3672    2.6636    2.1784 O.3     1  UNL1       -0.5060
     24 C          -7.9976    2.7127    0.3880 C.ar    1  UNL1       -0.0194
     25 C          -8.4806    2.2710   -0.8141 C.ar    1  UNL1       -0.0575
     26 C          -7.7966    1.2893   -1.4698 C.ar    1  UNL1       -0.0468
     27 C          -6.6163    0.7240   -0.9458 C.ar    1  UNL1        0.0731
     28 C          -6.0991   -0.4657   -1.6311 C.2     1  UNL1        0.3376
     29 O          -6.5266   -0.7449   -2.7961 O.2     1  UNL1       -0.2451
     30 O          -5.1814   -1.3194   -1.0994 O.3     1  UNL1       -0.4771
     31 C          -3.2463    0.9707   -0.8392 C.ar    1  UNL1        0.1320
     32 O          -4.0652    1.8668   -1.5494 O.3     1  UNL1       -0.5059
     33 C          -1.9699    0.7166   -1.3370 C.ar    1  UNL1       -0.0053
     34 C           5.3273    1.4844    1.2994 C.ar    1  UNL1        0.0369
     35 C           5.3432    2.4058    2.3212 C.ar    1  UNL1       -0.0462
     36 C           6.2862    3.4346    2.3441 C.ar    1  UNL1       -0.0195
     37 C           7.2111    3.5315    1.3360 C.ar    1  UNL1        0.1169
     38 O           8.1799    4.5456    1.3120 O.3     1  UNL1       -0.5068
     39 C           7.2152    2.6287    0.3107 C.ar    1  UNL1       -0.0195
     40 C           6.2632    1.6043    0.3037 C.ar    1  UNL1       -0.0462
     41 H           4.9402   -0.4936   -0.5553 H       1  UNL1        0.1494
     42 H           2.6995   -1.5782    1.1203 H       1  UNL1        0.0538
     43 H           4.9497   -3.0742    0.5103 H       1  UNL1        0.0320
     44 H           3.4325   -5.0372    0.7288 H       1  UNL1        0.0269
     45 H           2.7791   -3.7666    1.8834 H       1  UNL1        0.0269
     46 H           1.0602   -3.2078    0.5310 H       1  UNL1        0.0269
     47 H           1.2620   -4.7961   -0.2827 H       1  UNL1        0.0269
     48 H           1.7355   -3.3246   -2.1996 H       1  UNL1        0.0337
     49 H           3.8163   -4.5502   -1.3711 H       1  UNL1        0.0272
     50 H           4.3150   -2.8834   -1.9726 H       1  UNL1        0.0272
     51 H           2.6098   -1.1052   -1.8416 H       1  UNL1        0.0755
     52 H          -0.9372   -1.4331    1.0244 H       1  UNL1        0.0662
     53 H          -3.6927   -2.0052    2.1810 H       1  UNL1        0.2922
     54 H          -6.7377    2.2319    3.0243 H       1  UNL1        0.2922
     55 H          -8.5361    3.4993    0.9311 H       1  UNL1        0.0654
     56 H          -9.3955    2.6913   -1.2455 H       1  UNL1        0.0619
     57 H          -8.1599    0.9220   -2.4264 H       1  UNL1        0.0626
     58 H          -4.5973   -1.9199   -1.6702 H       1  UNL1        0.2954
     59 H          -4.0191    2.8465   -1.2350 H       1  UNL1        0.2922
     60 H          -1.6946    1.2346   -2.2579 H       1  UNL1        0.0662
     61 H           4.6279    2.3567    3.1291 H       1  UNL1        0.0626
     62 H           6.3156    4.1643    3.1338 H       1  UNL1        0.0654
     63 H           8.6233    4.8260    2.1980 H       1  UNL1        0.2921
     64 H           7.9594    2.7136   -0.4918 H       1  UNL1        0.0654
     65 H           6.3432    0.9394   -0.5424 H       1  UNL1        0.0626
@<TRIPOS>BOND
     1     1     2    2
     2     2     3   am
     3     3     4    1
     4     4     5    1
     5     5     6    1
     6     6     7    1
     7     7     8    1
     8     8     9    1
     9     8    10    1
    10    10    11    1
    11    11    12    1
    12    12    13    2
    13    12    14    1
    14    14    15   ar
    15    15    16   ar
    16    16    17    1
    17    16    18   ar
    18    18    19    1
    19    19    20    2
    20    19    21    1
    21    21    22   ar
    22    22    23    1
    23    22    24   ar
    24    24    25   ar
    25    25    26   ar
    26    26    27   ar
    27    27    28    1
    28    28    29    2
    29    28    30    1
    30    18    31   ar
    31    31    32    1
    32    31    33   ar
    33     2    34    1
    34    34    35   ar
    35    35    36   ar
    36    36    37   ar
    37    37    38    1
    38    37    39   ar
    39    39    40   ar
    40    10     4    1
    41    33    14   ar
    42    40    34   ar
    43     9     5    1
    44    27    21   ar
    45     3    41    1
    46     4    42    1
    47     5    43    1
    48     6    44    1
    49     6    45    1
    50     7    46    1
    51     7    47    1
    52     8    48    1
    53     9    49    1
    54     9    50    1
    55    10    51    1
    56    15    52    1
    57    17    53    1
    58    23    54    1
    59    24    55    1
    60    25    56    1
    61    26    57    1
    62    30    58    1
    63    32    59    1
    64    33    60    1
    65    35    61    1
    66    36    62    1
    67    38    63    1
    68    39    64    1
    69    40    65    1
