
     RDKit          3D

 37 40  0  0  0  0  0  0  0  0999 V2000
    0.8107    2.6483    1.5185 C   0  0  0  0  0  0  0  0  0  0  0  0
    1.9220    2.0580    0.7070 C   0  0  0  0  0  0  0  0  0  0  0  0
    3.0912    2.6294    0.3607 N   0  0  0  0  0  0  0  0  0  0  0  0
    3.7784    1.7447   -0.3622 C   0  0  0  0  0  0  0  0  0  0  0  0
    5.0272    1.8456   -0.9489 C   0  0  0  0  0  0  0  0  0  0  0  0
    5.8489    3.0190   -0.8638 C   0  0  0  0  0  0  0  0  0  0  0  0
    6.5277    3.9544   -0.8007 N   0  0  0  0  0  0  0  0  0  0  0  0
    5.4613    0.7349   -1.6403 C   0  0  0  0  0  0  0  0  0  0  0  0
    4.7381   -0.4313   -1.7720 C   0  0  0  0  0  0  0  0  0  0  0  0
    3.4984   -0.4996   -1.1761 C   0  0  0  0  0  0  0  0  0  0  0  0
    3.0198    0.5834   -0.4740 C   0  0  0  0  0  0  0  0  0  0  0  0
    1.8650    0.8120    0.2055 N   0  0  0  0  0  0  0  0  0  0  0  0
    0.8242   -0.1345    0.3275 C   0  0  0  0  0  0  0  0  0  0  0  0
    0.8818   -1.4731    0.6672 C   0  0  0  0  0  0  0  0  0  0  0  0
   -0.2783   -2.1500    0.7089 C   0  0  0  0  0  0  0  0  0  0  0  0
   -1.4130   -1.5172    0.4272 C   0  0  0  0  0  0  0  0  0  0  0  0
   -2.8113   -2.0395    0.4044 C   0  0  0  0  0  0  0  0  0  0  0  0
   -2.9787   -3.2211    0.6804 O   0  0  0  0  0  0  0  0  0  0  0  0
   -3.8923   -1.1998    0.0770 N   0  0  0  0  0  0  0  0  0  0  0  0
   -5.2706   -1.6484    0.0380 C   0  0  0  0  0  0  0  0  0  0  0  0
   -6.1835   -1.0648   -1.0103 C   0  0  0  0  0  0  0  0  0  0  0  0
   -6.2841   -0.6142    0.4037 C   0  0  0  0  0  0  0  0  0  0  0  0
   -0.9105    0.1031    0.0786 S   0  0  0  0  0  0  0  0  0  0  0  0
    0.4226    1.9349    2.2552 H   0  0  0  0  0  0  0  0  0  0  0  0
   -0.0373    2.8923    0.8289 H   0  0  0  0  0  0  0  0  0  0  0  0
    1.1196    3.6158    1.9714 H   0  0  0  0  0  0  0  0  0  0  0  0
    6.4378    0.7508   -2.1259 H   0  0  0  0  0  0  0  0  0  0  0  0
    5.1403   -1.2887   -2.3396 H   0  0  0  0  0  0  0  0  0  0  0  0
    2.9073   -1.4056   -1.2636 H   0  0  0  0  0  0  0  0  0  0  0  0
    1.8882   -1.9001    0.8836 H   0  0  0  0  0  0  0  0  0  0  0  0
   -0.3003   -3.2408    0.9783 H   0  0  0  0  0  0  0  0  0  0  0  0
   -3.6472   -0.1895   -0.1479 H   0  0  0  0  0  0  0  0  0  0  0  0
   -5.3964   -2.7047    0.2874 H   0  0  0  0  0  0  0  0  0  0  0  0
   -7.0018   -1.6620   -1.4294 H   0  0  0  0  0  0  0  0  0  0  0  0
   -5.7000   -0.3950   -1.7777 H   0  0  0  0  0  0  0  0  0  0  0  0
   -7.1666   -0.9658    0.9799 H   0  0  0  0  0  0  0  0  0  0  0  0
   -5.9386    0.4192    0.6125 H   0  0  0  0  0  0  0  0  0  0  0  0
  1  2  1  0
  2  3  2  0
  3  4  1  0
  4  5  2  0
  5  6  1  0
  6  7  3  0
  5  8  1  0
  8  9  2  0
  9 10  1  0
 10 11  2  0
 11 12  1  0
 12 13  1  0
 13 14  2  0
 14 15  1  0
 15 16  2  0
 16 17  1  0
 17 18  2  0
 17 19  1  0
 19 20  1  0
 20 21  1  0
 21 22  1  0
 16 23  1  0
 12  2  1  0
 23 13  1  0
 11  4  1  0
 22 20  1  0
  1 24  1  0
  1 25  1  0
  1 26  1  0
  8 27  1  0
  9 28  1  0
 10 29  1  0
 14 30  1  0
 15 31  1  0
 19 32  1  0
 20 33  1  0
 21 34  1  0
 21 35  1  0
 22 36  1  0
 22 37  1  0
M  END
$$$$
