@<TRIPOS>MOLECULE
*****
 37 40 0 0 0
SMALL
GASTEIGER

@<TRIPOS>ATOM
      1 C           0.8107    2.6483    1.5185 C.3     1  UNL1       -0.0059
      2 C           1.9220    2.0580    0.7070 C.ar    1  UNL1        0.1126
      3 N           3.0912    2.6294    0.3607 N.ar    1  UNL1       -0.2309
      4 C           3.7784    1.7447   -0.3622 C.ar    1  UNL1        0.1069
      5 C           5.0272    1.8456   -0.9489 C.ar    1  UNL1        0.0791
      6 C           5.8489    3.0190   -0.8638 C.1     1  UNL1        0.1014
      7 N           6.5277    3.9544   -0.8007 N.1     1  UNL1       -0.1908
      8 C           5.4613    0.7349   -1.6403 C.ar    1  UNL1       -0.0422
      9 C           4.7381   -0.4313   -1.7720 C.ar    1  UNL1       -0.0585
     10 C           3.4984   -0.4996   -1.1761 C.ar    1  UNL1       -0.0356
     11 C           3.0198    0.5834   -0.4740 C.ar    1  UNL1        0.0753
     12 N           1.8650    0.8120    0.2055 N.ar    1  UNL1       -0.2901
     13 C           0.8242   -0.1345    0.3275 C.ar    1  UNL1        0.0867
     14 C           0.8818   -1.4731    0.6672 C.ar    1  UNL1       -0.0297
     15 C          -0.2783   -2.1500    0.7089 C.ar    1  UNL1       -0.0405
     16 C          -1.4130   -1.5172    0.4272 C.ar    1  UNL1        0.0758
     17 C          -2.8113   -2.0395    0.4044 C.2     1  UNL1        0.2510
     18 O          -2.9787   -3.2211    0.6804 O.2     1  UNL1       -0.2696
     19 N          -3.8923   -1.1998    0.0770 N.am    1  UNL1       -0.3081
     20 C          -5.2706   -1.6484    0.0380 C.3     1  UNL1        0.0236
     21 C          -6.1835   -1.0648   -1.0103 C.3     1  UNL1       -0.0328
     22 C          -6.2841   -0.6142    0.4037 C.3     1  UNL1       -0.0328
     23 S          -0.9105    0.1031    0.0786 S.2     1  UNL1       -0.0661
     24 H           0.4226    1.9349    2.2552 H       1  UNL1        0.0308
     25 H          -0.0373    2.8923    0.8289 H       1  UNL1        0.0308
     26 H           1.1196    3.6158    1.9714 H       1  UNL1        0.0308
     27 H           6.4378    0.7508   -2.1259 H       1  UNL1        0.0631
     28 H           5.1403   -1.2887   -2.3396 H       1  UNL1        0.0619
     29 H           2.9073   -1.4056   -1.2636 H       1  UNL1        0.0639
     30 H           1.8882   -1.9001    0.8836 H       1  UNL1        0.0644
     31 H          -0.3003   -3.2408    0.9783 H       1  UNL1        0.0631
     32 H          -3.6472   -0.1895   -0.1479 H       1  UNL1        0.1493
     33 H          -5.3964   -2.7047    0.2874 H       1  UNL1        0.0498
     34 H          -7.0018   -1.6620   -1.4294 H       1  UNL1        0.0284
     35 H          -5.7000   -0.3950   -1.7777 H       1  UNL1        0.0284
     36 H          -7.1666   -0.9658    0.9799 H       1  UNL1        0.0284
     37 H          -5.9386    0.4192    0.6125 H       1  UNL1        0.0284
@<TRIPOS>BOND
     1     1     2    1
     2     2     3   ar
     3     3     4   ar
     4     4     5   ar
     5     5     6    1
     6     6     7    3
     7     5     8   ar
     8     8     9   ar
     9     9    10   ar
    10    10    11   ar
    11    11    12   ar
    12    12    13    1
    13    13    14   ar
    14    14    15   ar
    15    15    16   ar
    16    16    17    1
    17    17    18    2
    18    17    19   am
    19    19    20    1
    20    20    21    1
    21    21    22    1
    22    16    23   ar
    23    12     2   ar
    24    23    13   ar
    25    11     4   ar
    26    22    20    1
    27     1    24    1
    28     1    25    1
    29     1    26    1
    30     8    27    1
    31     9    28    1
    32    10    29    1
    33    14    30    1
    34    15    31    1
    35    19    32    1
    36    20    33    1
    37    21    34    1
    38    21    35    1
    39    22    36    1
    40    22    37    1
