@<TRIPOS>MOLECULE
*****
 45 46 0 0 0
SMALL
GASTEIGER

@<TRIPOS>ATOM
      1 C           0.6798   -0.6335    1.3854 C.3     1  UNL1        0.0089
      2 N           1.2511   -1.2028    0.2123 N.3     1  UNL1       -0.1793
      3 C           2.5373   -0.6722   -0.1486 C.3     1  UNL1        0.0242
      4 C           2.7234    0.7658    0.2491 C.3     1  UNL1       -0.0132
      5 C           4.0838    1.1810   -0.1807 C.ar    1  UNL1       -0.0461
      6 C           5.1947    1.0601    0.6107 C.ar    1  UNL1       -0.0585
      7 C           6.4484    1.4562    0.1795 C.ar    1  UNL1       -0.0615
      8 C           6.5659    1.9912   -1.0989 C.ar    1  UNL1       -0.0617
      9 C           5.4594    2.1238   -1.9174 C.ar    1  UNL1       -0.0615
     10 C           4.2363    1.7158   -1.4430 C.ar    1  UNL1       -0.0585
     11 S           0.1740   -0.9166   -1.1076 S.O2    1  UNL1        0.0606
     12 O           0.7664   -1.4010   -2.3913 O.2     1  UNL1       -0.1529
     13 O          -0.1187    0.5666   -1.2515 O.2     1  UNL1       -0.1529
     14 C          -1.3530   -1.7099   -0.7654 C.ar    1  UNL1        0.1060
     15 C          -1.6063   -3.0046   -1.1428 C.ar    1  UNL1       -0.0353
     16 C          -2.8147   -3.6169   -0.8663 C.ar    1  UNL1       -0.0594
     17 C          -3.7936   -2.9051   -0.1916 C.ar    1  UNL1       -0.0545
     18 C          -3.5812   -1.5977    0.2075 C.ar    1  UNL1       -0.0230
     19 C          -4.6510   -0.9044    0.9133 C.2     1  UNL1       -0.0496
     20 C          -4.5999    0.3291    1.3522 C.2     1  UNL1        0.0027
     21 C          -5.7259    0.9372    2.0496 C.2     1  UNL1        0.2593
     22 O          -6.7852    0.2946    2.2527 O.2     1  UNL1       -0.2687
     23 N          -5.6289    2.2716    2.5068 N.am    1  UNL1       -0.1940
     24 O          -6.6477    2.8963    3.1656 O.3     1  UNL1       -0.2949
     25 C          -2.3722   -1.0316   -0.0864 C.ar    1  UNL1       -0.0282
     26 H           1.1719   -0.9404    2.3276 H       1  UNL1        0.0408
     27 H           0.6472    0.4725    1.3393 H       1  UNL1        0.0408
     28 H          -0.3722   -0.9804    1.4602 H       1  UNL1        0.0408
     29 H           3.3034   -1.2611    0.3980 H       1  UNL1        0.0447
     30 H           2.7672   -0.7582   -1.2175 H       1  UNL1        0.0447
     31 H           2.6688    0.8816    1.3593 H       1  UNL1        0.0326
     32 H           2.0104    1.4576   -0.2403 H       1  UNL1        0.0326
     33 H           5.0482    0.6328    1.6083 H       1  UNL1        0.0620
     34 H           7.3070    1.3454    0.8340 H       1  UNL1        0.0618
     35 H           7.5181    2.3072   -1.4642 H       1  UNL1        0.0618
     36 H           5.5710    2.5399   -2.9027 H       1  UNL1        0.0618
     37 H           3.3697    1.8223   -2.0905 H       1  UNL1        0.0620
     38 H          -0.8107   -3.5333   -1.6725 H       1  UNL1        0.0637
     39 H          -2.9666   -4.6416   -1.1852 H       1  UNL1        0.0618
     40 H          -4.7274   -3.4090    0.0106 H       1  UNL1        0.0623
     41 H          -5.6010   -1.4240    1.1165 H       1  UNL1        0.0625
     42 H          -3.7013    0.8938    1.1873 H       1  UNL1        0.0670
     43 H          -4.7319    2.7786    2.3210 H       1  UNL1        0.1825
     44 H          -6.7386    3.8263    2.8480 H       1  UNL1        0.2414
     45 H          -2.1757   -0.0032    0.2152 H       1  UNL1        0.0643
@<TRIPOS>BOND
     1     1     2    1
     2     2     3    1
     3     3     4    1
     4     4     5    1
     5     5     6   ar
     6     6     7   ar
     7     7     8   ar
     8     8     9   ar
     9     9    10   ar
    10     2    11    1
    11    11    12    2
    12    11    13    2
    13    11    14    1
    14    14    15   ar
    15    15    16   ar
    16    16    17   ar
    17    17    18   ar
    18    18    19    1
    19    19    20    2
    20    20    21    1
    21    21    22    2
    22    21    23   am
    23    23    24    1
    24    18    25   ar
    25    10     5   ar
    26    25    14   ar
    27     1    26    1
    28     1    27    1
    29     1    28    1
    30     3    29    1
    31     3    30    1
    32     4    31    1
    33     4    32    1
    34     6    33    1
    35     7    34    1
    36     8    35    1
    37     9    36    1
    38    10    37    1
    39    15    38    1
    40    16    39    1
    41    17    40    1
    42    19    41    1
    43    20    42    1
    44    23    43    1
    45    24    44    1
    46    25    45    1
