
     RDKit          3D

 44 47  0  0  0  0  0  0  0  0999 V2000
    5.5661    0.6366    0.9703 C   0  0  0  0  0  0  0  0  0  0  0  0
    4.2982   -0.0027    0.6807 N   0  0  0  0  0  0  0  0  0  0  0  0
    3.4457   -0.1031    1.8414 C   0  0  0  0  0  0  0  0  0  0  0  0
    2.3090   -1.0513    1.5267 C   0  0  0  0  0  0  0  0  0  0  0  0
    1.5757   -0.4753    0.4180 N   0  0  0  0  0  0  0  0  0  0  0  0
    2.1547    0.5430   -0.4269 C   0  0  0  0  0  0  0  0  0  0  0  0
    3.6467    0.4855   -0.4827 C   0  0  0  0  0  0  0  0  0  0  0  0
    0.2589   -0.9663    0.2084 C   0  0  0  0  0  0  0  0  0  0  0  0
   -0.1264   -1.8525    1.0142 O   0  0  0  0  0  0  0  0  0  0  0  0
   -0.5865   -0.5264   -0.8081 O   0  0  0  0  0  0  0  0  0  0  0  0
   -1.8884   -1.0190   -1.0070 C   0  0  0  0  0  0  0  0  0  0  0  0
   -2.8354    0.1041   -0.9345 N   0  0  0  0  0  0  0  0  0  0  0  0
   -3.5267    0.2219   -2.1934 C   0  0  0  0  0  0  0  0  0  0  0  0
   -4.3939    1.0801   -2.4454 O   0  0  0  0  0  0  0  0  0  0  0  0
   -3.0265   -0.8314   -3.0908 C   0  0  0  0  0  0  0  0  0  0  0  0
   -3.3098   -1.1857   -4.3586 N   0  0  0  0  0  0  0  0  0  0  0  0
   -2.6470   -2.2348   -4.9004 C   0  0  0  0  0  0  0  0  0  0  0  0
   -1.6899   -2.9772   -4.2397 C   0  0  0  0  0  0  0  0  0  0  0  0
   -1.4277   -2.5903   -2.9565 N   0  0  0  0  0  0  0  0  0  0  0  0
   -2.0741   -1.5511   -2.3980 C   0  0  0  0  0  0  0  0  0  0  0  0
   -2.9603    0.8819    0.2515 C   0  0  0  0  0  0  0  0  0  0  0  0
   -3.8658    0.4949    1.1888 N   0  0  0  0  0  0  0  0  0  0  0  0
   -4.0392    1.1797    2.3331 C   0  0  0  0  0  0  0  0  0  0  0  0
   -3.3101    2.3152    2.6261 C   0  0  0  0  0  0  0  0  0  0  0  0
   -3.5300    3.2032    4.1023 Cl  0  0  0  0  0  0  0  0  0  0  0  0
   -2.3809    2.7121    1.6641 C   0  0  0  0  0  0  0  0  0  0  0  0
   -2.1940    2.0152    0.4829 C   0  0  0  0  0  0  0  0  0  0  0  0
    6.3579    0.0614    0.4425 H   0  0  0  0  0  0  0  0  0  0  0  0
    5.5049    1.6591    0.5505 H   0  0  0  0  0  0  0  0  0  0  0  0
    5.8114    0.6432    2.0425 H   0  0  0  0  0  0  0  0  0  0  0  0
    4.0346   -0.5659    2.6616 H   0  0  0  0  0  0  0  0  0  0  0  0
    3.0595    0.8743    2.1596 H   0  0  0  0  0  0  0  0  0  0  0  0
    2.7913   -1.9855    1.1380 H   0  0  0  0  0  0  0  0  0  0  0  0
    1.6874   -1.2493    2.4131 H   0  0  0  0  0  0  0  0  0  0  0  0
    1.7610    1.5597   -0.1876 H   0  0  0  0  0  0  0  0  0  0  0  0
    1.7685    0.3274   -1.4532 H   0  0  0  0  0  0  0  0  0  0  0  0
    3.9986    1.5449   -0.6342 H   0  0  0  0  0  0  0  0  0  0  0  0
    3.9941   -0.0571   -1.3840 H   0  0  0  0  0  0  0  0  0  0  0  0
   -2.0706   -1.7761   -0.2313 H   0  0  0  0  0  0  0  0  0  0  0  0
   -2.9014   -2.4961   -5.9326 H   0  0  0  0  0  0  0  0  0  0  0  0
   -1.1891   -3.8078   -4.7198 H   0  0  0  0  0  0  0  0  0  0  0  0
   -4.7729    0.8655    3.0917 H   0  0  0  0  0  0  0  0  0  0  0  0
   -1.7928    3.5972    1.8611 H   0  0  0  0  0  0  0  0  0  0  0  0
   -1.4848    2.2987   -0.2760 H   0  0  0  0  0  0  0  0  0  0  0  0
  1  2  1  0
  2  3  1  0
  3  4  1  0
  4  5  1  0
  5  6  1  0
  6  7  1  0
  5  8  1  0
  8  9  2  0
  8 10  1  0
 10 11  1  0
 11 12  1  0
 12 13  1  0
 13 14  2  0
 13 15  1  0
 15 16  2  0
 16 17  1  0
 17 18  2  0
 18 19  1  0
 19 20  2  0
 12 21  1  0
 21 22  2  0
 22 23  1  0
 23 24  2  0
 24 25  1  0
 24 26  1  0
 26 27  2  0
  7  2  1  0
 20 11  1  0
 27 21  1  0
 20 15  1  0
  1 28  1  0
  1 29  1  0
  1 30  1  0
  3 31  1  0
  3 32  1  0
  4 33  1  0
  4 34  1  0
  6 35  1  0
  6 36  1  0
  7 37  1  0
  7 38  1  0
 11 39  1  0
 17 40  1  0
 18 41  1  0
 23 42  1  0
 26 43  1  0
 27 44  1  0
M  END
$$$$
