
     RDKit          3D

 46 49  0  0  0  0  0  0  0  0999 V2000
   -5.0932   -1.9833    1.0633 C   0  0  0  0  0  0  0  0  0  0  0  0
   -4.4504   -0.7083    0.5388 C   0  0  0  0  0  0  0  0  0  0  0  0
   -3.5333   -0.9930   -0.4639 O   0  0  0  0  0  0  0  0  0  0  0  0
   -2.9635    0.1993   -0.9208 C   0  0  0  0  0  0  0  0  0  0  0  0
   -1.9457   -0.0972   -2.0177 C   0  0  0  0  0  0  0  0  0  0  0  0
   -0.8907   -0.9576   -1.5151 N   0  0  0  0  0  0  0  0  0  0  0  0
   -0.9430   -2.2983   -1.5543 C   0  0  0  0  0  0  0  0  0  0  0  0
    0.1732   -2.7795   -1.0067 N   0  0  0  0  0  0  0  0  0  0  0  0
    0.9353   -1.7317   -0.6195 C   0  0  0  0  0  0  0  0  0  0  0  0
    2.2185   -1.9034    0.0304 C   0  0  0  0  0  0  0  0  0  0  0  0
    2.2917   -2.5076    1.2826 C   0  0  0  0  0  0  0  0  0  0  0  0
    3.5068   -2.6890    1.9139 C   0  0  0  0  0  0  0  0  0  0  0  0
    4.6662   -2.2713    1.3098 C   0  0  0  0  0  0  0  0  0  0  0  0
    5.8781   -2.4472    1.9289 F   0  0  0  0  0  0  0  0  0  0  0  0
    4.5872   -1.6774    0.0783 C   0  0  0  0  0  0  0  0  0  0  0  0
    3.3641   -1.4886   -0.5716 C   0  0  0  0  0  0  0  0  0  0  0  0
    0.2611   -0.5760   -0.9423 C   0  0  0  0  0  0  0  0  0  0  0  0
    0.7305    0.7943   -0.7106 C   0  0  0  0  0  0  0  0  0  0  0  0
    1.6547    1.3134   -1.6046 C   0  0  0  0  0  0  0  0  0  0  0  0
    2.1178    2.5929   -1.4104 C   0  0  0  0  0  0  0  0  0  0  0  0
    1.6538    3.3236   -0.3379 C   0  0  0  0  0  0  0  0  0  0  0  0
    1.9637    4.5749    0.0410 N   0  0  0  0  0  0  0  0  0  0  0  0
    1.2796    4.8764    1.1350 C   0  0  0  0  0  0  0  0  0  0  0  0
    0.5179    3.7697    1.4433 C   0  0  0  0  0  0  0  0  0  0  0  0
   -0.3715    3.6469    2.5446 C   0  0  0  0  0  0  0  0  0  0  0  0
   -1.1018    3.5504    3.4537 N   0  0  0  0  0  0  0  0  0  0  0  0
    0.7515    2.8027    0.5256 N   0  0  0  0  0  0  0  0  0  0  0  0
    0.2990    1.5538    0.3368 C   0  0  0  0  0  0  0  0  0  0  0  0
   -6.0189   -2.2369    0.4897 H   0  0  0  0  0  0  0  0  0  0  0  0
   -5.3861   -1.8200    2.1247 H   0  0  0  0  0  0  0  0  0  0  0  0
   -4.4190   -2.8466    0.9840 H   0  0  0  0  0  0  0  0  0  0  0  0
   -5.2508   -0.0345    0.1797 H   0  0  0  0  0  0  0  0  0  0  0  0
   -3.9259   -0.1748    1.3787 H   0  0  0  0  0  0  0  0  0  0  0  0
   -3.7472    0.8323   -1.3840 H   0  0  0  0  0  0  0  0  0  0  0  0
   -2.5367    0.7133   -0.0597 H   0  0  0  0  0  0  0  0  0  0  0  0
   -1.5817    0.8701   -2.3958 H   0  0  0  0  0  0  0  0  0  0  0  0
   -2.5130   -0.5888   -2.8387 H   0  0  0  0  0  0  0  0  0  0  0  0
   -1.7590   -2.9184   -1.9654 H   0  0  0  0  0  0  0  0  0  0  0  0
    1.3809   -2.8399    1.7661 H   0  0  0  0  0  0  0  0  0  0  0  0
    3.5977   -3.1593    2.8926 H   0  0  0  0  0  0  0  0  0  0  0  0
    5.5170   -1.3415   -0.4081 H   0  0  0  0  0  0  0  0  0  0  0  0
    3.3697   -1.0095   -1.5577 H   0  0  0  0  0  0  0  0  0  0  0  0
    1.9994    0.7160   -2.4424 H   0  0  0  0  0  0  0  0  0  0  0  0
    2.8421    3.0323   -2.0905 H   0  0  0  0  0  0  0  0  0  0  0  0
    1.2943    5.7965    1.6949 H   0  0  0  0  0  0  0  0  0  0  0  0
   -0.4203    1.1209    1.0127 H   0  0  0  0  0  0  0  0  0  0  0  0
  1  2  1  0
  2  3  1  0
  3  4  1  0
  4  5  1  0
  5  6  1  0
  6  7  1  0
  7  8  2  0
  8  9  1  0
  9 10  1  0
 10 11  2  0
 11 12  1  0
 12 13  2  0
 13 14  1  0
 13 15  1  0
 15 16  2  0
  9 17  2  0
 17 18  1  0
 18 19  1  0
 19 20  2  0
 20 21  1  0
 21 22  2  0
 22 23  1  0
 23 24  2  0
 24 25  1  0
 25 26  3  0
 24 27  1  0
 27 28  1  0
 17  6  1  0
 28 18  2  0
 16 10  1  0
 27 21  1  0
  1 29  1  0
  1 30  1  0
  1 31  1  0
  2 32  1  0
  2 33  1  0
  4 34  1  0
  4 35  1  0
  5 36  1  0
  5 37  1  0
  7 38  1  0
 11 39  1  0
 12 40  1  0
 15 41  1  0
 16 42  1  0
 19 43  1  0
 20 44  1  0
 23 45  1  0
 28 46  1  0
M  END
$$$$
