@<TRIPOS>MOLECULE
*****
 46 49 0 0 0
SMALL
GASTEIGER

@<TRIPOS>ATOM
      1 C          -5.0932   -1.9833    1.0633 C.3     1  UNL1       -0.0416
      2 C          -4.4504   -0.7083    0.5388 C.3     1  UNL1        0.0449
      3 O          -3.5333   -0.9930   -0.4639 O.3     1  UNL1       -0.3783
      4 C          -2.9635    0.1993   -0.9208 C.3     1  UNL1        0.0656
      5 C          -1.9457   -0.0972   -2.0177 C.3     1  UNL1        0.0481
      6 N          -0.8907   -0.9576   -1.5151 N.ar    1  UNL1       -0.3274
      7 C          -0.9430   -2.2983   -1.5543 C.ar    1  UNL1        0.0971
      8 N           0.1732   -2.7795   -1.0067 N.ar    1  UNL1       -0.2351
      9 C           0.9353   -1.7317   -0.6195 C.ar    1  UNL1        0.0967
     10 C           2.2185   -1.9034    0.0304 C.ar    1  UNL1        0.0026
     11 C           2.2917   -2.5076    1.2826 C.ar    1  UNL1       -0.0498
     12 C           3.5068   -2.6890    1.9139 C.ar    1  UNL1       -0.0258
     13 C           4.6662   -2.2713    1.3098 C.ar    1  UNL1        0.1234
     14 F           5.8781   -2.4472    1.9289 F       1  UNL1       -0.2055
     15 C           4.5872   -1.6774    0.0783 C.ar    1  UNL1       -0.0258
     16 C           3.3641   -1.4886   -0.5716 C.ar    1  UNL1       -0.0498
     17 C           0.2611   -0.5760   -0.9423 C.ar    1  UNL1        0.0779
     18 C           0.7305    0.7943   -0.7106 C.ar    1  UNL1        0.0173
     19 C           1.6547    1.3134   -1.6046 C.ar    1  UNL1       -0.0477
     20 C           2.1178    2.5929   -1.4104 C.ar    1  UNL1       -0.0181
     21 C           1.6538    3.3236   -0.3379 C.ar    1  UNL1        0.1385
     22 N           1.9637    4.5749    0.0410 N.ar    1  UNL1       -0.2348
     23 C           1.2796    4.8764    1.1350 C.ar    1  UNL1        0.0643
     24 C           0.5179    3.7697    1.4433 C.ar    1  UNL1        0.1438
     25 C          -0.3715    3.6469    2.5446 C.1     1  UNL1        0.1192
     26 N          -1.1018    3.5504    3.4537 N.1     1  UNL1       -0.1893
     27 N           0.7515    2.8027    0.5256 N.ar    1  UNL1       -0.2906
     28 C           0.2990    1.5538    0.3368 C.ar    1  UNL1        0.0216
     29 H          -6.0189   -2.2369    0.4897 H       1  UNL1        0.0252
     30 H          -5.3861   -1.8200    2.1247 H       1  UNL1        0.0252
     31 H          -4.4190   -2.8466    0.9840 H       1  UNL1        0.0252
     32 H          -5.2508   -0.0345    0.1797 H       1  UNL1        0.0557
     33 H          -3.9259   -0.1748    1.3787 H       1  UNL1        0.0557
     34 H          -3.7472    0.8323   -1.3840 H       1  UNL1        0.0577
     35 H          -2.5367    0.7133   -0.0597 H       1  UNL1        0.0577
     36 H          -1.5817    0.8701   -2.3958 H       1  UNL1        0.0515
     37 H          -2.5130   -0.5888   -2.8387 H       1  UNL1        0.0515
     38 H          -1.7590   -2.9184   -1.9654 H       1  UNL1        0.1029
     39 H           1.3809   -2.8399    1.7661 H       1  UNL1        0.0625
     40 H           3.5977   -3.1593    2.8926 H       1  UNL1        0.0646
     41 H           5.5170   -1.3415   -0.4081 H       1  UNL1        0.0646
     42 H           3.3697   -1.0095   -1.5577 H       1  UNL1        0.0625
     43 H           1.9994    0.7160   -2.4424 H       1  UNL1        0.0626
     44 H           2.8421    3.0323   -2.0905 H       1  UNL1        0.0654
     45 H           1.2943    5.7965    1.6949 H       1  UNL1        0.0859
     46 H          -0.4203    1.1209    1.0127 H       1  UNL1        0.0820
@<TRIPOS>BOND
     1     1     2    1
     2     2     3    1
     3     3     4    1
     4     4     5    1
     5     5     6    1
     6     6     7   ar
     7     7     8   ar
     8     8     9   ar
     9     9    10    1
    10    10    11   ar
    11    11    12   ar
    12    12    13   ar
    13    13    14    1
    14    13    15   ar
    15    15    16   ar
    16     9    17   ar
    17    17    18    1
    18    18    19   ar
    19    19    20   ar
    20    20    21   ar
    21    21    22   ar
    22    22    23   ar
    23    23    24   ar
    24    24    25    1
    25    25    26    3
    26    24    27   ar
    27    27    28   ar
    28    17     6   ar
    29    28    18   ar
    30    16    10   ar
    31    27    21   ar
    32     1    29    1
    33     1    30    1
    34     1    31    1
    35     2    32    1
    36     2    33    1
    37     4    34    1
    38     4    35    1
    39     5    36    1
    40     5    37    1
    41     7    38    1
    42    11    39    1
    43    12    40    1
    44    15    41    1
    45    16    42    1
    46    19    43    1
    47    20    44    1
    48    23    45    1
    49    28    46    1
