@<TRIPOS>MOLECULE
*****
 51 54 0 0 0
SMALL
GASTEIGER

@<TRIPOS>ATOM
      1 C           6.7717    0.6435    4.0017 C.1     1  UNL1       -0.1158
      2 C           7.3844    1.1570    2.9071 C.1     1  UNL1       -0.0647
      3 C           8.0160    1.6646    1.7725 C.3     1  UNL1        0.1513
      4 O           7.6449    0.9285    0.5938 O.3     1  UNL1       -0.4624
      5 C           6.3375    0.7569    0.2761 C.ar    1  UNL1        0.2344
      6 C           5.8507    0.0628   -0.8448 C.ar    1  UNL1        0.0899
      7 N           4.5274   -0.0044   -0.9643 N.ar    1  UNL1       -0.2459
      8 C           3.6058    0.4799   -0.2023 C.ar    1  UNL1        0.1172
      9 C           2.1873    0.2171   -0.3767 C.2     1  UNL1        0.1507
     10 F           1.3240    0.6287    0.5953 F       1  UNL1       -0.2032
     11 C           1.7912   -0.4283   -1.3695 C.2     1  UNL1       -0.0171
     12 C           0.3628   -0.8192   -1.7305 C.ar    1  UNL1       -0.0217
     13 C           0.2975   -2.0085   -2.3539 C.ar    1  UNL1       -0.0518
     14 C          -0.9215   -2.7607   -2.2837 C.ar    1  UNL1       -0.0255
     15 C          -1.9201   -2.0937   -1.5306 C.ar    1  UNL1        0.1289
     16 F          -3.0288   -2.9611   -1.4121 F       1  UNL1       -0.2051
     17 C          -1.8629   -0.9434   -0.9424 C.ar    1  UNL1        0.0158
     18 C          -2.8212   -0.3539    0.0193 C.3     1  UNL1        0.0935
     19 C          -2.3496   -1.1386    1.3245 C.3     1  UNL1       -0.0351
     20 N          -2.4094    1.0173    0.3303 N.2     1  UNL1       -0.2521
     21 C          -2.8886    2.0066   -0.3844 C.2     1  UNL1        0.1485
     22 N          -2.5438    3.3237   -0.1492 N.pl3   1  UNL1       -0.3380
     23 S          -4.0853    1.5726   -1.6348 S.3     1  UNL1       -0.0746
     24 C          -5.1418    0.3084   -0.7778 C.3     1  UNL1        0.1050
     25 C          -6.3192    0.8303   -0.0993 C.2     1  UNL1        0.2273
     26 N          -6.8635    0.2179    1.0577 N.am    1  UNL1       -0.3282
     27 O          -6.8795    1.8803   -0.5748 O.2     1  UNL1       -0.2745
     28 C          -4.9969   -1.0632   -1.3012 C.3     1  UNL1       -0.0220
     29 C          -4.2483   -0.6354   -0.0627 C.3     1  UNL1        0.0134
     30 C          -0.6343   -0.1885   -1.0207 C.ar    1  UNL1       -0.0463
     31 C           4.0798    1.1861    0.9323 C.ar    1  UNL1        0.0596
     32 N           5.3910    1.2777    1.1034 N.ar    1  UNL1       -0.2178
     33 H           6.2632    0.2417    4.8876 H       1  UNL1        0.1229
     34 H           9.1571    1.6260    1.8939 H       1  UNL1        0.0837
     35 H           7.7745    2.7441    1.6185 H       1  UNL1        0.0837
     36 H           6.5575   -0.3615   -1.5376 H       1  UNL1        0.0884
     37 H           2.5331   -0.7531   -2.1379 H       1  UNL1        0.0653
     38 H           1.1121   -2.4384   -2.9335 H       1  UNL1        0.0624
     39 H          -0.9796   -3.6783   -2.7514 H       1  UNL1        0.0646
     40 H          -2.7349   -0.5747    2.1982 H       1  UNL1        0.0256
     41 H          -2.9187   -2.0903    1.2397 H       1  UNL1        0.0256
     42 H          -1.2624   -1.2567    1.2877 H       1  UNL1        0.0256
     43 H          -2.9214    3.8515    0.6925 H       1  UNL1        0.1442
     44 H          -1.8890    3.8582   -0.7848 H       1  UNL1        0.1442
     45 H          -6.3101   -0.2715    1.7898 H       1  UNL1        0.1450
     46 H          -7.9197    0.2318    1.2272 H       1  UNL1        0.1450
     47 H          -5.7644   -1.8483   -1.1765 H       1  UNL1        0.0287
     48 H          -4.4472   -1.1912   -2.2841 H       1  UNL1        0.0287
     49 H          -4.7516   -1.0795    0.8514 H       1  UNL1        0.0346
     50 H          -0.5232    0.7586   -0.5835 H       1  UNL1        0.0628
     51 H           3.3677    1.6024    1.6045 H       1  UNL1        0.0853
@<TRIPOS>BOND
     1     1     2    3
     2     2     3    1
     3     3     4    1
     4     4     5    1
     5     5     6   ar
     6     6     7   ar
     7     7     8   ar
     8     8     9    1
     9     9    10    1
    10     9    11    2
    11    11    12    1
    12    12    13   ar
    13    13    14   ar
    14    14    15   ar
    15    15    16    1
    16    15    17   ar
    17    17    18    1
    18    18    19    1
    19    18    20    1
    20    20    21    2
    21    21    22    1
    22    21    23    1
    23    23    24    1
    24    24    25    1
    25    25    26   am
    26    25    27    2
    27    24    28    1
    28    28    29    1
    29    17    30   ar
    30     8    31   ar
    31    31    32   ar
    32    32     5   ar
    33    30    12   ar
    34    29    18    1
    35    29    24    1
    36     1    33    1
    37     3    34    1
    38     3    35    1
    39     6    36    1
    40    11    37    1
    41    13    38    1
    42    14    39    1
    43    19    40    1
    44    19    41    1
    45    19    42    1
    46    22    43    1
    47    22    44    1
    48    26    45    1
    49    26    46    1
    50    28    47    1
    51    28    48    1
    52    29    49    1
    53    30    50    1
    54    31    51    1
