
     RDKit          3D

 64 68  0  0  0  0  0  0  0  0999 V2000
    8.6616   -0.4927   -0.0104 C   0  0  0  0  0  0  0  0  0  0  0  0
    8.1462    0.6045    0.8736 C   0  0  0  0  0  0  0  0  0  0  0  0
    7.0496    0.2463    1.6616 O   0  0  0  0  0  0  0  0  0  0  0  0
    5.8277   -0.1547    1.1556 C   0  0  0  0  0  0  0  0  0  0  0  0
    5.5764   -0.2415   -0.1952 C   0  0  0  0  0  0  0  0  0  0  0  0
    4.3723   -0.6364   -0.6686 N   0  0  0  0  0  0  0  0  0  0  0  0
    3.3571   -0.9653    0.1607 C   0  0  0  0  0  0  0  0  0  0  0  0
    2.0864   -1.3808   -0.3789 C   0  0  0  0  0  0  0  0  0  0  0  0
    1.9480   -1.4168   -1.7454 F   0  0  0  0  0  0  0  0  0  0  0  0
    1.0269   -1.7322    0.3184 C   0  0  0  0  0  0  0  0  0  0  0  0
   -0.2296   -2.1431   -0.3030 C   0  0  0  0  0  0  0  0  0  0  0  0
   -0.3278   -2.8935   -1.4511 C   0  0  0  0  0  0  0  0  0  0  0  0
   -1.5654   -3.2423   -1.9809 C   0  0  0  0  0  0  0  0  0  0  0  0
   -2.7274   -2.8405   -1.3620 C   0  0  0  0  0  0  0  0  0  0  0  0
   -3.9542   -3.2091   -1.8810 F   0  0  0  0  0  0  0  0  0  0  0  0
   -2.6336   -2.0916   -0.2177 C   0  0  0  0  0  0  0  0  0  0  0  0
   -3.8844   -1.6265    0.4608 C   0  0  1  0  0  0  0  0  0  0  0  0
   -4.5151   -2.9361    0.9821 C   0  0  0  0  0  0  0  0  0  0  0  0
   -3.5509   -0.8906    1.6381 N   0  0  0  0  0  0  0  0  0  0  0  0
   -3.2013    0.3276    1.6191 C   0  0  0  0  0  0  0  0  0  0  0  0
   -2.8753    1.0353    2.7882 N   0  0  0  0  0  0  0  0  0  0  0  0
   -3.1647    1.0956    0.0025 S   0  0  0  0  0  0  0  0  0  0  0  0
   -4.6863    0.4336   -0.7971 C   0  0  1  0  0  0  0  0  0  0  0  0
   -5.7600    1.4030   -0.9981 C   0  0  0  0  0  0  0  0  0  0  0  0
   -6.4014    1.3232   -2.1035 O   0  0  0  0  0  0  0  0  0  0  0  0
   -6.1453    2.4007   -0.0970 N   0  0  0  0  0  0  0  0  0  0  0  0
   -5.5362    2.6165    1.1956 C   0  0  0  0  0  0  0  0  0  0  0  0
   -7.2468    3.2976   -0.4872 C   0  0  0  0  0  0  0  0  0  0  0  0
   -4.4840   -0.6068   -1.8517 C   0  0  0  0  0  0  0  0  0  0  0  0
   -4.8358   -0.9705   -0.4628 C   0  0  1  0  0  0  0  0  0  0  0  0
   -1.4065   -1.7537    0.2964 C   0  0  0  0  0  0  0  0  0  0  0  0
    3.6291   -0.8719    1.4977 C   0  0  0  0  0  0  0  0  0  0  0  0
    4.8105   -0.4842    1.9967 N   0  0  0  0  0  0  0  0  0  0  0  0
    7.8210    1.8329    0.0908 C   0  0  0  0  0  0  0  0  0  0  0  0
    7.1745    2.8894    0.5930 N   0  0  0  0  0  0  0  0  0  0  0  0
    7.0467    3.8103   -0.3606 C   0  0  0  0  0  0  0  0  0  0  0  0
    7.6349    3.2950   -1.4777 C   0  0  0  0  0  0  0  0  0  0  0  0
    8.0844    2.1088   -1.1589 O   0  0  0  0  0  0  0  0  0  0  0  0
    9.6953   -0.7977    0.3138 H   0  0  0  0  0  0  0  0  0  0  0  0
    8.0413   -1.4169    0.0666 H   0  0  0  0  0  0  0  0  0  0  0  0
    8.7560   -0.2065   -1.0612 H   0  0  0  0  0  0  0  0  0  0  0  0
    8.9790    0.9124    1.5783 H   0  0  0  0  0  0  0  0  0  0  0  0
    6.3880    0.0200   -0.8802 H   0  0  0  0  0  0  0  0  0  0  0  0
    1.1161   -1.7075    1.3990 H   0  0  0  0  0  0  0  0  0  0  0  0
    0.5699   -3.2169   -1.9443 H   0  0  0  0  0  0  0  0  0  0  0  0
   -1.5979   -3.8311   -2.8821 H   0  0  0  0  0  0  0  0  0  0  0  0
   -3.6867   -3.5048    1.4579 H   0  0  0  0  0  0  0  0  0  0  0  0
   -4.9206   -3.5419    0.1738 H   0  0  0  0  0  0  0  0  0  0  0  0
   -5.2482   -2.7292    1.7767 H   0  0  0  0  0  0  0  0  0  0  0  0
   -3.5344    1.1252    3.6099 H   0  0  0  0  0  0  0  0  0  0  0  0
   -1.9567    1.5148    2.9091 H   0  0  0  0  0  0  0  0  0  0  0  0
   -5.7198    1.6800    1.7770 H   0  0  0  0  0  0  0  0  0  0  0  0
   -4.4785    2.8845    1.1693 H   0  0  0  0  0  0  0  0  0  0  0  0
   -6.0342    3.4832    1.7295 H   0  0  0  0  0  0  0  0  0  0  0  0
   -7.4850    3.2008   -1.5614 H   0  0  0  0  0  0  0  0  0  0  0  0
   -6.9918    4.3408   -0.2427 H   0  0  0  0  0  0  0  0  0  0  0  0
   -8.1341    2.9312    0.0694 H   0  0  0  0  0  0  0  0  0  0  0  0
   -3.4738   -0.6063   -2.2700 H   0  0  0  0  0  0  0  0  0  0  0  0
   -5.2778   -0.6558   -2.6203 H   0  0  0  0  0  0  0  0  0  0  0  0
   -5.9035   -1.3402   -0.3395 H   0  0  0  0  0  0  0  0  0  0  0  0
   -1.3253   -1.1508    1.2266 H   0  0  0  0  0  0  0  0  0  0  0  0
    2.8234   -1.1322    2.2024 H   0  0  0  0  0  0  0  0  0  0  0  0
    6.5769    4.7987   -0.3226 H   0  0  0  0  0  0  0  0  0  0  0  0
    7.7010    3.8064   -2.4458 H   0  0  0  0  0  0  0  0  0  0  0  0
  1  2  1  0
  2  3  1  0
  3  4  1  0
  4  5  2  0
  5  6  1  0
  6  7  2  0
  7  8  1  0
  8  9  1  0
  8 10  2  0
 10 11  1  0
 11 12  2  0
 12 13  1  0
 13 14  2  0
 14 15  1  0
 14 16  1  0
 16 17  1  0
 17 18  1  1
 17 19  1  0
 19 20  2  0
 20 21  1  0
 20 22  1  0
 22 23  1  0
 23 24  1  6
 24 25  2  0
 24 26  1  0
 26 27  1  0
 26 28  1  0
 23 29  1  0
 29 30  1  0
 16 31  2  0
  7 32  1  0
 32 33  2  0
  2 34  1  0
 34 35  2  0
 35 36  1  0
 36 37  2  0
 37 38  1  0
 33  4  1  0
 38 34  1  0
 31 11  1  0
 30 17  1  0
 30 23  1  0
  1 39  1  0
  1 40  1  0
  1 41  1  0
  2 42  1  0
  5 43  1  0
 10 44  1  0
 12 45  1  0
 13 46  1  0
 18 47  1  0
 18 48  1  0
 18 49  1  0
 21 50  1  0
 21 51  1  0
 27 52  1  0
 27 53  1  0
 27 54  1  0
 28 55  1  0
 28 56  1  0
 28 57  1  0
 29 58  1  0
 29 59  1  0
 30 60  1  6
 31 61  1  0
 32 62  1  0
 36 63  1  0
 37 64  1  0
M  END
$$$$
