@<TRIPOS>MOLECULE
*****
 64 68 0 0 0
SMALL
GASTEIGER

@<TRIPOS>ATOM
      1 C           8.6616   -0.4927   -0.0104 C.3     1  UNL1       -0.0189
      2 C           8.1462    0.6045    0.8736 C.3     1  UNL1        0.1742
      3 O           7.0496    0.2463    1.6616 O.3     1  UNL1       -0.4627
      4 C           5.8277   -0.1547    1.1556 C.ar    1  UNL1        0.2342
      5 C           5.5764   -0.2415   -0.1952 C.ar    1  UNL1        0.0899
      6 N           4.3723   -0.6364   -0.6686 N.ar    1  UNL1       -0.2459
      7 C           3.3571   -0.9653    0.1607 C.ar    1  UNL1        0.1172
      8 C           2.0864   -1.3808   -0.3789 C.2     1  UNL1        0.1507
      9 F           1.9480   -1.4168   -1.7454 F       1  UNL1       -0.2032
     10 C           1.0269   -1.7322    0.3184 C.2     1  UNL1       -0.0171
     11 C          -0.2296   -2.1431   -0.3030 C.ar    1  UNL1       -0.0217
     12 C          -0.3278   -2.8935   -1.4511 C.ar    1  UNL1       -0.0518
     13 C          -1.5654   -3.2423   -1.9809 C.ar    1  UNL1       -0.0255
     14 C          -2.7274   -2.8405   -1.3620 C.ar    1  UNL1        0.1289
     15 F          -3.9542   -3.2091   -1.8810 F       1  UNL1       -0.2051
     16 C          -2.6336   -2.0916   -0.2177 C.ar    1  UNL1        0.0158
     17 C          -3.8844   -1.6265    0.4608 C.3     1  UNL1        0.0935
     18 C          -4.5151   -2.9361    0.9821 C.3     1  UNL1       -0.0351
     19 N          -3.5509   -0.8906    1.6381 N.2     1  UNL1       -0.2521
     20 C          -3.2013    0.3276    1.6191 C.2     1  UNL1        0.1485
     21 N          -2.8753    1.0353    2.7882 N.pl3   1  UNL1       -0.3380
     22 S          -3.1647    1.0956    0.0025 S.3     1  UNL1       -0.0746
     23 C          -4.6863    0.4336   -0.7971 C.3     1  UNL1        0.1054
     24 C          -5.7600    1.4030   -0.9981 C.2     1  UNL1        0.2319
     25 O          -6.4014    1.3232   -2.1035 O.2     1  UNL1       -0.2741
     26 N          -6.1453    2.4007   -0.0970 N.am    1  UNL1       -0.3064
     27 C          -5.5362    2.6165    1.1956 C.3     1  UNL1        0.0029
     28 C          -7.2468    3.2976   -0.4872 C.3     1  UNL1        0.0029
     29 C          -4.4840   -0.6068   -1.8517 C.3     1  UNL1       -0.0220
     30 C          -4.8358   -0.9705   -0.4628 C.3     1  UNL1        0.0134
     31 C          -1.4065   -1.7537    0.2964 C.ar    1  UNL1       -0.0463
     32 C           3.6291   -0.8719    1.4977 C.ar    1  UNL1        0.0596
     33 N           4.8105   -0.4842    1.9967 N.ar    1  UNL1       -0.2178
     34 C           7.8210    1.8329    0.0908 C.ar    1  UNL1        0.2362
     35 N           7.1745    2.8894    0.5930 N.ar    1  UNL1       -0.2187
     36 C           7.0467    3.8103   -0.3606 C.ar    1  UNL1        0.0661
     37 C           7.6349    3.2950   -1.4777 C.ar    1  UNL1        0.1123
     38 O           8.0844    2.1088   -1.1589 O.2     1  UNL1       -0.4444
     39 H           9.6953   -0.7977    0.3138 H       1  UNL1        0.0270
     40 H           8.0413   -1.4169    0.0666 H       1  UNL1        0.0270
     41 H           8.7560   -0.2065   -1.0612 H       1  UNL1        0.0270
     42 H           8.9790    0.9124    1.5783 H       1  UNL1        0.0830
     43 H           6.3880    0.0200   -0.8802 H       1  UNL1        0.0884
     44 H           1.1161   -1.7075    1.3990 H       1  UNL1        0.0653
     45 H           0.5699   -3.2169   -1.9443 H       1  UNL1        0.0624
     46 H          -1.5979   -3.8311   -2.8821 H       1  UNL1        0.0646
     47 H          -3.6867   -3.5048    1.4579 H       1  UNL1        0.0256
     48 H          -4.9206   -3.5419    0.1738 H       1  UNL1        0.0256
     49 H          -5.2482   -2.7292    1.7767 H       1  UNL1        0.0256
     50 H          -3.5344    1.1252    3.6099 H       1  UNL1        0.1442
     51 H          -1.9567    1.5148    2.9091 H       1  UNL1        0.1442
     52 H          -5.7198    1.6800    1.7770 H       1  UNL1        0.0428
     53 H          -4.4785    2.8845    1.1693 H       1  UNL1        0.0428
     54 H          -6.0342    3.4832    1.7295 H       1  UNL1        0.0428
     55 H          -7.4850    3.2008   -1.5614 H       1  UNL1        0.0428
     56 H          -6.9918    4.3408   -0.2427 H       1  UNL1        0.0428
     57 H          -8.1341    2.9312    0.0694 H       1  UNL1        0.0428
     58 H          -3.4738   -0.6063   -2.2700 H       1  UNL1        0.0287
     59 H          -5.2778   -0.6558   -2.6203 H       1  UNL1        0.0287
     60 H          -5.9035   -1.3402   -0.3395 H       1  UNL1        0.0346
     61 H          -1.3253   -1.1508    1.2266 H       1  UNL1        0.0628
     62 H           2.8234   -1.1322    2.2024 H       1  UNL1        0.0853
     63 H           6.5769    4.7987   -0.3226 H       1  UNL1        0.0862
     64 H           7.7010    3.8064   -2.4458 H       1  UNL1        0.1046
@<TRIPOS>BOND
     1     1     2    1
     2     2     3    1
     3     3     4    1
     4     4     5   ar
     5     5     6   ar
     6     6     7   ar
     7     7     8    1
     8     8     9    1
     9     8    10    2
    10    10    11    1
    11    11    12   ar
    12    12    13   ar
    13    13    14   ar
    14    14    15    1
    15    14    16   ar
    16    16    17    1
    17    17    18    1
    18    17    19    1
    19    19    20    2
    20    20    21    1
    21    20    22    1
    22    22    23    1
    23    23    24    1
    24    24    25    2
    25    24    26   am
    26    26    27    1
    27    26    28    1
    28    23    29    1
    29    29    30    1
    30    16    31   ar
    31     7    32   ar
    32    32    33   ar
    33     2    34    1
    34    34    35   ar
    35    35    36   ar
    36    36    37   ar
    37    37    38   ar
    38    33     4   ar
    39    38    34   ar
    40    31    11   ar
    41    30    17    1
    42    30    23    1
    43     1    39    1
    44     1    40    1
    45     1    41    1
    46     2    42    1
    47     5    43    1
    48    10    44    1
    49    12    45    1
    50    13    46    1
    51    18    47    1
    52    18    48    1
    53    18    49    1
    54    21    50    1
    55    21    51    1
    56    27    52    1
    57    27    53    1
    58    27    54    1
    59    28    55    1
    60    28    56    1
    61    28    57    1
    62    29    58    1
    63    29    59    1
    64    30    60    1
    65    31    61    1
    66    32    62    1
    67    36    63    1
    68    37    64    1
