@<TRIPOS>MOLECULE
*****
 35 37 0 0 0
SMALL
GASTEIGER

@<TRIPOS>ATOM
      1 O           5.9559    0.2315    0.5304 O.2     1  UNL1       -0.2681
      2 C           5.2213    0.0691   -0.4756 C.2     1  UNL1        0.2665
      3 N           5.8276    0.0832   -1.7376 N.am    1  UNL1       -0.1935
      4 O           7.1626    0.2632   -1.9163 O.3     1  UNL1       -0.2949
      5 C           3.7898   -0.1264   -0.3255 C.ar    1  UNL1        0.0388
      6 C           3.2576   -0.1296    0.9702 C.ar    1  UNL1       -0.0478
      7 C           1.9138   -0.3095    1.1835 C.ar    1  UNL1       -0.0401
      8 C           1.0458   -0.4929    0.1239 C.ar    1  UNL1        0.0274
      9 N          -0.3450   -0.6759    0.4017 N.pl3   1  UNL1       -0.3397
     10 C          -1.2242   -0.8640   -0.7021 C.3     1  UNL1        0.0354
     11 C          -2.6309   -1.0293   -0.1181 C.ar    1  UNL1       -0.0157
     12 C          -3.1705   -2.2780   -0.0587 C.ar    1  UNL1       -0.0185
     13 S          -4.7866   -2.0229    0.6750 S.2     1  UNL1       -0.0963
     14 C          -4.6109   -0.2734    0.8425 C.ar    1  UNL1        0.0197
     15 C          -5.4969    0.6792    1.3576 C.ar    1  UNL1       -0.0464
     16 C          -5.1368    2.0063    1.3866 C.ar    1  UNL1       -0.0467
     17 C          -3.8857    2.2961    0.8865 C.ar    1  UNL1        0.0185
     18 BR         -3.3686    4.1375    0.9196 Br      1  UNL1       -0.0503
     19 C          -3.0235    1.3520    0.3827 C.ar    1  UNL1       -0.0392
     20 C          -3.3973   -0.0172    0.3539 C.ar    1  UNL1       -0.0051
     21 C           1.5359   -0.4952   -1.1631 C.ar    1  UNL1       -0.0401
     22 C           2.9076   -0.3096   -1.3451 C.ar    1  UNL1       -0.0478
     23 H           5.2640   -0.0461   -2.5924 H       1  UNL1        0.1825
     24 H           7.6250   -0.0215   -1.0760 H       1  UNL1        0.2414
     25 H           3.9320    0.0130    1.7992 H       1  UNL1        0.0626
     26 H           1.4968   -0.3120    2.2012 H       1  UNL1        0.0636
     27 H          -0.6775   -0.6673    1.3934 H       1  UNL1        0.1464
     28 H          -0.9921   -1.6808   -1.3769 H       1  UNL1        0.0511
     29 H          -1.2583    0.0742   -1.3109 H       1  UNL1        0.0511
     30 H          -2.7482   -3.2670   -0.3787 H       1  UNL1        0.0697
     31 H          -6.4387    0.2973    1.7114 H       1  UNL1        0.0629
     32 H          -5.8036    2.7615    1.7795 H       1  UNL1        0.0629
     33 H          -2.0799    1.7059    0.0243 H       1  UNL1        0.0635
     34 H           0.8505   -0.6391   -1.9840 H       1  UNL1        0.0636
     35 H           3.2890   -0.3122   -2.3622 H       1  UNL1        0.0626
@<TRIPOS>BOND
     1     1     2    2
     2     2     3   am
     3     3     4    1
     4     2     5    1
     5     5     6   ar
     6     6     7   ar
     7     7     8   ar
     8     8     9    1
     9     9    10    1
    10    10    11    1
    11    11    12   ar
    12    12    13   ar
    13    13    14   ar
    14    14    15   ar
    15    15    16   ar
    16    16    17   ar
    17    17    18    1
    18    17    19   ar
    19    19    20   ar
    20     8    21   ar
    21    21    22   ar
    22    22     5   ar
    23    20    11   ar
    24    20    14   ar
    25     3    23    1
    26     4    24    1
    27     6    25    1
    28     7    26    1
    29     9    27    1
    30    10    28    1
    31    10    29    1
    32    12    30    1
    33    15    31    1
    34    16    32    1
    35    19    33    1
    36    21    34    1
    37    22    35    1
