@<TRIPOS>MOLECULE
*****
 64 68 0 0 0
SMALL
GASTEIGER

@<TRIPOS>ATOM
      1 C          10.8076    1.5067    0.1106 C.3     1  UNL1        0.0790
      2 O           9.9673    0.4690    0.5753 O.3     1  UNL1       -0.4914
      3 C           8.6007    0.5448    0.3786 C.ar    1  UNL1        0.1635
      4 C           8.0530    1.6246   -0.2669 C.ar    1  UNL1        0.0098
      5 C           6.7012    1.7411   -0.4839 C.ar    1  UNL1        0.0782
      6 N           6.2324    2.8175   -1.1186 N.ar    1  UNL1       -0.2546
      7 C           4.8985    2.9274   -1.3300 C.ar    1  UNL1        0.0318
      8 C           4.0007    1.9609   -0.9105 C.ar    1  UNL1       -0.0006
      9 C           4.5155    0.8605   -0.2574 C.ar    1  UNL1        0.1393
     10 O           3.7199   -0.1516    0.1992 O.3     1  UNL1       -0.4524
     11 C           2.3555   -0.2486    0.1110 C.ar    1  UNL1        0.1636
     12 C           1.8367   -1.3291   -0.5941 C.ar    1  UNL1       -0.0147
     13 C           0.4768   -1.4578   -0.7021 C.ar    1  UNL1       -0.0368
     14 C          -0.4097   -0.5374   -0.1261 C.ar    1  UNL1        0.0366
     15 N          -1.7800   -0.7907   -0.3146 N.am    1  UNL1       -0.2812
     16 C          -2.8872   -0.0499    0.1417 C.2     1  UNL1        0.2553
     17 O          -2.5941    0.9990    0.8222 O.2     1  UNL1       -0.2696
     18 C          -4.2787   -0.3408   -0.0714 C.ar    1  UNL1        0.1235
     19 C          -4.9402   -1.3459   -0.7283 C.ar    1  UNL1        0.0504
     20 C          -4.2971   -2.4621   -1.4307 C.3     1  UNL1       -0.0219
     21 N          -6.2977   -1.1513   -0.6302 N.ar    1  UNL1       -0.2833
     22 C          -7.3064   -2.0303   -1.2132 C.3     1  UNL1        0.0291
     23 N          -6.4919   -0.0505    0.0714 N.ar    1  UNL1       -0.2166
     24 C          -7.7913    0.4594    0.3727 C.ar    1  UNL1        0.0673
     25 C          -8.7112   -0.2432    1.1290 C.ar    1  UNL1       -0.0362
     26 C          -9.9534    0.2840    1.3968 C.ar    1  UNL1       -0.0598
     27 C         -10.2546    1.5310    0.8906 C.ar    1  UNL1       -0.0616
     28 C          -9.3403    2.2115    0.1481 C.ar    1  UNL1       -0.0598
     29 C          -8.0953    1.7057   -0.1319 C.ar    1  UNL1       -0.0362
     30 C          -5.3099    0.4737    0.4303 C.ar    1  UNL1        0.2843
     31 O          -5.2051    1.5328    1.1110 O.2     1  UNL1       -0.2650
     32 C           0.1481    0.5074    0.5569 C.ar    1  UNL1       -0.0015
     33 C           1.5317    0.6818    0.6948 C.ar    1  UNL1        0.1672
     34 F           1.9998    1.7396    1.3901 F       1  UNL1       -0.2016
     35 C           5.8852    0.7285   -0.0300 C.ar    1  UNL1        0.0463
     36 C           6.3903   -0.3826    0.6276 C.ar    1  UNL1       -0.0036
     37 C           7.7544   -0.4537    0.8215 C.ar    1  UNL1        0.1623
     38 O           8.3015   -1.5346    1.4676 O.3     1  UNL1       -0.4914
     39 C           7.5068   -2.5950    1.9496 C.3     1  UNL1        0.0790
     40 H          11.8394    1.2629    0.4713 H       1  UNL1        0.0660
     41 H          10.7502    1.5769   -0.9859 H       1  UNL1        0.0660
     42 H          10.4309    2.4549    0.5849 H       1  UNL1        0.0660
     43 H           8.7047    2.4260   -0.6255 H       1  UNL1        0.0677
     44 H           4.5219    3.7940   -1.8409 H       1  UNL1        0.0831
     45 H           2.9446    2.0770   -1.0967 H       1  UNL1        0.0670
     46 H           2.4919   -2.0733   -1.0609 H       1  UNL1        0.0656
     47 H           0.1071   -2.3028   -1.2529 H       1  UNL1        0.0637
     48 H          -2.0509   -1.6411   -0.8673 H       1  UNL1        0.1551
     49 H          -3.7480   -2.1891   -2.3511 H       1  UNL1        0.0293
     50 H          -5.1392   -3.1080   -1.8501 H       1  UNL1        0.0293
     51 H          -3.7737   -3.1919   -0.7729 H       1  UNL1        0.0293
     52 H          -8.2145   -1.4050   -1.3484 H       1  UNL1        0.0472
     53 H          -7.4771   -2.9356   -0.6141 H       1  UNL1        0.0472
     54 H          -6.9787   -2.3145   -2.2344 H       1  UNL1        0.0472
     55 H          -8.4470   -1.2254    1.5161 H       1  UNL1        0.0639
     56 H         -10.7066   -0.2167    1.9779 H       1  UNL1        0.0618
     57 H         -11.2272    1.9634    1.0903 H       1  UNL1        0.0618
     58 H          -9.5706    3.1946   -0.2541 H       1  UNL1        0.0618
     59 H          -7.3590    2.2568   -0.7315 H       1  UNL1        0.0639
     60 H          -0.4658    1.2405    1.0174 H       1  UNL1        0.0666
     61 H           5.6992   -1.1332    0.9542 H       1  UNL1        0.0663
     62 H           8.1840   -3.4573    2.1645 H       1  UNL1        0.0660
     63 H           7.0424   -2.3182    2.9193 H       1  UNL1        0.0660
     64 H           6.7023   -2.8865    1.2446 H       1  UNL1        0.0660
@<TRIPOS>BOND
     1     1     2    1
     2     2     3    1
     3     3     4   ar
     4     4     5   ar
     5     5     6   ar
     6     6     7   ar
     7     7     8   ar
     8     8     9   ar
     9     9    10    1
    10    10    11    1
    11    11    12   ar
    12    12    13   ar
    13    13    14   ar
    14    14    15    1
    15    15    16   am
    16    16    17    2
    17    16    18    1
    18    18    19   ar
    19    19    20    1
    20    19    21   ar
    21    21    22    1
    22    21    23   ar
    23    23    24    1
    24    24    25   ar
    25    25    26   ar
    26    26    27   ar
    27    27    28   ar
    28    28    29   ar
    29    23    30   ar
    30    30    31    2
    31    14    32   ar
    32    32    33   ar
    33    33    34    1
    34     9    35   ar
    35    35    36   ar
    36    36    37   ar
    37    37    38    1
    38    38    39    1
    39    37     3   ar
    40    35     5   ar
    41    33    11   ar
    42    30    18   ar
    43    29    24   ar
    44     1    40    1
    45     1    41    1
    46     1    42    1
    47     4    43    1
    48     7    44    1
    49     8    45    1
    50    12    46    1
    51    13    47    1
    52    15    48    1
    53    20    49    1
    54    20    50    1
    55    20    51    1
    56    22    52    1
    57    22    53    1
    58    22    54    1
    59    25    55    1
    60    26    56    1
    61    27    57    1
    62    28    58    1
    63    29    59    1
    64    32    60    1
    65    36    61    1
    66    39    62    1
    67    39    63    1
    68    39    64    1
