
     RDKit          3D

 64 68  0  0  0  0  0  0  0  0999 V2000
   10.8076    1.5067    0.1106 C   0  0  0  0  0  0  0  0  0  0  0  0
    9.9673    0.4690    0.5753 O   0  0  0  0  0  0  0  0  0  0  0  0
    8.6007    0.5448    0.3786 C   0  0  0  0  0  0  0  0  0  0  0  0
    8.0530    1.6246   -0.2669 C   0  0  0  0  0  0  0  0  0  0  0  0
    6.7012    1.7411   -0.4839 C   0  0  0  0  0  0  0  0  0  0  0  0
    6.2324    2.8175   -1.1186 N   0  0  0  0  0  0  0  0  0  0  0  0
    4.8985    2.9274   -1.3300 C   0  0  0  0  0  0  0  0  0  0  0  0
    4.0007    1.9609   -0.9105 C   0  0  0  0  0  0  0  0  0  0  0  0
    4.5155    0.8605   -0.2574 C   0  0  0  0  0  0  0  0  0  0  0  0
    3.7199   -0.1516    0.1992 O   0  0  0  0  0  0  0  0  0  0  0  0
    2.3555   -0.2486    0.1110 C   0  0  0  0  0  0  0  0  0  0  0  0
    1.8367   -1.3291   -0.5941 C   0  0  0  0  0  0  0  0  0  0  0  0
    0.4768   -1.4578   -0.7021 C   0  0  0  0  0  0  0  0  0  0  0  0
   -0.4097   -0.5374   -0.1261 C   0  0  0  0  0  0  0  0  0  0  0  0
   -1.7800   -0.7907   -0.3146 N   0  0  0  0  0  0  0  0  0  0  0  0
   -2.8872   -0.0499    0.1417 C   0  0  0  0  0  0  0  0  0  0  0  0
   -2.5941    0.9990    0.8222 O   0  0  0  0  0  0  0  0  0  0  0  0
   -4.2787   -0.3408   -0.0714 C   0  0  0  0  0  0  0  0  0  0  0  0
   -4.9402   -1.3459   -0.7283 C   0  0  0  0  0  0  0  0  0  0  0  0
   -4.2971   -2.4621   -1.4307 C   0  0  0  0  0  0  0  0  0  0  0  0
   -6.2977   -1.1513   -0.6302 N   0  0  0  0  0  0  0  0  0  0  0  0
   -7.3064   -2.0303   -1.2132 C   0  0  0  0  0  0  0  0  0  0  0  0
   -6.4919   -0.0505    0.0714 N   0  0  0  0  0  0  0  0  0  0  0  0
   -7.7913    0.4594    0.3727 C   0  0  0  0  0  0  0  0  0  0  0  0
   -8.7112   -0.2432    1.1290 C   0  0  0  0  0  0  0  0  0  0  0  0
   -9.9534    0.2840    1.3968 C   0  0  0  0  0  0  0  0  0  0  0  0
  -10.2546    1.5310    0.8906 C   0  0  0  0  0  0  0  0  0  0  0  0
   -9.3403    2.2115    0.1481 C   0  0  0  0  0  0  0  0  0  0  0  0
   -8.0953    1.7057   -0.1319 C   0  0  0  0  0  0  0  0  0  0  0  0
   -5.3099    0.4737    0.4303 C   0  0  0  0  0  0  0  0  0  0  0  0
   -5.2051    1.5328    1.1110 O   0  0  0  0  0  0  0  0  0  0  0  0
    0.1481    0.5074    0.5569 C   0  0  0  0  0  0  0  0  0  0  0  0
    1.5317    0.6818    0.6948 C   0  0  0  0  0  0  0  0  0  0  0  0
    1.9998    1.7396    1.3901 F   0  0  0  0  0  0  0  0  0  0  0  0
    5.8852    0.7285   -0.0300 C   0  0  0  0  0  0  0  0  0  0  0  0
    6.3903   -0.3826    0.6276 C   0  0  0  0  0  0  0  0  0  0  0  0
    7.7544   -0.4537    0.8215 C   0  0  0  0  0  0  0  0  0  0  0  0
    8.3015   -1.5346    1.4676 O   0  0  0  0  0  0  0  0  0  0  0  0
    7.5068   -2.5950    1.9496 C   0  0  0  0  0  0  0  0  0  0  0  0
   11.8394    1.2629    0.4713 H   0  0  0  0  0  0  0  0  0  0  0  0
   10.7502    1.5769   -0.9859 H   0  0  0  0  0  0  0  0  0  0  0  0
   10.4309    2.4549    0.5849 H   0  0  0  0  0  0  0  0  0  0  0  0
    8.7047    2.4260   -0.6255 H   0  0  0  0  0  0  0  0  0  0  0  0
    4.5219    3.7940   -1.8409 H   0  0  0  0  0  0  0  0  0  0  0  0
    2.9446    2.0770   -1.0967 H   0  0  0  0  0  0  0  0  0  0  0  0
    2.4919   -2.0733   -1.0609 H   0  0  0  0  0  0  0  0  0  0  0  0
    0.1071   -2.3028   -1.2529 H   0  0  0  0  0  0  0  0  0  0  0  0
   -2.0509   -1.6411   -0.8673 H   0  0  0  0  0  0  0  0  0  0  0  0
   -3.7480   -2.1891   -2.3511 H   0  0  0  0  0  0  0  0  0  0  0  0
   -5.1392   -3.1080   -1.8501 H   0  0  0  0  0  0  0  0  0  0  0  0
   -3.7737   -3.1919   -0.7729 H   0  0  0  0  0  0  0  0  0  0  0  0
   -8.2145   -1.4050   -1.3484 H   0  0  0  0  0  0  0  0  0  0  0  0
   -7.4771   -2.9356   -0.6141 H   0  0  0  0  0  0  0  0  0  0  0  0
   -6.9787   -2.3145   -2.2344 H   0  0  0  0  0  0  0  0  0  0  0  0
   -8.4470   -1.2254    1.5161 H   0  0  0  0  0  0  0  0  0  0  0  0
  -10.7066   -0.2167    1.9779 H   0  0  0  0  0  0  0  0  0  0  0  0
  -11.2272    1.9634    1.0903 H   0  0  0  0  0  0  0  0  0  0  0  0
   -9.5706    3.1946   -0.2541 H   0  0  0  0  0  0  0  0  0  0  0  0
   -7.3590    2.2568   -0.7315 H   0  0  0  0  0  0  0  0  0  0  0  0
   -0.4658    1.2405    1.0174 H   0  0  0  0  0  0  0  0  0  0  0  0
    5.6992   -1.1332    0.9542 H   0  0  0  0  0  0  0  0  0  0  0  0
    8.1840   -3.4573    2.1645 H   0  0  0  0  0  0  0  0  0  0  0  0
    7.0424   -2.3182    2.9193 H   0  0  0  0  0  0  0  0  0  0  0  0
    6.7023   -2.8865    1.2446 H   0  0  0  0  0  0  0  0  0  0  0  0
  1  2  1  0
  2  3  1  0
  3  4  2  0
  4  5  1  0
  5  6  2  0
  6  7  1  0
  7  8  2  0
  8  9  1  0
  9 10  1  0
 10 11  1  0
 11 12  2  0
 12 13  1  0
 13 14  2  0
 14 15  1  0
 15 16  1  0
 16 17  2  0
 16 18  1  0
 18 19  2  0
 19 20  1  0
 19 21  1  0
 21 22  1  0
 21 23  1  0
 23 24  1  0
 24 25  2  0
 25 26  1  0
 26 27  2  0
 27 28  1  0
 28 29  2  0
 23 30  1  0
 30 31  2  0
 14 32  1  0
 32 33  2  0
 33 34  1  0
  9 35  2  0
 35 36  1  0
 36 37  2  0
 37 38  1  0
 38 39  1  0
 37  3  1  0
 35  5  1  0
 33 11  1  0
 30 18  1  0
 29 24  1  0
  1 40  1  0
  1 41  1  0
  1 42  1  0
  4 43  1  0
  7 44  1  0
  8 45  1  0
 12 46  1  0
 13 47  1  0
 15 48  1  0
 20 49  1  0
 20 50  1  0
 20 51  1  0
 22 52  1  0
 22 53  1  0
 22 54  1  0
 25 55  1  0
 26 56  1  0
 27 57  1  0
 28 58  1  0
 29 59  1  0
 32 60  1  0
 36 61  1  0
 39 62  1  0
 39 63  1  0
 39 64  1  0
M  END
$$$$
