
     RDKit          3D

 54 57  0  0  0  0  0  0  0  0999 V2000
    1.0527   -3.0187   -1.3877 C   0  0  0  0  0  0  0  0  0  0  0  0
    1.9214   -2.4722   -0.3297 C   0  0  0  0  0  0  0  0  0  0  0  0
    2.3891   -3.3955    0.6207 C   0  0  0  0  0  0  0  0  0  0  0  0
    3.2669   -3.0435    1.6050 C   0  0  0  0  0  0  0  0  0  0  0  0
    3.6861   -1.7363    1.6391 C   0  0  0  0  0  0  0  0  0  0  0  0
    4.5523   -1.3671    2.6017 F   0  0  0  0  0  0  0  0  0  0  0  0
    3.2215   -0.8249    0.7000 C   0  0  0  0  0  0  0  0  0  0  0  0
    2.3247   -1.1638   -0.3118 C   0  0  0  0  0  0  0  0  0  0  0  0
    1.7293   -0.1457   -1.1987 C   0  0  0  0  0  0  0  0  0  0  0  0
    0.8490    0.7927   -0.5465 N   0  0  0  0  0  0  0  0  0  0  0  0
   -0.4070    0.6914   -0.2180 C   0  0  0  0  0  0  0  0  0  0  0  0
   -1.3716   -0.3306   -0.3423 N   0  0  0  0  0  0  0  0  0  0  0  0
   -1.7820   -0.8669   -1.6020 C   0  0  0  0  0  0  0  0  0  0  0  0
   -3.2437   -0.4442   -1.8626 C   0  0  0  0  0  0  0  0  0  0  0  0
   -3.9440   -0.1894   -0.5671 C   0  0  0  0  0  0  0  0  0  0  0  0
   -3.5085   -1.0042    0.6000 C   0  0  1  0  0  0  0  0  0  0  0  0
   -4.3655   -0.4977    1.7883 C   0  0  0  0  0  0  0  0  0  0  0  0
   -3.7494   -2.4150    0.4950 N   0  0  0  0  0  0  0  0  0  0  0  0
   -2.0376   -0.7631    0.9000 C   0  0  0  0  0  0  0  0  0  0  0  0
   -0.8338    1.9058    0.3851 C   0  0  0  0  0  0  0  0  0  0  0  0
    0.2384    2.7396    0.3943 C   0  0  0  0  0  0  0  0  0  0  0  0
    0.3757    4.0186    0.8359 N   0  0  0  0  0  0  0  0  0  0  0  0
    1.5459    4.6628    0.7164 C   0  0  0  0  0  0  0  0  0  0  0  0
    2.5804    4.0231    0.1537 N   0  0  0  0  0  0  0  0  0  0  0  0
    3.8773    4.6929    0.0004 C   0  0  0  0  0  0  0  0  0  0  0  0
    2.4692    2.7379   -0.2959 C   0  0  0  0  0  0  0  0  0  0  0  0
    3.4926    2.2389   -0.8055 O   0  0  0  0  0  0  0  0  0  0  0  0
    1.2711    2.0460   -0.1832 C   0  0  0  0  0  0  0  0  0  0  0  0
    1.4078   -4.1078   -1.5419 H   0  0  0  0  0  0  0  0  0  0  0  0
    0.0049   -3.1285   -1.1496 H   0  0  0  0  0  0  0  0  0  0  0  0
    1.2965   -2.5521   -2.3735 H   0  0  0  0  0  0  0  0  0  0  0  0
    2.0609   -4.4205    0.5962 H   0  0  0  0  0  0  0  0  0  0  0  0
    3.6134   -3.7792    2.3218 H   0  0  0  0  0  0  0  0  0  0  0  0
    3.5579    0.1884    0.7549 H   0  0  0  0  0  0  0  0  0  0  0  0
    2.5724    0.3685   -1.7235 H   0  0  0  0  0  0  0  0  0  0  0  0
    1.1923   -0.6666   -2.0316 H   0  0  0  0  0  0  0  0  0  0  0  0
   -1.1990   -0.5630   -2.4577 H   0  0  0  0  0  0  0  0  0  0  0  0
   -1.8498   -1.9672   -1.5292 H   0  0  0  0  0  0  0  0  0  0  0  0
   -3.2879    0.4724   -2.4785 H   0  0  0  0  0  0  0  0  0  0  0  0
   -3.7887   -1.2400   -2.4121 H   0  0  0  0  0  0  0  0  0  0  0  0
   -3.9360    0.8793   -0.2595 H   0  0  0  0  0  0  0  0  0  0  0  0
   -5.0457   -0.4041   -0.7262 H   0  0  0  0  0  0  0  0  0  0  0  0
   -5.3985   -0.4680    1.3893 H   0  0  0  0  0  0  0  0  0  0  0  0
   -4.0651    0.5438    2.0489 H   0  0  0  0  0  0  0  0  0  0  0  0
   -4.2919   -1.2007    2.6494 H   0  0  0  0  0  0  0  0  0  0  0  0
   -2.8669   -2.9314    0.4569 H   0  0  0  0  0  0  0  0  0  0  0  0
   -4.4885   -2.6843   -0.1660 H   0  0  0  0  0  0  0  0  0  0  0  0
   -1.5629   -1.6475    1.3395 H   0  0  0  0  0  0  0  0  0  0  0  0
   -1.9972    0.0544    1.6392 H   0  0  0  0  0  0  0  0  0  0  0  0
   -1.8129    2.1207    0.7578 H   0  0  0  0  0  0  0  0  0  0  0  0
    1.7083    5.6852    1.0532 H   0  0  0  0  0  0  0  0  0  0  0  0
    4.3430    4.6691    1.0087 H   0  0  0  0  0  0  0  0  0  0  0  0
    4.5328    4.1570   -0.6785 H   0  0  0  0  0  0  0  0  0  0  0  0
    3.7004    5.7509   -0.2727 H   0  0  0  0  0  0  0  0  0  0  0  0
  1  2  1  0
  2  3  2  0
  3  4  1  0
  4  5  2  0
  5  6  1  0
  5  7  1  0
  7  8  2  0
  8  9  1  0
  9 10  1  0
 10 11  1  0
 11 12  1  0
 12 13  1  0
 13 14  1  0
 14 15  1  0
 15 16  1  0
 16 17  1  0
 16 18  1  6
 16 19  1  0
 11 20  2  0
 20 21  1  0
 21 22  1  0
 22 23  2  0
 23 24  1  0
 24 25  1  0
 24 26  1  0
 26 27  2  0
 26 28  1  0
  8  2  1  0
 28 10  1  0
 19 12  1  0
 28 21  2  0
  1 29  1  0
  1 30  1  0
  1 31  1  0
  3 32  1  0
  4 33  1  0
  7 34  1  0
  9 35  1  0
  9 36  1  0
 13 37  1  0
 13 38  1  0
 14 39  1  0
 14 40  1  0
 15 41  1  0
 15 42  1  0
 17 43  1  0
 17 44  1  0
 17 45  1  0
 18 46  1  0
 18 47  1  0
 19 48  1  0
 19 49  1  0
 20 50  1  0
 23 51  1  0
 25 52  1  0
 25 53  1  0
 25 54  1  0
M  END
$$$$
