@<TRIPOS>MOLECULE
*****
 54 57 0 0 0
SMALL
GASTEIGER

@<TRIPOS>ATOM
      1 C           1.0527   -3.0187   -1.3877 C.3     1  UNL1       -0.0394
      2 C           1.9214   -2.4722   -0.3297 C.ar    1  UNL1       -0.0454
      3 C           2.3891   -3.3955    0.6207 C.ar    1  UNL1       -0.0558
      4 C           3.2669   -3.0435    1.6050 C.ar    1  UNL1       -0.0262
      5 C           3.6861   -1.7363    1.6391 C.ar    1  UNL1        0.1237
      6 F           4.5523   -1.3671    2.6017 F       1  UNL1       -0.2055
      7 C           3.2215   -0.8249    0.7000 C.ar    1  UNL1       -0.0213
      8 C           2.3247   -1.1638   -0.3118 C.ar    1  UNL1       -0.0221
      9 C           1.7293   -0.1457   -1.1987 C.3     1  UNL1        0.0505
     10 N           0.8490    0.7927   -0.5465 N.ar    1  UNL1       -0.3187
     11 C          -0.4070    0.6914   -0.2180 C.ar    1  UNL1        0.1044
     12 N          -1.3716   -0.3306   -0.3423 N.pl3   1  UNL1       -0.3147
     13 C          -1.7820   -0.8669   -1.6020 C.3     1  UNL1        0.0136
     14 C          -3.2437   -0.4442   -1.8626 C.3     1  UNL1       -0.0355
     15 C          -3.9440   -0.1894   -0.5671 C.3     1  UNL1       -0.0322
     16 C          -3.5085   -1.0042    0.6000 C.3     1  UNL1        0.0296
     17 C          -4.3655   -0.4977    1.7883 C.3     1  UNL1       -0.0455
     18 N          -3.7494   -2.4150    0.4950 N.3     1  UNL1       -0.3236
     19 C          -2.0376   -0.7631    0.9000 C.3     1  UNL1        0.0313
     20 C          -0.8338    1.9058    0.3851 C.ar    1  UNL1        0.0043
     21 C           0.2384    2.7396    0.3943 C.ar    1  UNL1        0.0975
     22 N           0.3757    4.0186    0.8359 N.ar    1  UNL1       -0.2354
     23 C           1.5459    4.6628    0.7164 C.ar    1  UNL1        0.0991
     24 N           2.5804    4.0231    0.1537 N.ar    1  UNL1       -0.3006
     25 C           3.8773    4.6929    0.0004 C.3     1  UNL1        0.0161
     26 C           2.4692    2.7379   -0.2959 C.ar    1  UNL1        0.2779
     27 O           3.4926    2.2389   -0.8055 O.2     1  UNL1       -0.2653
     28 C           1.2711    2.0460   -0.1832 C.ar    1  UNL1        0.1346
     29 H           1.4078   -4.1078   -1.5419 H       1  UNL1        0.0278
     30 H           0.0049   -3.1285   -1.1496 H       1  UNL1        0.0278
     31 H           1.2965   -2.5521   -2.3735 H       1  UNL1        0.0278
     32 H           2.0609   -4.4205    0.5962 H       1  UNL1        0.0621
     33 H           3.6134   -3.7792    2.3218 H       1  UNL1        0.0646
     34 H           3.5579    0.1884    0.7549 H       1  UNL1        0.0649
     35 H           2.5724    0.3685   -1.7235 H       1  UNL1        0.0542
     36 H           1.1923   -0.6666   -2.0316 H       1  UNL1        0.0542
     37 H          -1.1990   -0.5630   -2.4577 H       1  UNL1        0.0464
     38 H          -1.8498   -1.9672   -1.5292 H       1  UNL1        0.0464
     39 H          -3.2879    0.4724   -2.4785 H       1  UNL1        0.0281
     40 H          -3.7887   -1.2400   -2.4121 H       1  UNL1        0.0281
     41 H          -3.9360    0.8793   -0.2595 H       1  UNL1        0.0284
     42 H          -5.0457   -0.4041   -0.7262 H       1  UNL1        0.0284
     43 H          -5.3985   -0.4680    1.3893 H       1  UNL1        0.0248
     44 H          -4.0651    0.5438    2.0489 H       1  UNL1        0.0248
     45 H          -4.2919   -1.2007    2.6494 H       1  UNL1        0.0248
     46 H          -2.8669   -2.9314    0.4569 H       1  UNL1        0.1188
     47 H          -4.4885   -2.6843   -0.1660 H       1  UNL1        0.1188
     48 H          -1.5629   -1.6475    1.3395 H       1  UNL1        0.0482
     49 H          -1.9972    0.0544    1.6392 H       1  UNL1        0.0482
     50 H          -1.8129    2.1207    0.7578 H       1  UNL1        0.0673
     51 H           1.7083    5.6852    1.0532 H       1  UNL1        0.1030
     52 H           4.3430    4.6691    1.0087 H       1  UNL1        0.0457
     53 H           4.5328    4.1570   -0.6785 H       1  UNL1        0.0457
     54 H           3.7004    5.7509   -0.2727 H       1  UNL1        0.0457
@<TRIPOS>BOND
     1     1     2    1
     2     2     3   ar
     3     3     4   ar
     4     4     5   ar
     5     5     6    1
     6     5     7   ar
     7     7     8   ar
     8     8     9    1
     9     9    10    1
    10    10    11   ar
    11    11    12    1
    12    12    13    1
    13    13    14    1
    14    14    15    1
    15    15    16    1
    16    16    17    1
    17    16    18    1
    18    16    19    1
    19    11    20   ar
    20    20    21   ar
    21    21    22   ar
    22    22    23   ar
    23    23    24   ar
    24    24    25    1
    25    24    26   ar
    26    26    27    2
    27    26    28   ar
    28     8     2   ar
    29    28    10   ar
    30    19    12    1
    31    28    21   ar
    32     1    29    1
    33     1    30    1
    34     1    31    1
    35     3    32    1
    36     4    33    1
    37     7    34    1
    38     9    35    1
    39     9    36    1
    40    13    37    1
    41    13    38    1
    42    14    39    1
    43    14    40    1
    44    15    41    1
    45    15    42    1
    46    17    43    1
    47    17    44    1
    48    17    45    1
    49    18    46    1
    50    18    47    1
    51    19    48    1
    52    19    49    1
    53    20    50    1
    54    23    51    1
    55    25    52    1
    56    25    53    1
    57    25    54    1
