@<TRIPOS>MOLECULE
*****
 57 59 0 0 0
SMALL
GASTEIGER

@<TRIPOS>ATOM
      1 C           2.5817   -0.5760    4.0929 C.3     1  UNL1       -0.0364
      2 C           3.4152   -0.5759    2.8759 C.ar    1  UNL1       -0.0061
      3 C           4.7951   -0.6660    3.0251 C.ar    1  UNL1        0.1276
      4 F           5.3190   -0.7494    4.2704 F       1  UNL1       -0.2052
      5 C           5.5815   -0.6668    1.8970 C.ar    1  UNL1       -0.0140
      6 C           5.0678   -0.5820    0.6209 C.ar    1  UNL1        0.0400
      7 C           5.9283   -0.5833   -0.5546 C.2     1  UNL1        0.2444
      8 O           7.1736   -0.6772   -0.3664 O.2     1  UNL1       -0.2702
      9 N           5.4957   -0.4888   -1.8885 N.am    1  UNL1       -0.3085
     10 C           6.3927   -0.4926   -3.0349 C.3     1  UNL1        0.0235
     11 C           6.0187   -1.0514   -4.3349 C.3     1  UNL1       -0.0328
     12 C           6.1937    0.4880   -4.1299 C.3     1  UNL1       -0.0328
     13 C           3.6869   -0.4925    0.4945 C.ar    1  UNL1       -0.0400
     14 C           2.8601   -0.4898    1.6264 C.ar    1  UNL1        0.0067
     15 C           1.4092   -0.3982    1.4921 C.ar    1  UNL1        0.0714
     16 C           0.7618   -0.3249    0.2785 C.ar    1  UNL1       -0.0350
     17 C          -0.6112   -0.2410    0.1710 C.ar    1  UNL1       -0.0461
     18 C          -1.3884   -0.2277    1.3049 C.ar    1  UNL1        0.0548
     19 C          -2.8400   -0.1458    1.2708 C.2     1  UNL1        0.2458
     20 O          -3.4552   -0.1090    2.3730 O.2     1  UNL1       -0.2701
     21 N          -3.6288   -0.1039    0.1084 N.am    1  UNL1       -0.3082
     22 C          -5.0849   -0.0215    0.1342 C.3     1  UNL1        0.0255
     23 C          -5.7065   -1.2948   -0.4066 C.3     1  UNL1       -0.0461
     24 C          -5.6019    1.1929   -0.5587 C.3     1  UNL1       -0.0196
     25 C          -7.1225    1.1837   -0.4724 C.3     1  UNL1       -0.0584
     26 C          -5.2620    1.2347   -2.0300 C.3     1  UNL1       -0.0584
     27 C          -5.0665    2.4499    0.0727 C.3     1  UNL1       -0.0584
     28 C          -0.7020   -0.3029    2.5107 C.ar    1  UNL1        0.0404
     29 N           0.6236   -0.3831    2.5802 N.ar    1  UNL1       -0.2542
     30 H           2.0430    0.3890    4.2662 H       1  UNL1        0.0279
     31 H           3.2502   -0.6565    5.0087 H       1  UNL1        0.0279
     32 H           1.9207   -1.4689    4.1857 H       1  UNL1        0.0279
     33 H           6.6599   -0.7360    1.9810 H       1  UNL1        0.0654
     34 H           4.4783   -0.4108   -2.0851 H       1  UNL1        0.1493
     35 H           7.4695   -0.6075   -2.7164 H       1  UNL1        0.0498
     36 H           6.8281   -1.5222   -4.9584 H       1  UNL1        0.0284
     37 H           5.0066   -1.3460   -4.6136 H       1  UNL1        0.0284
     38 H           7.0749    0.9456   -4.6090 H       1  UNL1        0.0284
     39 H           5.2712    1.0857   -4.1044 H       1  UNL1        0.0284
     40 H           3.2674   -0.4254   -0.4792 H       1  UNL1        0.0632
     41 H           1.3153   -0.3308   -0.6631 H       1  UNL1        0.0639
     42 H          -1.1182   -0.1829   -0.7867 H       1  UNL1        0.0626
     43 H          -3.1342   -0.1333   -0.8200 H       1  UNL1        0.1493
     44 H          -5.3795    0.0341    1.2007 H       1  UNL1        0.0501
     45 H          -5.4739   -1.4684   -1.4634 H       1  UNL1        0.0248
     46 H          -5.2081   -2.1349    0.1616 H       1  UNL1        0.0248
     47 H          -6.7816   -1.3618   -0.1507 H       1  UNL1        0.0248
     48 H          -7.4748    1.0406    0.5698 H       1  UNL1        0.0235
     49 H          -7.5400    0.3606   -1.0800 H       1  UNL1        0.0235
     50 H          -7.5544    2.1344   -0.8800 H       1  UNL1        0.0235
     51 H          -5.6049    0.3158   -2.5685 H       1  UNL1        0.0235
     52 H          -4.1988    1.4532   -2.2222 H       1  UNL1        0.0235
     53 H          -5.8482    2.0722   -2.4661 H       1  UNL1        0.0235
     54 H          -3.9928    2.5158   -0.1444 H       1  UNL1        0.0235
     55 H          -5.5424    3.3033   -0.4936 H       1  UNL1        0.0235
     56 H          -5.3036    2.5268    1.1492 H       1  UNL1        0.0235
     57 H          -1.2643   -0.2964    3.4409 H       1  UNL1        0.0837
@<TRIPOS>BOND
     1     1     2    1
     2     2     3   ar
     3     3     4    1
     4     3     5   ar
     5     5     6   ar
     6     6     7    1
     7     7     8    2
     8     7     9   am
     9     9    10    1
    10    10    11    1
    11    11    12    1
    12     6    13   ar
    13    13    14   ar
    14    14    15    1
    15    15    16   ar
    16    16    17   ar
    17    17    18   ar
    18    18    19    1
    19    19    20    2
    20    19    21   am
    21    21    22    1
    22    22    23    1
    23    22    24    1
    24    24    25    1
    25    24    26    1
    26    24    27    1
    27    18    28   ar
    28    28    29   ar
    29    14     2   ar
    30    29    15   ar
    31    12    10    1
    32     1    30    1
    33     1    31    1
    34     1    32    1
    35     5    33    1
    36     9    34    1
    37    10    35    1
    38    11    36    1
    39    11    37    1
    40    12    38    1
    41    12    39    1
    42    13    40    1
    43    16    41    1
    44    17    42    1
    45    21    43    1
    46    22    44    1
    47    23    45    1
    48    23    46    1
    49    23    47    1
    50    25    48    1
    51    25    49    1
    52    25    50    1
    53    26    51    1
    54    26    52    1
    55    26    53    1
    56    27    54    1
    57    27    55    1
    58    27    56    1
    59    28    57    1
