
     RDKit          3D

 57 59  0  0  0  0  0  0  0  0999 V2000
    2.5817   -0.5760    4.0929 C   0  0  0  0  0  0  0  0  0  0  0  0
    3.4152   -0.5759    2.8759 C   0  0  0  0  0  0  0  0  0  0  0  0
    4.7951   -0.6660    3.0251 C   0  0  0  0  0  0  0  0  0  0  0  0
    5.3190   -0.7494    4.2704 F   0  0  0  0  0  0  0  0  0  0  0  0
    5.5815   -0.6668    1.8970 C   0  0  0  0  0  0  0  0  0  0  0  0
    5.0678   -0.5820    0.6209 C   0  0  0  0  0  0  0  0  0  0  0  0
    5.9283   -0.5833   -0.5546 C   0  0  0  0  0  0  0  0  0  0  0  0
    7.1736   -0.6772   -0.3664 O   0  0  0  0  0  0  0  0  0  0  0  0
    5.4957   -0.4888   -1.8885 N   0  0  0  0  0  0  0  0  0  0  0  0
    6.3927   -0.4926   -3.0349 C   0  0  0  0  0  0  0  0  0  0  0  0
    6.0187   -1.0514   -4.3349 C   0  0  0  0  0  0  0  0  0  0  0  0
    6.1937    0.4880   -4.1299 C   0  0  0  0  0  0  0  0  0  0  0  0
    3.6869   -0.4925    0.4945 C   0  0  0  0  0  0  0  0  0  0  0  0
    2.8601   -0.4898    1.6264 C   0  0  0  0  0  0  0  0  0  0  0  0
    1.4092   -0.3982    1.4921 C   0  0  0  0  0  0  0  0  0  0  0  0
    0.7618   -0.3249    0.2785 C   0  0  0  0  0  0  0  0  0  0  0  0
   -0.6112   -0.2410    0.1710 C   0  0  0  0  0  0  0  0  0  0  0  0
   -1.3884   -0.2277    1.3049 C   0  0  0  0  0  0  0  0  0  0  0  0
   -2.8400   -0.1458    1.2708 C   0  0  0  0  0  0  0  0  0  0  0  0
   -3.4552   -0.1090    2.3730 O   0  0  0  0  0  0  0  0  0  0  0  0
   -3.6288   -0.1039    0.1084 N   0  0  0  0  0  0  0  0  0  0  0  0
   -5.0849   -0.0215    0.1342 C   0  0  2  0  0  0  0  0  0  0  0  0
   -5.7065   -1.2948   -0.4066 C   0  0  0  0  0  0  0  0  0  0  0  0
   -5.6019    1.1929   -0.5587 C   0  0  0  0  0  0  0  0  0  0  0  0
   -7.1225    1.1837   -0.4724 C   0  0  0  0  0  0  0  0  0  0  0  0
   -5.2620    1.2347   -2.0300 C   0  0  0  0  0  0  0  0  0  0  0  0
   -5.0665    2.4499    0.0727 C   0  0  0  0  0  0  0  0  0  0  0  0
   -0.7020   -0.3029    2.5107 C   0  0  0  0  0  0  0  0  0  0  0  0
    0.6236   -0.3831    2.5802 N   0  0  0  0  0  0  0  0  0  0  0  0
    2.0430    0.3890    4.2662 H   0  0  0  0  0  0  0  0  0  0  0  0
    3.2502   -0.6565    5.0087 H   0  0  0  0  0  0  0  0  0  0  0  0
    1.9207   -1.4689    4.1857 H   0  0  0  0  0  0  0  0  0  0  0  0
    6.6599   -0.7360    1.9810 H   0  0  0  0  0  0  0  0  0  0  0  0
    4.4783   -0.4108   -2.0851 H   0  0  0  0  0  0  0  0  0  0  0  0
    7.4695   -0.6075   -2.7164 H   0  0  0  0  0  0  0  0  0  0  0  0
    6.8281   -1.5222   -4.9584 H   0  0  0  0  0  0  0  0  0  0  0  0
    5.0066   -1.3460   -4.6136 H   0  0  0  0  0  0  0  0  0  0  0  0
    7.0749    0.9456   -4.6090 H   0  0  0  0  0  0  0  0  0  0  0  0
    5.2712    1.0857   -4.1044 H   0  0  0  0  0  0  0  0  0  0  0  0
    3.2674   -0.4254   -0.4792 H   0  0  0  0  0  0  0  0  0  0  0  0
    1.3153   -0.3308   -0.6631 H   0  0  0  0  0  0  0  0  0  0  0  0
   -1.1182   -0.1829   -0.7867 H   0  0  0  0  0  0  0  0  0  0  0  0
   -3.1342   -0.1333   -0.8200 H   0  0  0  0  0  0  0  0  0  0  0  0
   -5.3795    0.0341    1.2007 H   0  0  0  0  0  0  0  0  0  0  0  0
   -5.4739   -1.4684   -1.4634 H   0  0  0  0  0  0  0  0  0  0  0  0
   -5.2081   -2.1349    0.1616 H   0  0  0  0  0  0  0  0  0  0  0  0
   -6.7816   -1.3618   -0.1507 H   0  0  0  0  0  0  0  0  0  0  0  0
   -7.4748    1.0406    0.5698 H   0  0  0  0  0  0  0  0  0  0  0  0
   -7.5400    0.3606   -1.0800 H   0  0  0  0  0  0  0  0  0  0  0  0
   -7.5544    2.1344   -0.8800 H   0  0  0  0  0  0  0  0  0  0  0  0
   -5.6049    0.3158   -2.5685 H   0  0  0  0  0  0  0  0  0  0  0  0
   -4.1988    1.4532   -2.2222 H   0  0  0  0  0  0  0  0  0  0  0  0
   -5.8482    2.0722   -2.4661 H   0  0  0  0  0  0  0  0  0  0  0  0
   -3.9928    2.5158   -0.1444 H   0  0  0  0  0  0  0  0  0  0  0  0
   -5.5424    3.3033   -0.4936 H   0  0  0  0  0  0  0  0  0  0  0  0
   -5.3036    2.5268    1.1492 H   0  0  0  0  0  0  0  0  0  0  0  0
   -1.2643   -0.2964    3.4409 H   0  0  0  0  0  0  0  0  0  0  0  0
  1  2  1  0
  2  3  2  0
  3  4  1  0
  3  5  1  0
  5  6  2  0
  6  7  1  0
  7  8  2  0
  7  9  1  0
  9 10  1  0
 10 11  1  0
 11 12  1  0
  6 13  1  0
 13 14  2  0
 14 15  1  0
 15 16  2  0
 16 17  1  0
 17 18  2  0
 18 19  1  0
 19 20  2  0
 19 21  1  0
 21 22  1  0
 22 23  1  0
 22 24  1  0
 24 25  1  0
 24 26  1  0
 24 27  1  0
 18 28  1  0
 28 29  2  0
 14  2  1  0
 29 15  1  0
 12 10  1  0
  1 30  1  0
  1 31  1  0
  1 32  1  0
  5 33  1  0
  9 34  1  0
 10 35  1  0
 11 36  1  0
 11 37  1  0
 12 38  1  0
 12 39  1  0
 13 40  1  0
 16 41  1  0
 17 42  1  0
 21 43  1  0
 22 44  1  1
 23 45  1  0
 23 46  1  0
 23 47  1  0
 25 48  1  0
 25 49  1  0
 25 50  1  0
 26 51  1  0
 26 52  1  0
 26 53  1  0
 27 54  1  0
 27 55  1  0
 27 56  1  0
 28 57  1  0
M  END
$$$$
