@<TRIPOS>MOLECULE
*****
 58 60 0 0 0
SMALL
GASTEIGER

@<TRIPOS>ATOM
      1 C           7.2327    0.5196   -1.5989 C.3     1  UNL1        0.0121
      2 C           6.6127    0.8062   -0.2764 C.2     1  UNL1        0.2100
      3 O           7.2450    0.5538    0.7679 O.2     1  UNL1       -0.2761
      4 N           5.3103    1.3633   -0.1975 N.am    1  UNL1       -0.3140
      5 C           4.6413    1.6689    1.0510 C.3     1  UNL1        0.0271
      6 C           4.4538    0.4556    1.9119 C.3     1  UNL1        0.0275
      7 N           3.6686   -0.5940    1.3062 N.am    1  UNL1       -0.3098
      8 C           2.2959   -0.3429    0.9094 C.2     1  UNL1        0.2474
      9 O           1.9100    0.8456    1.1513 O.2     1  UNL1       -0.2701
     10 C           1.5402   -1.3886    0.3150 C.ar    1  UNL1        0.0758
     11 C           2.0731   -2.6702    0.2906 C.ar    1  UNL1        0.0415
     12 N           1.3726   -3.7194   -0.2238 N.ar    1  UNL1       -0.2624
     13 C           0.1556   -3.5614   -0.7228 C.ar    1  UNL1        0.0293
     14 C          -0.4287   -2.3207   -0.7312 C.ar    1  UNL1       -0.0217
     15 C           0.2658   -1.2198   -0.2069 C.ar    1  UNL1        0.0465
     16 N          -0.3600    0.0305   -0.1416 N.pl3   1  UNL1       -0.3135
     17 C          -1.7358    0.3604   -0.1523 C.ar    1  UNL1        0.0383
     18 C          -2.7455   -0.5714    0.1195 C.ar    1  UNL1       -0.0141
     19 C          -4.0442   -0.1938    0.0153 C.ar    1  UNL1        0.0755
     20 C          -5.1374   -1.1300    0.3026 C.ar    1  UNL1        0.0369
     21 C          -6.4396   -0.6022    0.3634 C.ar    1  UNL1       -0.0314
     22 C          -7.4995   -1.4438    0.6090 C.ar    1  UNL1        0.0418
     23 CL         -9.1299   -0.7383    0.6782 Cl      1  UNL1       -0.0835
     24 C          -7.3491   -2.7997    0.8018 C.ar    1  UNL1       -0.0406
     25 C          -6.0789   -3.3023    0.7403 C.ar    1  UNL1       -0.0244
     26 C          -4.9701   -2.4731    0.4908 C.ar    1  UNL1        0.1326
     27 F          -3.7619   -3.0837    0.4321 F       1  UNL1       -0.2048
     28 N          -4.3744    1.0839   -0.3472 N.ar    1  UNL1       -0.2545
     29 C          -3.4232    1.9535   -0.5982 C.ar    1  UNL1        0.0334
     30 C          -2.0806    1.6667   -0.5230 C.ar    1  UNL1       -0.0056
     31 C          -1.0700    2.7025   -0.8597 C.3     1  UNL1       -0.0183
     32 C          -0.3488    3.2302    0.3568 C.3     1  UNL1       -0.0585
     33 C          -0.1893    2.3299   -2.0012 C.3     1  UNL1       -0.0585
     34 H           6.5439    0.7995   -2.4183 H       1  UNL1        0.0322
     35 H           8.1797    1.1003   -1.7355 H       1  UNL1        0.0322
     36 H           7.4647   -0.5761   -1.6081 H       1  UNL1        0.0322
     37 H           4.8405    1.5487   -1.1349 H       1  UNL1        0.1487
     38 H           5.3479    2.3414    1.6253 H       1  UNL1        0.0477
     39 H           3.7358    2.2326    0.8187 H       1  UNL1        0.0477
     40 H           4.0035    0.7320    2.9031 H       1  UNL1        0.0477
     41 H           5.4486    0.0483    2.1611 H       1  UNL1        0.0477
     42 H           4.1288   -1.5058    1.1711 H       1  UNL1        0.1491
     43 H           3.0374   -2.9397    0.6604 H       1  UNL1        0.0838
     44 H          -0.3905   -4.4054   -1.1283 H       1  UNL1        0.0830
     45 H          -1.4070   -2.1648   -1.1962 H       1  UNL1        0.0651
     46 H           0.2802    0.8706   -0.0890 H       1  UNL1        0.1522
     47 H          -2.4381   -1.5641    0.4804 H       1  UNL1        0.0658
     48 H          -6.5466    0.4468    0.2145 H       1  UNL1        0.0639
     49 H          -8.2260   -3.4046    0.9912 H       1  UNL1        0.0633
     50 H          -5.9124   -4.3789    0.8882 H       1  UNL1        0.0647
     51 H          -3.7134    2.9815   -0.8880 H       1  UNL1        0.0833
     52 H          -1.6679    3.6043   -1.2230 H       1  UNL1        0.0344
     53 H          -0.6303    2.6318    1.2584 H       1  UNL1        0.0235
     54 H           0.7491    3.1967    0.2572 H       1  UNL1        0.0235
     55 H          -0.6077    4.2770    0.6104 H       1  UNL1        0.0235
     56 H          -0.4405    2.9447   -2.8950 H       1  UNL1        0.0235
     57 H           0.8749    2.4902   -1.7032 H       1  UNL1        0.0235
     58 H          -0.2650    1.2776   -2.3418 H       1  UNL1        0.0235
@<TRIPOS>BOND
     1     1     2    1
     2     2     3    2
     3     2     4   am
     4     4     5    1
     5     5     6    1
     6     6     7    1
     7     7     8   am
     8     8     9    2
     9     8    10    1
    10    10    11   ar
    11    11    12   ar
    12    12    13   ar
    13    13    14   ar
    14    14    15   ar
    15    15    16    1
    16    16    17    1
    17    17    18   ar
    18    18    19   ar
    19    19    20    1
    20    20    21   ar
    21    21    22   ar
    22    22    23    1
    23    22    24   ar
    24    24    25   ar
    25    25    26   ar
    26    26    27    1
    27    19    28   ar
    28    28    29   ar
    29    29    30   ar
    30    30    31    1
    31    31    32    1
    32    31    33    1
    33    15    10   ar
    34    30    17   ar
    35    26    20   ar
    36     1    34    1
    37     1    35    1
    38     1    36    1
    39     4    37    1
    40     5    38    1
    41     5    39    1
    42     6    40    1
    43     6    41    1
    44     7    42    1
    45    11    43    1
    46    13    44    1
    47    14    45    1
    48    16    46    1
    49    18    47    1
    50    21    48    1
    51    24    49    1
    52    25    50    1
    53    29    51    1
    54    31    52    1
    55    32    53    1
    56    32    54    1
    57    32    55    1
    58    33    56    1
    59    33    57    1
    60    33    58    1
