
     RDKit          3D

 58 60  0  0  0  0  0  0  0  0999 V2000
    7.2327    0.5196   -1.5989 C   0  0  0  0  0  0  0  0  0  0  0  0
    6.6127    0.8062   -0.2764 C   0  0  0  0  0  0  0  0  0  0  0  0
    7.2450    0.5538    0.7679 O   0  0  0  0  0  0  0  0  0  0  0  0
    5.3103    1.3633   -0.1975 N   0  0  0  0  0  0  0  0  0  0  0  0
    4.6413    1.6689    1.0510 C   0  0  0  0  0  0  0  0  0  0  0  0
    4.4538    0.4556    1.9119 C   0  0  0  0  0  0  0  0  0  0  0  0
    3.6686   -0.5940    1.3062 N   0  0  0  0  0  0  0  0  0  0  0  0
    2.2959   -0.3429    0.9094 C   0  0  0  0  0  0  0  0  0  0  0  0
    1.9100    0.8456    1.1513 O   0  0  0  0  0  0  0  0  0  0  0  0
    1.5402   -1.3886    0.3150 C   0  0  0  0  0  0  0  0  0  0  0  0
    2.0731   -2.6702    0.2906 C   0  0  0  0  0  0  0  0  0  0  0  0
    1.3726   -3.7194   -0.2238 N   0  0  0  0  0  0  0  0  0  0  0  0
    0.1556   -3.5614   -0.7228 C   0  0  0  0  0  0  0  0  0  0  0  0
   -0.4287   -2.3207   -0.7312 C   0  0  0  0  0  0  0  0  0  0  0  0
    0.2658   -1.2198   -0.2069 C   0  0  0  0  0  0  0  0  0  0  0  0
   -0.3600    0.0305   -0.1416 N   0  0  0  0  0  0  0  0  0  0  0  0
   -1.7358    0.3604   -0.1523 C   0  0  0  0  0  0  0  0  0  0  0  0
   -2.7455   -0.5714    0.1195 C   0  0  0  0  0  0  0  0  0  0  0  0
   -4.0442   -0.1938    0.0153 C   0  0  0  0  0  0  0  0  0  0  0  0
   -5.1374   -1.1300    0.3026 C   0  0  0  0  0  0  0  0  0  0  0  0
   -6.4396   -0.6022    0.3634 C   0  0  0  0  0  0  0  0  0  0  0  0
   -7.4995   -1.4438    0.6090 C   0  0  0  0  0  0  0  0  0  0  0  0
   -9.1299   -0.7383    0.6782 Cl  0  0  0  0  0  0  0  0  0  0  0  0
   -7.3491   -2.7997    0.8018 C   0  0  0  0  0  0  0  0  0  0  0  0
   -6.0789   -3.3023    0.7403 C   0  0  0  0  0  0  0  0  0  0  0  0
   -4.9701   -2.4731    0.4908 C   0  0  0  0  0  0  0  0  0  0  0  0
   -3.7619   -3.0837    0.4321 F   0  0  0  0  0  0  0  0  0  0  0  0
   -4.3744    1.0839   -0.3472 N   0  0  0  0  0  0  0  0  0  0  0  0
   -3.4232    1.9535   -0.5982 C   0  0  0  0  0  0  0  0  0  0  0  0
   -2.0806    1.6667   -0.5230 C   0  0  0  0  0  0  0  0  0  0  0  0
   -1.0700    2.7025   -0.8597 C   0  0  0  0  0  0  0  0  0  0  0  0
   -0.3488    3.2302    0.3568 C   0  0  0  0  0  0  0  0  0  0  0  0
   -0.1893    2.3299   -2.0012 C   0  0  0  0  0  0  0  0  0  0  0  0
    6.5439    0.7995   -2.4183 H   0  0  0  0  0  0  0  0  0  0  0  0
    8.1797    1.1003   -1.7355 H   0  0  0  0  0  0  0  0  0  0  0  0
    7.4647   -0.5761   -1.6081 H   0  0  0  0  0  0  0  0  0  0  0  0
    4.8405    1.5487   -1.1349 H   0  0  0  0  0  0  0  0  0  0  0  0
    5.3479    2.3414    1.6253 H   0  0  0  0  0  0  0  0  0  0  0  0
    3.7358    2.2326    0.8187 H   0  0  0  0  0  0  0  0  0  0  0  0
    4.0035    0.7320    2.9031 H   0  0  0  0  0  0  0  0  0  0  0  0
    5.4486    0.0483    2.1611 H   0  0  0  0  0  0  0  0  0  0  0  0
    4.1288   -1.5058    1.1711 H   0  0  0  0  0  0  0  0  0  0  0  0
    3.0374   -2.9397    0.6604 H   0  0  0  0  0  0  0  0  0  0  0  0
   -0.3905   -4.4054   -1.1283 H   0  0  0  0  0  0  0  0  0  0  0  0
   -1.4070   -2.1648   -1.1962 H   0  0  0  0  0  0  0  0  0  0  0  0
    0.2802    0.8706   -0.0890 H   0  0  0  0  0  0  0  0  0  0  0  0
   -2.4381   -1.5641    0.4804 H   0  0  0  0  0  0  0  0  0  0  0  0
   -6.5466    0.4468    0.2145 H   0  0  0  0  0  0  0  0  0  0  0  0
   -8.2260   -3.4046    0.9912 H   0  0  0  0  0  0  0  0  0  0  0  0
   -5.9124   -4.3789    0.8882 H   0  0  0  0  0  0  0  0  0  0  0  0
   -3.7134    2.9815   -0.8880 H   0  0  0  0  0  0  0  0  0  0  0  0
   -1.6679    3.6043   -1.2230 H   0  0  0  0  0  0  0  0  0  0  0  0
   -0.6303    2.6318    1.2584 H   0  0  0  0  0  0  0  0  0  0  0  0
    0.7491    3.1967    0.2572 H   0  0  0  0  0  0  0  0  0  0  0  0
   -0.6077    4.2770    0.6104 H   0  0  0  0  0  0  0  0  0  0  0  0
   -0.4405    2.9447   -2.8950 H   0  0  0  0  0  0  0  0  0  0  0  0
    0.8749    2.4902   -1.7032 H   0  0  0  0  0  0  0  0  0  0  0  0
   -0.2650    1.2776   -2.3418 H   0  0  0  0  0  0  0  0  0  0  0  0
  1  2  1  0
  2  3  2  0
  2  4  1  0
  4  5  1  0
  5  6  1  0
  6  7  1  0
  7  8  1  0
  8  9  2  0
  8 10  1  0
 10 11  2  0
 11 12  1  0
 12 13  2  0
 13 14  1  0
 14 15  2  0
 15 16  1  0
 16 17  1  0
 17 18  2  0
 18 19  1  0
 19 20  1  0
 20 21  2  0
 21 22  1  0
 22 23  1  0
 22 24  2  0
 24 25  1  0
 25 26  2  0
 26 27  1  0
 19 28  2  0
 28 29  1  0
 29 30  2  0
 30 31  1  0
 31 32  1  0
 31 33  1  0
 15 10  1  0
 30 17  1  0
 26 20  1  0
  1 34  1  0
  1 35  1  0
  1 36  1  0
  4 37  1  0
  5 38  1  0
  5 39  1  0
  6 40  1  0
  6 41  1  0
  7 42  1  0
 11 43  1  0
 13 44  1  0
 14 45  1  0
 16 46  1  0
 18 47  1  0
 21 48  1  0
 24 49  1  0
 25 50  1  0
 29 51  1  0
 31 52  1  0
 32 53  1  0
 32 54  1  0
 32 55  1  0
 33 56  1  0
 33 57  1  0
 33 58  1  0
M  END
$$$$
