@<TRIPOS>MOLECULE
*****
 95 98 0 0 0
SMALL
GASTEIGER

@<TRIPOS>ATOM
      1 C           2.1843    2.4407    2.8219 C.3     1  UNL1       -0.0494
      2 C           1.8461    0.9974    2.6610 C.3     1  UNL1        0.0097
      3 N           1.6699    0.5413    1.3028 N.pl3   1  UNL1       -0.3268
      4 C           0.3405    0.4702    0.7987 C.ar    1  UNL1        0.0347
      5 C          -0.3602    1.5980    0.6059 C.ar    1  UNL1       -0.0249
      6 C          -1.5629    1.7092    0.1273 C.ar    1  UNL1        0.0274
      7 C          -2.4412    2.5793    0.1233 C.1     1  UNL1       -0.0649
      8 C          -3.5460    3.6515    0.1404 C.1     1  UNL1       -0.0814
      9 C          -4.6100    4.6751    0.1720 C.3     1  UNL1        0.0614
     10 N          -4.2754    5.8810   -0.2914 N.3     1  UNL1       -0.2872
     11 C          -4.0712    6.0176   -1.6929 C.3     1  UNL1        0.0233
     12 C          -5.0697    7.0303   -2.2648 C.3     1  UNL1        0.0605
     13 O          -5.1844    8.1608   -1.4835 O.3     1  UNL1       -0.3772
     14 C          -4.3127    8.2173   -0.4095 C.3     1  UNL1        0.0605
     15 C          -4.4617    7.0176    0.4934 C.3     1  UNL1        0.0233
     16 C          -2.1709    0.3895   -0.1742 C.ar    1  UNL1       -0.0338
     17 C          -1.5064   -0.7498    0.0384 C.ar    1  UNL1        0.0425
     18 C          -2.4568   -1.8913   -0.0923 C.2     1  UNL1        0.2447
     19 O          -2.5072   -2.3689   -1.3602 O.2     1  UNL1       -0.2702
     20 N          -3.1912   -2.3998    0.8477 N.am    1  UNL1       -0.3070
     21 C          -4.1346   -3.1901    1.3877 C.3     1  UNL1        0.0425
     22 C          -4.3619   -4.5202    0.9043 C.ar    1  UNL1        0.0368
     23 C          -5.1537   -4.6900   -0.2898 C.ar    1  UNL1       -0.0390
     24 C          -5.4723   -3.5535   -1.1211 C.3     1  UNL1       -0.0392
     25 C          -5.6380   -5.9526   -0.5799 C.ar    1  UNL1       -0.0393
     26 C          -5.3864   -7.0370    0.1769 C.ar    1  UNL1        0.0162
     27 C          -6.1980   -8.3007    0.1007 C.3     1  UNL1       -0.0244
     28 N          -4.6120   -6.8657    1.2883 N.ar    1  UNL1       -0.3262
     29 C          -4.1285   -5.6561    1.6144 C.ar    1  UNL1        0.2539
     30 O          -3.4213   -5.5914    2.6931 O.2     1  UNL1       -0.2675
     31 C          -0.2687   -0.7771    0.5112 C.ar    1  UNL1       -0.0173
     32 C           0.4484   -2.0602    0.8683 C.3     1  UNL1       -0.0372
     33 C           2.7416    0.1492    0.4066 C.3     1  UNL1        0.0236
     34 C           3.4150    1.2603   -0.3081 C.3     1  UNL1       -0.0330
     35 C           4.8635    1.3129    0.0041 C.3     1  UNL1       -0.0357
     36 C           5.5717    0.0386   -0.3803 C.3     1  UNL1        0.0103
     37 N           5.8076   -0.0855   -1.8146 N.3     1  UNL1       -0.3002
     38 C           6.4634    1.1070   -2.3600 C.3     1  UNL1       -0.0124
     39 C           6.3650   -1.3143   -2.2012 C.3     1  UNL1        0.0223
     40 C           7.8090   -1.5012   -1.8488 C.3     1  UNL1        0.0600
     41 O           8.0224   -1.2616   -0.5290 O.3     1  UNL1       -0.3817
     42 C           9.3755   -1.4081   -0.1925 C.3     1  UNL1        0.0365
     43 C           4.7933   -1.1558    0.1068 C.3     1  UNL1       -0.0357
     44 C           3.7447   -0.7212    1.0817 C.3     1  UNL1       -0.0330
     45 H           1.3683    2.8472    3.5404 H       1  UNL1        0.0245
     46 H           2.1454    3.0512    1.8980 H       1  UNL1        0.0245
     47 H           3.1210    2.7006    3.3464 H       1  UNL1        0.0245
     48 H           0.9915    0.6677    3.2769 H       1  UNL1        0.0461
     49 H           2.7384    0.4593    3.1490 H       1  UNL1        0.0461
     50 H           0.1176    2.5917    0.8883 H       1  UNL1        0.0648
     51 H          -4.9874    4.5665    1.2611 H       1  UNL1        0.0563
     52 H          -5.4731    4.0640   -0.4259 H       1  UNL1        0.0563
     53 H          -4.2407    5.1171   -2.2780 H       1  UNL1        0.0449
     54 H          -3.0203    6.2931   -1.8299 H       1  UNL1        0.0449
     55 H          -4.6834    7.2690   -3.2517 H       1  UNL1        0.0572
     56 H          -6.0400    6.5081   -2.3022 H       1  UNL1        0.0572
     57 H          -3.2614    8.3256   -0.6800 H       1  UNL1        0.0572
     58 H          -4.5859    9.1301    0.2153 H       1  UNL1        0.0572
     59 H          -3.5716    7.0946    1.1686 H       1  UNL1        0.0449
     60 H          -5.4207    7.0850    1.0028 H       1  UNL1        0.0449
     61 H          -3.1396    0.4942   -0.6274 H       1  UNL1        0.0637
     62 H          -2.8264   -1.6607    1.8597 H       1  UNL1        0.1493
     63 H          -4.1869   -3.1904    2.5411 H       1  UNL1        0.0513
     64 H          -5.1695   -2.6254    1.2043 H       1  UNL1        0.0513
     65 H          -5.6773   -2.5893   -0.6019 H       1  UNL1        0.0278
     66 H          -4.6547   -3.3781   -1.8936 H       1  UNL1        0.0278
     67 H          -6.3620   -3.7907   -1.8135 H       1  UNL1        0.0278
     68 H          -6.2243   -6.0433   -1.4661 H       1  UNL1        0.0637
     69 H          -6.5546   -8.5465   -0.8831 H       1  UNL1        0.0292
     70 H          -7.0824   -8.0614    0.8068 H       1  UNL1        0.0292
     71 H          -5.6705   -9.0609    0.6687 H       1  UNL1        0.0292
     72 H          -4.4262   -7.7191    1.8257 H       1  UNL1        0.1686
     73 H           0.7534   -2.0700    1.9489 H       1  UNL1        0.0278
     74 H          -0.4541   -2.8205    0.8892 H       1  UNL1        0.0278
     75 H           1.1012   -2.5034    0.1588 H       1  UNL1        0.0278
     76 H           2.2755   -0.5163   -0.4095 H       1  UNL1        0.0500
     77 H           3.3531    1.0862   -1.4555 H       1  UNL1        0.0284
     78 H           2.9772    2.2554   -0.1518 H       1  UNL1        0.0284
     79 H           5.3335    2.1944   -0.5010 H       1  UNL1        0.0281
     80 H           4.9893    1.4965    1.1102 H       1  UNL1        0.0281
     81 H           6.5305    0.0947    0.1136 H       1  UNL1        0.0462
     82 H           7.0722    0.7620   -3.2414 H       1  UNL1        0.0391
     83 H           5.7534    1.8261   -2.7388 H       1  UNL1        0.0391
     84 H           7.1939    1.4332   -1.5923 H       1  UNL1        0.0391
     85 H           5.7679   -2.2024   -1.8655 H       1  UNL1        0.0449
     86 H           6.3169   -1.3831   -3.3480 H       1  UNL1        0.0449
     87 H           8.1158   -2.5960   -2.0212 H       1  UNL1        0.0572
     88 H           8.4863   -0.9064   -2.5108 H       1  UNL1        0.0572
     89 H           9.4617   -1.0362    0.8304 H       1  UNL1        0.0523
     90 H           9.4650   -2.5663   -0.1110 H       1  UNL1        0.0523
     91 H          10.0134   -0.9984   -0.9329 H       1  UNL1        0.0523
     92 H           5.4703   -1.8778    0.6377 H       1  UNL1        0.0281
     93 H           4.2647   -1.6622   -0.7282 H       1  UNL1        0.0281
     94 H           3.3067   -1.6489    1.5265 H       1  UNL1        0.0284
     95 H           4.2702   -0.1529    1.9098 H       1  UNL1        0.0284
@<TRIPOS>BOND
     1     1     2    1
     2     2     3    1
     3     3     4    1
     4     4     5   ar
     5     5     6   ar
     6     6     7    1
     7     7     8    3
     8     8     9    1
     9     9    10    1
    10    10    11    1
    11    11    12    1
    12    12    13    1
    13    13    14    1
    14    14    15    1
    15     6    16   ar
    16    16    17   ar
    17    17    18    1
    18    18    19    2
    19    18    20   am
    20    20    21    1
    21    21    22    1
    22    22    23   ar
    23    23    24    1
    24    23    25   ar
    25    25    26   ar
    26    26    27    1
    27    26    28   ar
    28    28    29   ar
    29    29    30    2
    30    17    31   ar
    31    31    32    1
    32     3    33    1
    33    33    34    1
    34    34    35    1
    35    35    36    1
    36    36    37    1
    37    37    38    1
    38    37    39    1
    39    39    40    1
    40    40    41    1
    41    41    42    1
    42    36    43    1
    43    43    44    1
    44    31     4   ar
    45    44    33    1
    46    15    10    1
    47    29    22   ar
    48     1    45    1
    49     1    46    1
    50     1    47    1
    51     2    48    1
    52     2    49    1
    53     5    50    1
    54     9    51    1
    55     9    52    1
    56    11    53    1
    57    11    54    1
    58    12    55    1
    59    12    56    1
    60    14    57    1
    61    14    58    1
    62    15    59    1
    63    15    60    1
    64    16    61    1
    65    20    62    1
    66    21    63    1
    67    21    64    1
    68    24    65    1
    69    24    66    1
    70    24    67    1
    71    25    68    1
    72    27    69    1
    73    27    70    1
    74    27    71    1
    75    28    72    1
    76    32    73    1
    77    32    74    1
    78    32    75    1
    79    33    76    1
    80    34    77    1
    81    34    78    1
    82    35    79    1
    83    35    80    1
    84    36    81    1
    85    38    82    1
    86    38    83    1
    87    38    84    1
    88    39    85    1
    89    39    86    1
    90    40    87    1
    91    40    88    1
    92    42    89    1
    93    42    90    1
    94    42    91    1
    95    43    92    1
    96    43    93    1
    97    44    94    1
    98    44    95    1
