
     RDKit          3D

 95 98  0  0  0  0  0  0  0  0999 V2000
    2.1843    2.4407    2.8219 C   0  0  0  0  0  0  0  0  0  0  0  0
    1.8461    0.9974    2.6610 C   0  0  0  0  0  0  0  0  0  0  0  0
    1.6699    0.5413    1.3028 N   0  0  0  0  0  0  0  0  0  0  0  0
    0.3405    0.4702    0.7987 C   0  0  0  0  0  0  0  0  0  0  0  0
   -0.3602    1.5980    0.6059 C   0  0  0  0  0  0  0  0  0  0  0  0
   -1.5629    1.7092    0.1273 C   0  0  0  0  0  0  0  0  0  0  0  0
   -2.4412    2.5793    0.1233 C   0  0  0  0  0  0  0  0  0  0  0  0
   -3.5460    3.6515    0.1404 C   0  0  0  0  0  0  0  0  0  0  0  0
   -4.6100    4.6751    0.1720 C   0  0  0  0  0  0  0  0  0  0  0  0
   -4.2754    5.8810   -0.2914 N   0  0  0  0  0  0  0  0  0  0  0  0
   -4.0712    6.0176   -1.6929 C   0  0  0  0  0  0  0  0  0  0  0  0
   -5.0697    7.0303   -2.2648 C   0  0  0  0  0  0  0  0  0  0  0  0
   -5.1844    8.1608   -1.4835 O   0  0  0  0  0  0  0  0  0  0  0  0
   -4.3127    8.2173   -0.4095 C   0  0  0  0  0  0  0  0  0  0  0  0
   -4.4617    7.0176    0.4934 C   0  0  0  0  0  0  0  0  0  0  0  0
   -2.1709    0.3895   -0.1742 C   0  0  0  0  0  0  0  0  0  0  0  0
   -1.5064   -0.7498    0.0384 C   0  0  0  0  0  0  0  0  0  0  0  0
   -2.4568   -1.8913   -0.0923 C   0  0  0  0  0  0  0  0  0  0  0  0
   -2.5072   -2.3689   -1.3602 O   0  0  0  0  0  0  0  0  0  0  0  0
   -3.1912   -2.3998    0.8477 N   0  0  0  0  0  0  0  0  0  0  0  0
   -4.1346   -3.1901    1.3877 C   0  0  0  0  0  0  0  0  0  0  0  0
   -4.3619   -4.5202    0.9043 C   0  0  0  0  0  0  0  0  0  0  0  0
   -5.1537   -4.6900   -0.2898 C   0  0  0  0  0  0  0  0  0  0  0  0
   -5.4723   -3.5535   -1.1211 C   0  0  0  0  0  0  0  0  0  0  0  0
   -5.6380   -5.9526   -0.5799 C   0  0  0  0  0  0  0  0  0  0  0  0
   -5.3864   -7.0370    0.1769 C   0  0  0  0  0  0  0  0  0  0  0  0
   -6.1980   -8.3007    0.1007 C   0  0  0  0  0  0  0  0  0  0  0  0
   -4.6120   -6.8657    1.2883 N   0  0  0  0  0  0  0  0  0  0  0  0
   -4.1285   -5.6561    1.6144 C   0  0  0  0  0  0  0  0  0  0  0  0
   -3.4213   -5.5914    2.6931 O   0  0  0  0  0  0  0  0  0  0  0  0
   -0.2687   -0.7771    0.5112 C   0  0  0  0  0  0  0  0  0  0  0  0
    0.4484   -2.0602    0.8683 C   0  0  0  0  0  0  0  0  0  0  0  0
    2.7416    0.1492    0.4066 C   0  0  1  0  0  0  0  0  0  0  0  0
    3.4150    1.2603   -0.3081 C   0  0  0  0  0  0  0  0  0  0  0  0
    4.8635    1.3129    0.0041 C   0  0  0  0  0  0  0  0  0  0  0  0
    5.5717    0.0386   -0.3803 C   0  0  2  0  0  0  0  0  0  0  0  0
    5.8076   -0.0855   -1.8146 N   0  0  0  0  0  0  0  0  0  0  0  0
    6.4634    1.1070   -2.3600 C   0  0  0  0  0  0  0  0  0  0  0  0
    6.3650   -1.3143   -2.2012 C   0  0  0  0  0  0  0  0  0  0  0  0
    7.8090   -1.5012   -1.8488 C   0  0  0  0  0  0  0  0  0  0  0  0
    8.0224   -1.2616   -0.5290 O   0  0  0  0  0  0  0  0  0  0  0  0
    9.3755   -1.4081   -0.1925 C   0  0  0  0  0  0  0  0  0  0  0  0
    4.7933   -1.1558    0.1068 C   0  0  0  0  0  0  0  0  0  0  0  0
    3.7447   -0.7212    1.0817 C   0  0  0  0  0  0  0  0  0  0  0  0
    1.3683    2.8472    3.5404 H   0  0  0  0  0  0  0  0  0  0  0  0
    2.1454    3.0512    1.8980 H   0  0  0  0  0  0  0  0  0  0  0  0
    3.1210    2.7006    3.3464 H   0  0  0  0  0  0  0  0  0  0  0  0
    0.9915    0.6677    3.2769 H   0  0  0  0  0  0  0  0  0  0  0  0
    2.7384    0.4593    3.1490 H   0  0  0  0  0  0  0  0  0  0  0  0
    0.1176    2.5917    0.8883 H   0  0  0  0  0  0  0  0  0  0  0  0
   -4.9874    4.5665    1.2611 H   0  0  0  0  0  0  0  0  0  0  0  0
   -5.4731    4.0640   -0.4259 H   0  0  0  0  0  0  0  0  0  0  0  0
   -4.2407    5.1171   -2.2780 H   0  0  0  0  0  0  0  0  0  0  0  0
   -3.0203    6.2931   -1.8299 H   0  0  0  0  0  0  0  0  0  0  0  0
   -4.6834    7.2690   -3.2517 H   0  0  0  0  0  0  0  0  0  0  0  0
   -6.0400    6.5081   -2.3022 H   0  0  0  0  0  0  0  0  0  0  0  0
   -3.2614    8.3256   -0.6800 H   0  0  0  0  0  0  0  0  0  0  0  0
   -4.5859    9.1301    0.2153 H   0  0  0  0  0  0  0  0  0  0  0  0
   -3.5716    7.0946    1.1686 H   0  0  0  0  0  0  0  0  0  0  0  0
   -5.4207    7.0850    1.0028 H   0  0  0  0  0  0  0  0  0  0  0  0
   -3.1396    0.4942   -0.6274 H   0  0  0  0  0  0  0  0  0  0  0  0
   -2.8264   -1.6607    1.8597 H   0  0  0  0  0  0  0  0  0  0  0  0
   -4.1869   -3.1904    2.5411 H   0  0  0  0  0  0  0  0  0  0  0  0
   -5.1695   -2.6254    1.2043 H   0  0  0  0  0  0  0  0  0  0  0  0
   -5.6773   -2.5893   -0.6019 H   0  0  0  0  0  0  0  0  0  0  0  0
   -4.6547   -3.3781   -1.8936 H   0  0  0  0  0  0  0  0  0  0  0  0
   -6.3620   -3.7907   -1.8135 H   0  0  0  0  0  0  0  0  0  0  0  0
   -6.2243   -6.0433   -1.4661 H   0  0  0  0  0  0  0  0  0  0  0  0
   -6.5546   -8.5465   -0.8831 H   0  0  0  0  0  0  0  0  0  0  0  0
   -7.0824   -8.0614    0.8068 H   0  0  0  0  0  0  0  0  0  0  0  0
   -5.6705   -9.0609    0.6687 H   0  0  0  0  0  0  0  0  0  0  0  0
   -4.4262   -7.7191    1.8257 H   0  0  0  0  0  0  0  0  0  0  0  0
    0.7534   -2.0700    1.9489 H   0  0  0  0  0  0  0  0  0  0  0  0
   -0.4541   -2.8205    0.8892 H   0  0  0  0  0  0  0  0  0  0  0  0
    1.1012   -2.5034    0.1588 H   0  0  0  0  0  0  0  0  0  0  0  0
    2.2755   -0.5163   -0.4095 H   0  0  0  0  0  0  0  0  0  0  0  0
    3.3531    1.0862   -1.4555 H   0  0  0  0  0  0  0  0  0  0  0  0
    2.9772    2.2554   -0.1518 H   0  0  0  0  0  0  0  0  0  0  0  0
    5.3335    2.1944   -0.5010 H   0  0  0  0  0  0  0  0  0  0  0  0
    4.9893    1.4965    1.1102 H   0  0  0  0  0  0  0  0  0  0  0  0
    6.5305    0.0947    0.1136 H   0  0  0  0  0  0  0  0  0  0  0  0
    7.0722    0.7620   -3.2414 H   0  0  0  0  0  0  0  0  0  0  0  0
    5.7534    1.8261   -2.7388 H   0  0  0  0  0  0  0  0  0  0  0  0
    7.1939    1.4332   -1.5923 H   0  0  0  0  0  0  0  0  0  0  0  0
    5.7679   -2.2024   -1.8655 H   0  0  0  0  0  0  0  0  0  0  0  0
    6.3169   -1.3831   -3.3480 H   0  0  0  0  0  0  0  0  0  0  0  0
    8.1158   -2.5960   -2.0212 H   0  0  0  0  0  0  0  0  0  0  0  0
    8.4863   -0.9064   -2.5108 H   0  0  0  0  0  0  0  0  0  0  0  0
    9.4617   -1.0362    0.8304 H   0  0  0  0  0  0  0  0  0  0  0  0
    9.4650   -2.5663   -0.1110 H   0  0  0  0  0  0  0  0  0  0  0  0
   10.0134   -0.9984   -0.9329 H   0  0  0  0  0  0  0  0  0  0  0  0
    5.4703   -1.8778    0.6377 H   0  0  0  0  0  0  0  0  0  0  0  0
    4.2647   -1.6622   -0.7282 H   0  0  0  0  0  0  0  0  0  0  0  0
    3.3067   -1.6489    1.5265 H   0  0  0  0  0  0  0  0  0  0  0  0
    4.2702   -0.1529    1.9098 H   0  0  0  0  0  0  0  0  0  0  0  0
  1  2  1  0
  2  3  1  0
  3  4  1  0
  4  5  2  0
  5  6  1  0
  6  7  1  0
  7  8  3  0
  8  9  1  0
  9 10  1  0
 10 11  1  0
 11 12  1  0
 12 13  1  0
 13 14  1  0
 14 15  1  0
  6 16  2  0
 16 17  1  0
 17 18  1  0
 18 19  2  0
 18 20  1  0
 20 21  1  0
 21 22  1  0
 22 23  2  0
 23 24  1  0
 23 25  1  0
 25 26  2  0
 26 27  1  0
 26 28  1  0
 28 29  1  0
 29 30  2  0
 17 31  2  0
 31 32  1  0
  3 33  1  0
 33 34  1  0
 34 35  1  0
 35 36  1  0
 36 37  1  0
 37 38  1  0
 37 39  1  0
 39 40  1  0
 40 41  1  0
 41 42  1  0
 36 43  1  0
 43 44  1  0
 31  4  1  0
 44 33  1  0
 15 10  1  0
 29 22  1  0
  1 45  1  0
  1 46  1  0
  1 47  1  0
  2 48  1  0
  2 49  1  0
  5 50  1  0
  9 51  1  0
  9 52  1  0
 11 53  1  0
 11 54  1  0
 12 55  1  0
 12 56  1  0
 14 57  1  0
 14 58  1  0
 15 59  1  0
 15 60  1  0
 16 61  1  0
 20 62  1  0
 21 63  1  0
 21 64  1  0
 24 65  1  0
 24 66  1  0
 24 67  1  0
 25 68  1  0
 27 69  1  0
 27 70  1  0
 27 71  1  0
 28 72  1  0
 32 73  1  0
 32 74  1  0
 32 75  1  0
 33 76  1  6
 34 77  1  0
 34 78  1  0
 35 79  1  0
 35 80  1  0
 36 81  1  1
 38 82  1  0
 38 83  1  0
 38 84  1  0
 39 85  1  0
 39 86  1  0
 40 87  1  0
 40 88  1  0
 42 89  1  0
 42 90  1  0
 42 91  1  0
 43 92  1  0
 43 93  1  0
 44 94  1  0
 44 95  1  0
M  END
$$$$
