@<TRIPOS>MOLECULE
*****
 37 39 0 0 0
SMALL
GASTEIGER

@<TRIPOS>ATOM
      1 O           3.0517   -4.1100   -0.1525 O.3     1  UNL1       -0.4761
      2 C           2.2522   -2.9971   -0.1432 C.2     1  UNL1        0.3539
      3 OXT         1.0414   -3.3201   -0.1007 O.2     1  UNL1       -0.2435
      4 CA          2.8343   -1.6438   -0.1806 C.ar    1  UNL1        0.1325
      5 C           2.1994   -0.4027   -0.1771 C.ar    1  UNL1        0.0160
      6 C           0.8018   -0.2052   -0.1341 C.2     1  UNL1       -0.0468
      7 C          -0.3795    0.3003   -0.1035 C.2     1  UNL1        0.0011
      8 C          -1.7948   -0.0184   -0.0510 C.2     1  UNL1        0.2411
      9 O          -2.1615   -1.2301   -0.0180 O.2     1  UNL1       -0.2705
     10 N          -2.6767    1.0864   -0.0408 N.am    1  UNL1       -0.2820
     11 C          -4.0536    0.6671    0.0122 C.ar    1  UNL1        0.0337
     12 C          -4.6452    0.4957    1.2545 C.ar    1  UNL1       -0.0405
     13 C          -5.9536    0.0983    1.4523 C.ar    1  UNL1       -0.0600
     14 C          -6.7198   -0.1434    0.3252 C.ar    1  UNL1       -0.0616
     15 C          -6.1576    0.0189   -0.9384 C.ar    1  UNL1       -0.0600
     16 C          -4.8637    0.4123   -1.0839 C.ar    1  UNL1       -0.0405
     17 C           3.1628    0.5644   -0.2216 C.ar    1  UNL1        0.0260
     18 C           3.3267    1.9212   -0.2452 C.ar    1  UNL1        0.0521
     19 CL          1.8952    2.8900   -0.2110 Cl      1  UNL1       -0.0828
     20 C           4.5024    2.6034   -0.2926 C.ar    1  UNL1       -0.0243
     21 C           5.6886    1.9041   -0.3215 C.ar    1  UNL1        0.0443
     22 CL          7.2464    2.6814   -0.3825 Cl      1  UNL1       -0.0834
     23 C           5.5975    0.5319   -0.2999 C.ar    1  UNL1       -0.0193
     24 C           4.3669   -0.0788   -0.2518 C.ar    1  UNL1        0.0504
     25 N           4.1390   -1.3896   -0.2264 N.ar    1  UNL1       -0.3485
     26 H           2.7895   -4.9389    0.3630 H       1  UNL1        0.2955
     27 H           0.2696   -1.1873   -0.0984 H       1  UNL1        0.0626
     28 H          -0.0600    1.3219   -0.1328 H       1  UNL1        0.0670
     29 H          -2.3528    2.0782   -0.0687 H       1  UNL1        0.1551
     30 H          -4.0386    0.6870    2.1420 H       1  UNL1        0.0636
     31 H          -6.3119   -0.0035    2.4858 H       1  UNL1        0.0618
     32 H          -7.7423   -0.4537    0.5071 H       1  UNL1        0.0618
     33 H          -6.7845   -0.1783   -1.7897 H       1  UNL1        0.0618
     34 H          -4.3904    0.5496   -2.0468 H       1  UNL1        0.0636
     35 H           4.5673    3.6733   -0.3092 H       1  UNL1        0.0647
     36 H           6.5174   -0.0276   -0.3222 H       1  UNL1        0.0653
     37 H           4.8364   -2.1567   -0.2385 H       1  UNL1        0.1661
@<TRIPOS>BOND
     1     1     2    1
     2     2     3    2
     3     2     4    1
     4     4     5   ar
     5     5     6    1
     6     6     7    2
     7     7     8    1
     8     8     9    2
     9     8    10   am
    10    10    11    1
    11    11    12   ar
    12    12    13   ar
    13    13    14   ar
    14    14    15   ar
    15    15    16   ar
    16     5    17   ar
    17    17    18   ar
    18    18    19    1
    19    18    20   ar
    20    20    21   ar
    21    21    22    1
    22    21    23   ar
    23    23    24   ar
    24    24    25   ar
    25    25     4   ar
    26    16    11   ar
    27    24    17   ar
    28     1    26    1
    29     6    27    1
    30     7    28    1
    31    10    29    1
    32    12    30    1
    33    13    31    1
    34    14    32    1
    35    15    33    1
    36    16    34    1
    37    20    35    1
    38    23    36    1
    39    25    37    1
