@<TRIPOS>MOLECULE
*****
 64 69 0 0 0
SMALL
GASTEIGER

@<TRIPOS>ATOM
      1 C          -5.8637    2.1902   -0.2963 C.3     1  UNL1       -0.0380
      2 C          -6.0193    0.8721    0.3724 C.ar    1  UNL1       -0.0279
      3 C          -7.0974    0.6743    1.2447 C.ar    1  UNL1       -0.0557
      4 C          -7.2442   -0.5333    1.8605 C.ar    1  UNL1       -0.0433
      5 C          -6.3318   -1.5235    1.6096 C.ar    1  UNL1        0.0279
      6 N          -5.3207   -1.2954    0.7735 N.ar    1  UNL1       -0.2583
      7 C          -5.1077   -0.1342    0.1288 C.ar    1  UNL1        0.0581
      8 C          -3.9987    0.1312   -0.7939 C.3     1  UNL1        0.0415
      9 N          -2.9469    0.9425   -0.2292 N.3     1  UNL1       -0.2965
     10 C          -2.3339    0.3635    0.9226 C.3     1  UNL1        0.0017
     11 C          -0.8518    0.5241    0.9422 C.3     1  UNL1       -0.0095
     12 C          -0.1243   -0.0171   -0.2391 C.3     1  UNL1        0.1240
     13 C          -1.0288    0.0601   -1.4496 C.3     1  UNL1       -0.0095
     14 C          -1.9940    1.1899   -1.3064 C.3     1  UNL1        0.0017
     15 C           1.1215    0.7787   -0.5126 C.2     1  UNL1        0.2516
     16 O           1.1973    1.9276   -1.0399 O.2     1  UNL1       -0.2724
     17 N           2.2523    0.0358   -0.0808 N.am    1  UNL1       -0.1920
     18 C           3.5856    0.5490    0.0494 C.ar    1  UNL1        0.0456
     19 C           4.4478    0.4856   -1.0216 C.ar    1  UNL1       -0.0378
     20 C           5.7293    0.9594   -0.9464 C.ar    1  UNL1       -0.0345
     21 C           6.1901    1.5191    0.2234 C.ar    1  UNL1        0.0654
     22 N           7.5174    2.0001    0.2755 N.ar    1  UNL1       -0.2399
     23 C           8.5183    1.4284    0.9485 C.ar    1  UNL1        0.0312
     24 C           9.6591    2.1675    0.7719 C.ar    1  UNL1       -0.0238
     25 C           9.2992    3.2266   -0.0493 C.ar    1  UNL1        0.0498
     26 N           7.9793    3.0623   -0.3138 N.ar    1  UNL1       -0.1748
     27 C           5.3335    1.5843    1.2938 C.ar    1  UNL1       -0.0345
     28 C           4.0406    1.1066    1.2191 C.ar    1  UNL1       -0.0378
     29 C           1.7662   -1.2694    0.1769 C.2     1  UNL1        0.3219
     30 O           2.4845   -2.2154    0.5806 O.2     1  UNL1       -0.2512
     31 N           0.3715   -1.3670   -0.0791 N.am    1  UNL1       -0.2240
     32 C          -0.3999   -2.5870   -0.1657 C.ar    1  UNL1        0.1364
     33 C          -0.9751   -3.1222    0.9448 C.ar    1  UNL1        0.0432
     34 C          -1.7069   -4.2876    0.8374 C.ar    1  UNL1        0.2531
     35 O          -2.2625   -4.8273    1.8384 O.2     1  UNL1       -0.2678
     36 N          -1.8364   -4.8743   -0.3758 N.ar    1  UNL1       -0.3133
     37 C          -1.2699   -4.3484   -1.4735 C.ar    1  UNL1        0.0981
     38 N          -0.5636   -3.2149   -1.3425 N.ar    1  UNL1       -0.2220
     39 H          -6.7822    2.8135   -0.0978 H       1  UNL1        0.0278
     40 H          -5.8420    2.0945   -1.4144 H       1  UNL1        0.0278
     41 H          -5.0170    2.7792    0.0962 H       1  UNL1        0.0278
     42 H          -7.8183    1.4592    1.4418 H       1  UNL1        0.0621
     43 H          -8.0636   -0.7404    2.5475 H       1  UNL1        0.0633
     44 H          -6.3772   -2.5198    2.0623 H       1  UNL1        0.0829
     45 H          -3.5487   -0.8175   -1.1552 H       1  UNL1        0.0491
     46 H          -4.3980    0.6818   -1.6705 H       1  UNL1        0.0491
     47 H          -2.7333    0.8851    1.8180 H       1  UNL1        0.0427
     48 H          -2.5760   -0.7163    0.9216 H       1  UNL1        0.0427
     49 H          -0.6287    1.6243    1.0571 H       1  UNL1        0.0303
     50 H          -0.4867    0.0740    1.9094 H       1  UNL1        0.0303
     51 H          -1.5652   -0.8717   -1.6172 H       1  UNL1        0.0303
     52 H          -0.3960    0.2628   -2.3398 H       1  UNL1        0.0303
     53 H          -2.5083    1.3197   -2.2797 H       1  UNL1        0.0427
     54 H          -1.5118    2.1587   -1.0768 H       1  UNL1        0.0427
     55 H           4.1399    0.0544   -1.9718 H       1  UNL1        0.0637
     56 H           6.4245    0.9135   -1.7950 H       1  UNL1        0.0639
     57 H           8.4472    0.5328    1.5361 H       1  UNL1        0.0831
     58 H          10.6184    1.9279    1.2077 H       1  UNL1        0.0648
     59 H           9.9735    3.9971   -0.3802 H       1  UNL1        0.0848
     60 H           5.7205    2.0348    2.2189 H       1  UNL1        0.0639
     61 H           3.3682    1.1581    2.0601 H       1  UNL1        0.0637
     62 H          -0.8798   -2.6647    1.9177 H       1  UNL1        0.0706
     63 H          -2.3924   -5.7667   -0.4786 H       1  UNL1        0.1698
     64 H          -1.3828   -4.8364   -2.4568 H       1  UNL1        0.1028
@<TRIPOS>BOND
     1     1     2    1
     2     2     3   ar
     3     3     4   ar
     4     4     5   ar
     5     5     6   ar
     6     6     7   ar
     7     7     8    1
     8     8     9    1
     9     9    10    1
    10    10    11    1
    11    11    12    1
    12    12    13    1
    13    13    14    1
    14    12    15    1
    15    15    16    2
    16    15    17   am
    17    17    18    1
    18    18    19   ar
    19    19    20   ar
    20    20    21   ar
    21    21    22    1
    22    22    23   ar
    23    23    24   ar
    24    24    25   ar
    25    25    26   ar
    26    21    27   ar
    27    27    28   ar
    28    17    29   am
    29    29    30    2
    30    29    31   am
    31    31    32    1
    32    32    33   ar
    33    33    34   ar
    34    34    35    2
    35    34    36   ar
    36    36    37   ar
    37    37    38   ar
    38     7     2   ar
    39    14     9    1
    40    28    18   ar
    41    38    32   ar
    42    31    12    1
    43    26    22   ar
    44     1    39    1
    45     1    40    1
    46     1    41    1
    47     3    42    1
    48     4    43    1
    49     5    44    1
    50     8    45    1
    51     8    46    1
    52    10    47    1
    53    10    48    1
    54    11    49    1
    55    11    50    1
    56    13    51    1
    57    13    52    1
    58    14    53    1
    59    14    54    1
    60    19    55    1
    61    20    56    1
    62    23    57    1
    63    24    58    1
    64    25    59    1
    65    27    60    1
    66    28    61    1
    67    33    62    1
    68    36    63    1
    69    37    64    1
