@<TRIPOS>MOLECULE
*****
 46 48 0 0 0
SMALL
GASTEIGER

@<TRIPOS>ATOM
      1 C           5.3881   -1.2731   -0.0315 C.3     1  UNL1       -0.0044
      2 C           4.0944   -0.5510    0.0915 C.ar    1  UNL1        0.1301
      3 N           3.6617    0.5652   -0.5166 N.ar    1  UNL1       -0.1346
      4 N           2.4514    0.8305   -0.0968 N.ar    1  UNL1       -0.1324
      5 C           2.0754   -0.1069    0.7900 C.ar    1  UNL1        0.1535
      6 C           0.7435   -0.0618    1.4386 C.3     1  UNL1        0.0809
      7 C           0.3113   -1.3141    2.0778 C.3     1  UNL1       -0.0394
      8 N          -0.2804    0.2428    0.3801 N.pl3   1  UNL1       -0.3156
      9 C          -0.1925   -0.6802   -0.7003 C.3     1  UNL1        0.0393
     10 C          -1.0937   -0.7424   -1.7958 C.ar    1  UNL1       -0.0119
     11 C          -0.6920   -0.2968   -3.0673 C.ar    1  UNL1       -0.0557
     12 C          -1.4945   -0.3684   -4.1634 C.ar    1  UNL1       -0.0614
     13 C          -2.7565   -0.8901   -4.0713 C.ar    1  UNL1       -0.0604
     14 C          -3.2059   -1.3438   -2.8474 C.ar    1  UNL1       -0.0431
     15 C          -2.3798   -1.2640   -1.7458 C.ar    1  UNL1        0.0456
     16 CL         -2.9880   -1.8461   -0.2301 Cl      1  UNL1       -0.0832
     17 C          -1.1656    1.2867    0.6258 C.ar    1  UNL1        0.0320
     18 C          -2.0025    1.7856   -0.3509 C.ar    1  UNL1       -0.0393
     19 C          -2.9327    2.7849   -0.0917 C.ar    1  UNL1       -0.0412
     20 C          -3.0695    3.3368    1.1664 C.ar    1  UNL1        0.0701
     21 C          -4.0265    4.3667    1.4384 C.1     1  UNL1        0.1006
     22 N          -4.7854    5.2080    1.6651 N.1     1  UNL1       -0.1908
     23 C          -2.2279    2.8293    2.1280 C.ar    1  UNL1        0.0600
     24 CL         -2.3347    3.4804    3.7704 Cl      1  UNL1       -0.0822
     25 C          -1.3016    1.8460    1.9093 C.ar    1  UNL1       -0.0210
     26 N           3.0647   -0.9414    0.9056 N.ar    1  UNL1       -0.3166
     27 C           3.1298   -2.1101    1.7441 C.3     1  UNL1        0.0147
     28 H           5.2496   -2.3366   -0.3005 H       1  UNL1        0.0308
     29 H           6.0514   -0.8183   -0.7836 H       1  UNL1        0.0308
     30 H           5.9418   -1.2317    0.9436 H       1  UNL1        0.0308
     31 H           0.8177    0.7447    2.1605 H       1  UNL1        0.0578
     32 H           0.5441   -2.2560    1.5906 H       1  UNL1        0.0252
     33 H           0.5274   -1.2968    3.1902 H       1  UNL1        0.0252
     34 H          -0.8274   -1.3034    2.0962 H       1  UNL1        0.0252
     35 H          -0.2179   -1.7454   -0.2396 H       1  UNL1        0.0514
     36 H           0.8800   -0.6322   -1.0742 H       1  UNL1        0.0514
     37 H           0.3007    0.1257   -3.1928 H       1  UNL1        0.0621
     38 H          -1.1529   -0.0131   -5.1388 H       1  UNL1        0.0618
     39 H          -3.3767   -0.9378   -4.9538 H       1  UNL1        0.0618
     40 H          -4.2046   -1.7550   -2.7792 H       1  UNL1        0.0632
     41 H          -1.9783    1.4555   -1.3777 H       1  UNL1        0.0636
     42 H          -3.5888    3.1736   -0.8630 H       1  UNL1        0.0631
     43 H          -0.6816    1.4778    2.7302 H       1  UNL1        0.0651
     44 H           2.7492   -1.9901    2.7569 H       1  UNL1        0.0457
     45 H           4.2204   -2.3934    1.9201 H       1  UNL1        0.0457
     46 H           2.7556   -3.0401    1.2195 H       1  UNL1        0.0457
@<TRIPOS>BOND
     1     1     2    1
     2     2     3   ar
     3     3     4   ar
     4     4     5   ar
     5     5     6    1
     6     6     7    1
     7     6     8    1
     8     8     9    1
     9     9    10    1
    10    10    11   ar
    11    11    12   ar
    12    12    13   ar
    13    13    14   ar
    14    14    15   ar
    15    15    16    1
    16     8    17    1
    17    17    18   ar
    18    18    19   ar
    19    19    20   ar
    20    20    21    1
    21    21    22    3
    22    20    23   ar
    23    23    24    1
    24    23    25   ar
    25     5    26   ar
    26    26    27    1
    27    26     2   ar
    28    15    10   ar
    29    25    17   ar
    30     1    28    1
    31     1    29    1
    32     1    30    1
    33     6    31    1
    34     7    32    1
    35     7    33    1
    36     7    34    1
    37     9    35    1
    38     9    36    1
    39    11    37    1
    40    12    38    1
    41    13    39    1
    42    14    40    1
    43    18    41    1
    44    19    42    1
    45    25    43    1
    46    27    44    1
    47    27    45    1
    48    27    46    1
