@<TRIPOS>MOLECULE
*****
 56 60 0 0 0
SMALL
GASTEIGER

@<TRIPOS>ATOM
      1 O           6.4306    2.1825    0.9896 O.2     1  UNL1       -0.2510
      2 C           7.4953    1.5850    0.6576 C.2     1  UNL1        0.3050
      3 O           8.6848    2.0352    1.2256 O.3     1  UNL1       -0.4806
      4 C           7.4823    0.4565   -0.2924 C.3     1  UNL1        0.0498
      5 C           6.0572    0.2094   -0.7272 C.3     1  UNL1       -0.0049
      6 C           5.9330   -0.9280   -1.7024 C.3     1  UNL1        0.0518
      7 O           4.9995   -1.8059   -1.2204 O.3     1  UNL1       -0.3730
      8 C           4.1864   -1.1113   -0.3305 C.3     1  UNL1        0.0727
      9 C           3.3363   -0.1600   -1.1365 C.3     1  UNL1       -0.0079
     10 C           1.9266   -0.6706   -1.3095 C.3     1  UNL1        0.0161
     11 N           1.2926   -0.8899   -0.0202 N.pl3   1  UNL1       -0.3150
     12 C          -0.0828   -0.6448    0.1085 C.ar    1  UNL1        0.1212
     13 C          -0.7076   -0.8430    1.3124 C.ar    1  UNL1       -0.0210
     14 C          -2.0815   -0.5971    1.4367 C.ar    1  UNL1       -0.0464
     15 C          -2.7960   -0.1575    0.3479 C.ar    1  UNL1        0.0355
     16 C          -4.2354    0.1115    0.4358 C.ar    1  UNL1        0.1407
     17 N          -5.0537    0.5409   -0.5381 N.ar    1  UNL1       -0.2277
     18 C          -6.3077    0.6676   -0.0627 C.ar    1  UNL1        0.0900
     19 C          -7.5209    1.0581   -0.5952 C.ar    1  UNL1       -0.0226
     20 C          -8.6882    1.0973    0.1389 C.ar    1  UNL1        0.0569
     21 C          -9.9954    1.5208   -0.4449 C.3     1  UNL1        0.4175
     22 F         -10.2145    2.8485   -0.0689 F       1  UNL1       -0.1659
     23 F          -9.9403    1.4963   -1.8176 F       1  UNL1       -0.1659
     24 F         -11.0374    0.7907    0.0651 F       1  UNL1       -0.1659
     25 C          -8.6152    0.7244    1.4653 C.ar    1  UNL1       -0.0480
     26 C          -7.4107    0.3242    2.0400 C.ar    1  UNL1       -0.0357
     27 C          -6.2679    0.3005    1.2669 C.ar    1  UNL1        0.0665
     28 N          -5.0106   -0.0251    1.5259 N.ar    1  UNL1       -0.3378
     29 C          -2.1296    0.0287   -0.8433 C.ar    1  UNL1        0.0403
     30 N          -0.7985   -0.2181   -0.9320 N.ar    1  UNL1       -0.2396
     31 C           2.1291   -1.3550    1.0720 C.3     1  UNL1        0.0161
     32 C           3.3832   -2.0165    0.5447 C.3     1  UNL1       -0.0079
     33 C           5.2022   -0.2865    0.4320 C.3     1  UNL1       -0.0182
     34 H           8.7225    3.0347    1.4588 H       1  UNL1        0.2951
     35 H           7.9536   -0.4507    0.0916 H       1  UNL1        0.0381
     36 H           8.0398    0.7738   -1.1979 H       1  UNL1        0.0381
     37 H           5.5981    1.1451   -1.0740 H       1  UNL1        0.0329
     38 H           6.9229   -1.4383   -1.7326 H       1  UNL1        0.0563
     39 H           5.7225   -0.5907   -2.7365 H       1  UNL1        0.0563
     40 H           3.7612   -0.0194   -2.1518 H       1  UNL1        0.0308
     41 H           3.3282    0.8377   -0.6626 H       1  UNL1        0.0308
     42 H           1.9079   -1.5641   -1.9552 H       1  UNL1        0.0465
     43 H           1.3593    0.1260   -1.8341 H       1  UNL1        0.0465
     44 H          -0.1623   -1.1880    2.1789 H       1  UNL1        0.0652
     45 H          -2.6002   -0.7419    2.3633 H       1  UNL1        0.0626
     46 H          -7.5501    1.3440   -1.6321 H       1  UNL1        0.0645
     47 H          -9.5087    0.7408    2.0774 H       1  UNL1        0.0624
     48 H          -7.3859    0.0369    3.0856 H       1  UNL1        0.0639
     49 H          -4.6343   -0.3497    2.4446 H       1  UNL1        0.1674
     50 H          -2.6237    0.3719   -1.7415 H       1  UNL1        0.0837
     51 H           2.3532   -0.5148    1.7569 H       1  UNL1        0.0465
     52 H           1.5381   -2.1552    1.5995 H       1  UNL1        0.0465
     53 H           3.0647   -2.9096   -0.0212 H       1  UNL1        0.0308
     54 H           4.0019   -2.2743    1.4312 H       1  UNL1        0.0308
     55 H           4.7577    0.5220    1.0134 H       1  UNL1        0.0296
     56 H           5.7887   -1.0048    1.0492 H       1  UNL1        0.0296
@<TRIPOS>BOND
     1     1     2    2
     2     2     3    1
     3     2     4    1
     4     4     5    1
     5     5     6    1
     6     6     7    1
     7     7     8    1
     8     8     9    1
     9     9    10    1
    10    10    11    1
    11    11    12    1
    12    12    13   ar
    13    13    14   ar
    14    14    15   ar
    15    15    16    1
    16    16    17   ar
    17    17    18   ar
    18    18    19   ar
    19    19    20   ar
    20    20    21    1
    21    21    22    1
    22    21    23    1
    23    21    24    1
    24    20    25   ar
    25    25    26   ar
    26    26    27   ar
    27    27    28   ar
    28    15    29   ar
    29    29    30   ar
    30    11    31    1
    31    31    32    1
    32     8    33    1
    33    33     5    1
    34    32     8    1
    35    30    12   ar
    36    28    16   ar
    37    27    18   ar
    38     3    34    1
    39     4    35    1
    40     4    36    1
    41     5    37    1
    42     6    38    1
    43     6    39    1
    44     9    40    1
    45     9    41    1
    46    10    42    1
    47    10    43    1
    48    13    44    1
    49    14    45    1
    50    19    46    1
    51    25    47    1
    52    26    48    1
    53    28    49    1
    54    29    50    1
    55    31    51    1
    56    31    52    1
    57    32    53    1
    58    32    54    1
    59    33    55    1
    60    33    56    1
