
     RDKit          3D

 25 27  0  0  0  0  0  0  0  0999 V2000
    4.6842    0.9092   -1.5060 O   0  0  0  0  0  0  0  0  0  0  0  0
    4.4171    0.2865   -0.4777 C   0  0  0  0  0  0  0  0  0  0  0  0
    4.6916   -0.4262    0.7111 N   0  0  0  0  0  0  0  0  0  0  0  0
    3.5903   -0.8818    1.4775 C   0  0  0  0  0  0  0  0  0  0  0  0
    3.8799   -1.5137    2.5290 O   0  0  0  0  0  0  0  0  0  0  0  0
    2.2916   -0.5339    0.9064 C   0  0  0  0  0  0  0  0  0  0  0  0
    2.6291    0.3618   -0.6334 S   0  0  0  0  0  0  0  0  0  0  0  0
    1.1242   -0.8475    1.4310 C   0  0  0  0  0  0  0  0  0  0  0  0
   -0.0814   -0.4139    0.7201 C   0  0  0  0  0  0  0  0  0  0  0  0
   -1.2116   -1.1698    0.4678 C   0  0  0  0  0  0  0  0  0  0  0  0
   -2.2679   -0.5790   -0.2328 C   0  0  0  0  0  0  0  0  0  0  0  0
   -2.2211    0.7261   -0.6796 C   0  0  0  0  0  0  0  0  0  0  0  0
   -1.0939    1.4988   -0.4341 C   0  0  0  0  0  0  0  0  0  0  0  0
   -0.0490    0.8984    0.2665 C   0  0  0  0  0  0  0  0  0  0  0  0
   -3.2398    1.2590   -1.3487 N   0  0  0  0  0  0  0  0  0  0  0  0
   -4.3494    0.5208   -1.6031 C   0  0  0  0  0  0  0  0  0  0  0  0
   -4.3670   -0.7770   -1.1444 C   0  0  0  0  0  0  0  0  0  0  0  0
   -3.3542   -1.3301   -0.4715 N   0  0  0  0  0  0  0  0  0  0  0  0
    5.7319   -0.4698    0.7795 H   0  0  0  0  0  0  0  0  0  0  0  0
    1.1254   -1.4228    2.3671 H   0  0  0  0  0  0  0  0  0  0  0  0
   -1.1999   -2.1814    0.8386 H   0  0  0  0  0  0  0  0  0  0  0  0
   -1.0883    2.5136   -0.7992 H   0  0  0  0  0  0  0  0  0  0  0  0
    0.7686    1.6202    0.4005 H   0  0  0  0  0  0  0  0  0  0  0  0
   -5.0995    1.0673   -2.1532 H   0  0  0  0  0  0  0  0  0  0  0  0
   -5.3108   -1.2767   -1.4112 H   0  0  0  0  0  0  0  0  0  0  0  0
  1  2  2  0
  2  3  1  0
  3  4  1  0
  4  5  2  0
  4  6  1  0
  6  7  1  0
  6  8  2  0
  8  9  1  0
  9 10  2  0
 10 11  1  0
 11 12  2  0
 12 13  1  0
 13 14  2  0
 12 15  1  0
 15 16  2  0
 16 17  1  0
 17 18  2  0
  7  2  1  0
 14  9  1  0
 18 11  1  0
  3 19  1  0
  8 20  1  0
 10 21  1  0
 13 22  1  0
 14 23  1  0
 16 24  1  0
 17 25  1  0
M  END
$$$$
