@<TRIPOS>MOLECULE
*****
 50 53 0 0 0
SMALL
GASTEIGER

@<TRIPOS>ATOM
      1 C           7.3220    0.8710    0.8070 C.3     1  UNL1       -0.0455
      2 C           6.2235    1.1703   -0.1690 C.3     1  UNL1        0.0394
      3 N           4.9502    1.4531    0.4131 N.ar    1  UNL1       -0.2639
      4 N           4.7390    2.7776    0.6567 N.ar    1  UNL1       -0.1791
      5 C           3.5266    3.0312    1.1402 C.ar    1  UNL1        0.0500
      6 C           2.8717    1.7893    1.2297 C.ar    1  UNL1       -0.0162
      7 C           3.7684    0.9574    0.7896 C.ar    1  UNL1        0.0709
      8 C           3.5637   -0.4633    0.5149 C.ar    1  UNL1        0.0266
      9 C           4.3986   -1.5082    0.1893 C.ar    1  UNL1        0.0133
     10 N           3.8533   -2.6720   -0.1808 N.ar    1  UNL1       -0.3452
     11 C           2.5311   -2.4347   -0.1110 C.ar    1  UNL1        0.1388
     12 N           1.6020   -3.3033   -0.4419 N.ar    1  UNL1       -0.2369
     13 C           0.2995   -3.0040   -0.4350 C.ar    1  UNL1        0.0376
     14 C          -0.0039   -1.6538   -0.0308 C.ar    1  UNL1        0.0010
     15 C           1.0448   -0.8049    0.3116 C.ar    1  UNL1       -0.0413
     16 C           2.3787   -1.1594    0.2907 C.ar    1  UNL1        0.0284
     17 C          -1.4041   -1.4525   -0.1884 C.ar    1  UNL1       -0.0156
     18 C          -2.5230   -0.9463    0.2168 C.ar    1  UNL1       -0.0401
     19 C          -3.6510   -0.4477    0.6002 C.ar    1  UNL1        0.0580
     20 C          -5.0026   -0.0215    0.5993 C.2     1  UNL1        0.2479
     21 O          -6.0773   -0.5737    0.2507 O.2     1  UNL1       -0.2699
     22 N          -5.3635    1.3069    1.0411 N.am    1  UNL1       -0.3036
     23 C          -4.7737    2.5818    1.5339 C.3     1  UNL1        0.0031
     24 C          -6.8076    1.5673    1.0023 C.3     1  UNL1        0.0031
     25 C          -4.0795   -0.9911   -0.7996 C.ar    1  UNL1        0.0368
     26 N          -5.3408   -1.0991   -1.6606 N.pl3   1  UNL1       -0.3574
     27 C          -3.2966   -1.7042   -1.8614 C.ar    1  UNL1       -0.0397
     28 C          -1.9470   -1.8924   -1.4478 C.ar    1  UNL1       -0.0522
     29 H           7.3777   -0.2105    1.0336 H       1  UNL1        0.0247
     30 H           8.3008    1.1717    0.2694 H       1  UNL1        0.0247
     31 H           7.2989    1.5215    1.7332 H       1  UNL1        0.0247
     32 H           6.5438    2.0948   -0.7773 H       1  UNL1        0.0506
     33 H           6.2145    0.3262   -0.9150 H       1  UNL1        0.0506
     34 H           3.2205    4.0511    1.3985 H       1  UNL1        0.0848
     35 H           1.8729    1.8362    1.5881 H       1  UNL1        0.0654
     36 H           5.5073   -1.4056    0.2345 H       1  UNL1        0.0814
     37 H           4.3582   -3.5019   -0.4546 H       1  UNL1        0.1668
     38 H          -0.4242   -3.7322   -0.7077 H       1  UNL1        0.0836
     39 H           0.7459    0.1700    0.5589 H       1  UNL1        0.0631
     40 H          -2.1795   -0.5598    1.2963 H       1  UNL1        0.0632
     41 H          -5.2747    2.8501    2.4459 H       1  UNL1        0.0428
     42 H          -5.0450    3.3589    0.7334 H       1  UNL1        0.0428
     43 H          -3.6730    2.5144    1.5544 H       1  UNL1        0.0428
     44 H          -7.2513    0.9587    0.1457 H       1  UNL1        0.0428
     45 H          -7.3062    1.2325    1.9093 H       1  UNL1        0.0428
     46 H          -7.0873    2.5970    0.7463 H       1  UNL1        0.0428
     47 H          -5.7963   -2.0356   -1.7454 H       1  UNL1        0.1423
     48 H          -5.5168   -0.0938   -1.9667 H       1  UNL1        0.1423
     49 H          -3.4523   -2.1222   -2.8629 H       1  UNL1        0.0636
     50 H          -1.2362   -2.3952   -2.1537 H       1  UNL1        0.0624
@<TRIPOS>BOND
     1     1     2    1
     2     2     3    1
     3     3     4   ar
     4     4     5   ar
     5     5     6   ar
     6     6     7   ar
     7     7     8    1
     8     8     9   ar
     9     9    10   ar
    10    10    11   ar
    11    11    12   ar
    12    12    13   ar
    13    13    14   ar
    14    14    15   ar
    15    15    16   ar
    16    14    17    1
    17    17    18   ar
    18    18    19   ar
    19    19    20    1
    20    20    21    2
    21    20    22   am
    22    22    23    1
    23    22    24    1
    24    19    25   ar
    25    25    26    1
    26    25    27   ar
    27    27    28   ar
    28     7     3   ar
    29    16     8   ar
    30    28    17   ar
    31    16    11   ar
    32     1    29    1
    33     1    30    1
    34     1    31    1
    35     2    32    1
    36     2    33    1
    37     5    34    1
    38     6    35    1
    39     9    36    1
    40    10    37    1
    41    13    38    1
    42    15    39    1
    43    18    40    1
    44    23    41    1
    45    23    42    1
    46    23    43    1
    47    24    44    1
    48    24    45    1
    49    24    46    1
    50    26    47    1
    51    26    48    1
    52    27    49    1
    53    28    50    1
