
     RDKit          3D

 50 53  0  0  0  0  0  0  0  0999 V2000
    7.3220    0.8710    0.8070 C   0  0  0  0  0  0  0  0  0  0  0  0
    6.2235    1.1703   -0.1690 C   0  0  0  0  0  0  0  0  0  0  0  0
    4.9502    1.4531    0.4131 N   0  0  0  0  0  0  0  0  0  0  0  0
    4.7390    2.7776    0.6567 N   0  0  0  0  0  0  0  0  0  0  0  0
    3.5266    3.0312    1.1402 C   0  0  0  0  0  0  0  0  0  0  0  0
    2.8717    1.7893    1.2297 C   0  0  0  0  0  0  0  0  0  0  0  0
    3.7684    0.9574    0.7896 C   0  0  0  0  0  0  0  0  0  0  0  0
    3.5637   -0.4633    0.5149 C   0  0  0  0  0  0  0  0  0  0  0  0
    4.3986   -1.5082    0.1893 C   0  0  0  0  0  0  0  0  0  0  0  0
    3.8533   -2.6720   -0.1808 N   0  0  0  0  0  0  0  0  0  0  0  0
    2.5311   -2.4347   -0.1110 C   0  0  0  0  0  0  0  0  0  0  0  0
    1.6020   -3.3033   -0.4419 N   0  0  0  0  0  0  0  0  0  0  0  0
    0.2995   -3.0040   -0.4350 C   0  0  0  0  0  0  0  0  0  0  0  0
   -0.0039   -1.6538   -0.0308 C   0  0  0  0  0  0  0  0  0  0  0  0
    1.0448   -0.8049    0.3116 C   0  0  0  0  0  0  0  0  0  0  0  0
    2.3787   -1.1594    0.2907 C   0  0  0  0  0  0  0  0  0  0  0  0
   -1.4041   -1.4525   -0.1884 C   0  0  0  0  0  0  0  0  0  0  0  0
   -2.5230   -0.9463    0.2168 C   0  0  0  0  0  0  0  0  0  0  0  0
   -3.6510   -0.4477    0.6002 C   0  0  0  0  0  0  0  0  0  0  0  0
   -5.0026   -0.0215    0.5993 C   0  0  0  0  0  0  0  0  0  0  0  0
   -6.0773   -0.5737    0.2507 O   0  0  0  0  0  0  0  0  0  0  0  0
   -5.3635    1.3069    1.0411 N   0  0  0  0  0  0  0  0  0  0  0  0
   -4.7737    2.5818    1.5339 C   0  0  0  0  0  0  0  0  0  0  0  0
   -6.8076    1.5673    1.0023 C   0  0  0  0  0  0  0  0  0  0  0  0
   -4.0795   -0.9911   -0.7996 C   0  0  0  0  0  0  0  0  0  0  0  0
   -5.3408   -1.0991   -1.6606 N   0  0  0  0  0  0  0  0  0  0  0  0
   -3.2966   -1.7042   -1.8614 C   0  0  0  0  0  0  0  0  0  0  0  0
   -1.9470   -1.8924   -1.4478 C   0  0  0  0  0  0  0  0  0  0  0  0
    7.3777   -0.2105    1.0336 H   0  0  0  0  0  0  0  0  0  0  0  0
    8.3008    1.1717    0.2694 H   0  0  0  0  0  0  0  0  0  0  0  0
    7.2989    1.5215    1.7332 H   0  0  0  0  0  0  0  0  0  0  0  0
    6.5438    2.0948   -0.7773 H   0  0  0  0  0  0  0  0  0  0  0  0
    6.2145    0.3262   -0.9150 H   0  0  0  0  0  0  0  0  0  0  0  0
    3.2205    4.0511    1.3985 H   0  0  0  0  0  0  0  0  0  0  0  0
    1.8729    1.8362    1.5881 H   0  0  0  0  0  0  0  0  0  0  0  0
    5.5073   -1.4056    0.2345 H   0  0  0  0  0  0  0  0  0  0  0  0
    4.3582   -3.5019   -0.4546 H   0  0  0  0  0  0  0  0  0  0  0  0
   -0.4242   -3.7322   -0.7077 H   0  0  0  0  0  0  0  0  0  0  0  0
    0.7459    0.1700    0.5589 H   0  0  0  0  0  0  0  0  0  0  0  0
   -2.1795   -0.5598    1.2963 H   0  0  0  0  0  0  0  0  0  0  0  0
   -5.2747    2.8501    2.4459 H   0  0  0  0  0  0  0  0  0  0  0  0
   -5.0450    3.3589    0.7334 H   0  0  0  0  0  0  0  0  0  0  0  0
   -3.6730    2.5144    1.5544 H   0  0  0  0  0  0  0  0  0  0  0  0
   -7.2513    0.9587    0.1457 H   0  0  0  0  0  0  0  0  0  0  0  0
   -7.3062    1.2325    1.9093 H   0  0  0  0  0  0  0  0  0  0  0  0
   -7.0873    2.5970    0.7463 H   0  0  0  0  0  0  0  0  0  0  0  0
   -5.7963   -2.0356   -1.7454 H   0  0  0  0  0  0  0  0  0  0  0  0
   -5.5168   -0.0938   -1.9667 H   0  0  0  0  0  0  0  0  0  0  0  0
   -3.4523   -2.1222   -2.8629 H   0  0  0  0  0  0  0  0  0  0  0  0
   -1.2362   -2.3952   -2.1537 H   0  0  0  0  0  0  0  0  0  0  0  0
  1  2  1  0
  2  3  1  0
  3  4  1  0
  4  5  2  0
  5  6  1  0
  6  7  2  0
  7  8  1  0
  8  9  2  0
  9 10  1  0
 10 11  1  0
 11 12  2  0
 12 13  1  0
 13 14  2  0
 14 15  1  0
 15 16  2  0
 14 17  1  0
 17 18  2  0
 18 19  1  0
 19 20  1  0
 20 21  2  0
 20 22  1  0
 22 23  1  0
 22 24  1  0
 19 25  2  0
 25 26  1  0
 25 27  1  0
 27 28  2  0
  7  3  1  0
 16  8  1  0
 28 17  1  0
 16 11  1  0
  1 29  1  0
  1 30  1  0
  1 31  1  0
  2 32  1  0
  2 33  1  0
  5 34  1  0
  6 35  1  0
  9 36  1  0
 10 37  1  0
 13 38  1  0
 15 39  1  0
 18 40  1  0
 23 41  1  0
 23 42  1  0
 23 43  1  0
 24 44  1  0
 24 45  1  0
 24 46  1  0
 26 47  1  0
 26 48  1  0
 27 49  1  0
 28 50  1  0
M  END
$$$$
