@<TRIPOS>MOLECULE
*****
 41 43 0 0 0
SMALL
GASTEIGER

@<TRIPOS>ATOM
      1 C           1.0695    4.6070    0.1286 C.3     1  UNL1        0.0790
      2 O           1.1558    3.2125    0.1346 O.3     1  UNL1       -0.4915
      3 C           0.0701    2.3657   -0.0194 C.ar    1  UNL1        0.1615
      4 C          -1.1841    2.8968   -0.1908 C.ar    1  UNL1       -0.0160
      5 C          -2.2632    2.0422   -0.3440 C.ar    1  UNL1       -0.0546
      6 C          -2.1108    0.6766   -0.3287 C.ar    1  UNL1       -0.0387
      7 C          -3.2613   -0.2436   -0.4920 C.3     1  UNL1        0.0080
      8 C          -3.3660   -1.1189    0.7353 C.3     1  UNL1        0.0188
      9 N          -3.1542   -2.4720    0.2587 N.am    1  UNL1       -0.3147
     10 C          -3.3877   -2.5469   -1.1336 C.2     1  UNL1        0.2137
     11 O          -3.7868   -3.5622   -1.7621 O.2     1  UNL1       -0.2758
     12 C          -3.0612   -1.1862   -1.6646 C.3     1  UNL1        0.0322
     13 C          -0.8227    0.1777   -0.1524 C.ar    1  UNL1       -0.0128
     14 C           0.2781    0.9872    0.0035 C.ar    1  UNL1        0.1626
     15 O           1.5657    0.5517    0.1800 O.3     1  UNL1       -0.4852
     16 C           1.9158   -0.7849    0.2226 C.3     1  UNL1        0.1004
     17 C           3.0305   -1.0858   -0.7753 C.3     1  UNL1       -0.0158
     18 C           4.2241   -1.4958    0.0577 C.3     1  UNL1       -0.0496
     19 C           3.5226   -2.1463    1.2582 C.3     1  UNL1       -0.0496
     20 C           2.5389   -1.0640    1.6000 C.3     1  UNL1       -0.0158
     21 H           0.8492    5.0279    1.1486 H       1  UNL1        0.0660
     22 H           2.0933    4.9950   -0.1443 H       1  UNL1        0.0660
     23 H           0.3809    5.0139   -0.6390 H       1  UNL1        0.0660
     24 H          -1.3219    3.9771   -0.2053 H       1  UNL1        0.0655
     25 H          -3.2442    2.4445   -0.4782 H       1  UNL1        0.0622
     26 H          -4.2020    0.2990   -0.6189 H       1  UNL1        0.0369
     27 H          -4.3870   -1.0308    1.1998 H       1  UNL1        0.0468
     28 H          -2.5623   -0.9013    1.4579 H       1  UNL1        0.0468
     29 H          -2.8656   -3.2621    0.8986 H       1  UNL1        0.1487
     30 H          -2.0211   -1.1253   -2.0296 H       1  UNL1        0.0365
     31 H          -3.7575   -0.9638   -2.4896 H       1  UNL1        0.0365
     32 H          -0.6952   -0.8913   -0.1393 H       1  UNL1        0.0658
     33 H           1.1295   -1.5264    0.1097 H       1  UNL1        0.0733
     34 H           3.2412   -0.2075   -1.4181 H       1  UNL1        0.0301
     35 H           2.7388   -1.9206   -1.4440 H       1  UNL1        0.0301
     36 H           4.7750   -0.5754    0.4059 H       1  UNL1        0.0266
     37 H           4.8866   -2.1934   -0.4534 H       1  UNL1        0.0266
     38 H           4.2238   -2.3891    2.0544 H       1  UNL1        0.0266
     39 H           2.9736   -3.0160    0.8468 H       1  UNL1        0.0266
     40 H           3.0526   -0.1632    1.9375 H       1  UNL1        0.0301
     41 H           1.7390   -1.4020    2.2844 H       1  UNL1        0.0301
@<TRIPOS>BOND
     1     1     2    1
     2     2     3    1
     3     3     4   ar
     4     4     5   ar
     5     5     6   ar
     6     6     7    1
     7     7     8    1
     8     8     9    1
     9     9    10   am
    10    10    11    2
    11    10    12    1
    12     6    13   ar
    13    13    14   ar
    14    14    15    1
    15    15    16    1
    16    16    17    1
    17    17    18    1
    18    18    19    1
    19    19    20    1
    20    14     3   ar
    21    20    16    1
    22    12     7    1
    23     1    21    1
    24     1    22    1
    25     1    23    1
    26     4    24    1
    27     5    25    1
    28     7    26    1
    29     8    27    1
    30     8    28    1
    31     9    29    1
    32    12    30    1
    33    12    31    1
    34    13    32    1
    35    16    33    1
    36    17    34    1
    37    17    35    1
    38    18    36    1
    39    18    37    1
    40    19    38    1
    41    19    39    1
    42    20    40    1
    43    20    41    1
