
     RDKit          3D

 41 43  0  0  0  0  0  0  0  0999 V2000
    1.0695    4.6070    0.1286 C   0  0  0  0  0  0  0  0  0  0  0  0
    1.1558    3.2125    0.1346 O   0  0  0  0  0  0  0  0  0  0  0  0
    0.0701    2.3657   -0.0194 C   0  0  0  0  0  0  0  0  0  0  0  0
   -1.1841    2.8968   -0.1908 C   0  0  0  0  0  0  0  0  0  0  0  0
   -2.2632    2.0422   -0.3440 C   0  0  0  0  0  0  0  0  0  0  0  0
   -2.1108    0.6766   -0.3287 C   0  0  0  0  0  0  0  0  0  0  0  0
   -3.2613   -0.2436   -0.4920 C   0  0  0  0  0  0  0  0  0  0  0  0
   -3.3660   -1.1189    0.7353 C   0  0  0  0  0  0  0  0  0  0  0  0
   -3.1542   -2.4720    0.2587 N   0  0  0  0  0  0  0  0  0  0  0  0
   -3.3877   -2.5469   -1.1336 C   0  0  0  0  0  0  0  0  0  0  0  0
   -3.7868   -3.5622   -1.7621 O   0  0  0  0  0  0  0  0  0  0  0  0
   -3.0612   -1.1862   -1.6646 C   0  0  0  0  0  0  0  0  0  0  0  0
   -0.8227    0.1777   -0.1524 C   0  0  0  0  0  0  0  0  0  0  0  0
    0.2781    0.9872    0.0035 C   0  0  0  0  0  0  0  0  0  0  0  0
    1.5657    0.5517    0.1800 O   0  0  0  0  0  0  0  0  0  0  0  0
    1.9158   -0.7849    0.2226 C   0  0  0  0  0  0  0  0  0  0  0  0
    3.0305   -1.0858   -0.7753 C   0  0  0  0  0  0  0  0  0  0  0  0
    4.2241   -1.4958    0.0577 C   0  0  0  0  0  0  0  0  0  0  0  0
    3.5226   -2.1463    1.2582 C   0  0  0  0  0  0  0  0  0  0  0  0
    2.5389   -1.0640    1.6000 C   0  0  0  0  0  0  0  0  0  0  0  0
    0.8492    5.0279    1.1486 H   0  0  0  0  0  0  0  0  0  0  0  0
    2.0933    4.9950   -0.1443 H   0  0  0  0  0  0  0  0  0  0  0  0
    0.3809    5.0139   -0.6390 H   0  0  0  0  0  0  0  0  0  0  0  0
   -1.3219    3.9771   -0.2053 H   0  0  0  0  0  0  0  0  0  0  0  0
   -3.2442    2.4445   -0.4782 H   0  0  0  0  0  0  0  0  0  0  0  0
   -4.2020    0.2990   -0.6189 H   0  0  0  0  0  0  0  0  0  0  0  0
   -4.3870   -1.0308    1.1998 H   0  0  0  0  0  0  0  0  0  0  0  0
   -2.5623   -0.9013    1.4579 H   0  0  0  0  0  0  0  0  0  0  0  0
   -2.8656   -3.2621    0.8986 H   0  0  0  0  0  0  0  0  0  0  0  0
   -2.0211   -1.1253   -2.0296 H   0  0  0  0  0  0  0  0  0  0  0  0
   -3.7575   -0.9638   -2.4896 H   0  0  0  0  0  0  0  0  0  0  0  0
   -0.6952   -0.8913   -0.1393 H   0  0  0  0  0  0  0  0  0  0  0  0
    1.1295   -1.5264    0.1097 H   0  0  0  0  0  0  0  0  0  0  0  0
    3.2412   -0.2075   -1.4181 H   0  0  0  0  0  0  0  0  0  0  0  0
    2.7388   -1.9206   -1.4440 H   0  0  0  0  0  0  0  0  0  0  0  0
    4.7750   -0.5754    0.4059 H   0  0  0  0  0  0  0  0  0  0  0  0
    4.8866   -2.1934   -0.4534 H   0  0  0  0  0  0  0  0  0  0  0  0
    4.2238   -2.3891    2.0544 H   0  0  0  0  0  0  0  0  0  0  0  0
    2.9736   -3.0160    0.8468 H   0  0  0  0  0  0  0  0  0  0  0  0
    3.0526   -0.1632    1.9375 H   0  0  0  0  0  0  0  0  0  0  0  0
    1.7390   -1.4020    2.2844 H   0  0  0  0  0  0  0  0  0  0  0  0
  1  2  1  0
  2  3  1  0
  3  4  2  0
  4  5  1  0
  5  6  2  0
  6  7  1  0
  7  8  1  0
  8  9  1  0
  9 10  1  0
 10 11  2  0
 10 12  1  0
  6 13  1  0
 13 14  2  0
 14 15  1  0
 15 16  1  0
 16 17  1  0
 17 18  1  0
 18 19  1  0
 19 20  1  0
 14  3  1  0
 20 16  1  0
 12  7  1  0
  1 21  1  0
  1 22  1  0
  1 23  1  0
  4 24  1  0
  5 25  1  0
  7 26  1  0
  8 27  1  0
  8 28  1  0
  9 29  1  0
 12 30  1  0
 12 31  1  0
 13 32  1  0
 16 33  1  0
 17 34  1  0
 17 35  1  0
 18 36  1  0
 18 37  1  0
 19 38  1  0
 19 39  1  0
 20 40  1  0
 20 41  1  0
M  END
$$$$
