
     RDKit          3D

 52 56  0  0  0  0  0  0  0  0999 V2000
   11.4955    0.5424   -0.1789 C   0  0  0  0  0  0  0  0  0  0  0  0
   10.7740    0.1418   -1.2703 O   0  0  0  0  0  0  0  0  0  0  0  0
    9.4573    0.5594   -1.2923 C   0  0  0  0  0  0  0  0  0  0  0  0
    8.7250    0.0262   -0.1018 C   0  0  0  0  0  0  0  0  0  0  0  0
    7.4024    0.3639   -0.0048 O   0  0  0  0  0  0  0  0  0  0  0  0
    6.6752   -0.0603   -1.0833 C   0  0  0  0  0  0  0  0  0  0  0  0
    5.2594    0.3055   -0.8371 C   0  0  0  0  0  0  0  0  0  0  0  0
    4.0920    0.6038   -0.6130 C   0  0  0  0  0  0  0  0  0  0  0  0
    2.7115    0.9481   -0.3611 C   0  0  0  0  0  0  0  0  0  0  0  0
    1.6397    0.1431   -0.2766 C   0  0  0  0  0  0  0  0  0  0  0  0
    0.4334    0.6665   -0.0189 C   0  0  0  0  0  0  0  0  0  0  0  0
   -0.8146   -0.1679    0.0874 C   0  0  0  0  0  0  0  0  0  0  0  0
   -0.9155   -1.4969   -0.1193 N   0  0  0  0  0  0  0  0  0  0  0  0
   -2.1606   -1.8839    0.0802 N   0  0  0  0  0  0  0  0  0  0  0  0
   -2.9219   -0.8445    0.4215 C   0  0  0  0  0  0  0  0  0  0  0  0
   -2.0790    0.2445    0.4282 C   0  0  0  0  0  0  0  0  0  0  0  0
   -2.8646    1.4488    0.8075 C   0  0  0  0  0  0  0  0  0  0  0  0
   -4.2332    0.9108    1.0158 C   0  0  0  0  0  0  0  0  0  0  0  0
   -5.4396    1.5158    1.3860 C   0  0  0  0  0  0  0  0  0  0  0  0
   -6.6162    0.8033    1.5183 C   0  0  0  0  0  0  0  0  0  0  0  0
   -6.6236   -0.5398    1.2836 C   0  0  0  0  0  0  0  0  0  0  0  0
   -7.8572   -1.3136    1.4188 C   0  0  0  0  0  0  0  0  0  0  0  0
   -8.6685   -1.3839    0.2388 N   0  0  0  0  0  0  0  0  0  0  0  0
   -8.6445   -2.2778   -0.7717 C   0  0  0  0  0  0  0  0  0  0  0  0
   -9.5764   -1.9989   -1.6865 N   0  0  0  0  0  0  0  0  0  0  0  0
  -10.2059   -0.8880   -1.2289 C   0  0  0  0  0  0  0  0  0  0  0  0
   -9.6311   -0.5413   -0.0601 N   0  0  0  0  0  0  0  0  0  0  0  0
   -5.4637   -1.1722    0.9188 C   0  0  0  0  0  0  0  0  0  0  0  0
   -4.2743   -0.4411    0.7872 C   0  0  0  0  0  0  0  0  0  0  0  0
    0.3228    2.0306    0.1540 C   0  0  0  0  0  0  0  0  0  0  0  0
    2.0721    2.5660   -0.0727 S   0  0  0  0  0  0  0  0  0  0  0  0
   12.5460    0.1617   -0.3111 H   0  0  0  0  0  0  0  0  0  0  0  0
   11.1290    0.0801    0.7884 H   0  0  0  0  0  0  0  0  0  0  0  0
   11.4729    1.6421   -0.0994 H   0  0  0  0  0  0  0  0  0  0  0  0
    9.4974    1.6880   -1.2923 H   0  0  0  0  0  0  0  0  0  0  0  0
    8.9940    0.2025   -2.2534 H   0  0  0  0  0  0  0  0  0  0  0  0
    8.8509   -1.0742   -0.0949 H   0  0  0  0  0  0  0  0  0  0  0  0
    9.2194    0.4566    0.8083 H   0  0  0  0  0  0  0  0  0  0  0  0
    6.7166   -1.1247   -1.3072 H   0  0  0  0  0  0  0  0  0  0  0  0
    7.0460    0.5033   -1.9886 H   0  0  0  0  0  0  0  0  0  0  0  0
    1.7885   -0.9629   -0.4250 H   0  0  0  0  0  0  0  0  0  0  0  0
   -0.0888   -2.1028   -0.3999 H   0  0  0  0  0  0  0  0  0  0  0  0
   -2.9284    2.2009    0.0202 H   0  0  0  0  0  0  0  0  0  0  0  0
   -2.4601    1.9162    1.7506 H   0  0  0  0  0  0  0  0  0  0  0  0
   -5.3858    2.5871    1.5623 H   0  0  0  0  0  0  0  0  0  0  0  0
   -7.5002    1.3628    1.8124 H   0  0  0  0  0  0  0  0  0  0  0  0
   -7.5906   -2.3607    1.7035 H   0  0  0  0  0  0  0  0  0  0  0  0
   -8.4958   -0.8897    2.2414 H   0  0  0  0  0  0  0  0  0  0  0  0
   -7.9615   -3.1062   -0.8297 H   0  0  0  0  0  0  0  0  0  0  0  0
  -11.0233   -0.4169   -1.7664 H   0  0  0  0  0  0  0  0  0  0  0  0
   -5.4196   -2.2469    0.7205 H   0  0  0  0  0  0  0  0  0  0  0  0
   -0.4765    2.6734    0.3580 H   0  0  0  0  0  0  0  0  0  0  0  0
  1  2  1  0
  2  3  1  0
  3  4  1  0
  4  5  1  0
  5  6  1  0
  6  7  1  0
  7  8  3  0
  8  9  1  0
  9 10  2  0
 10 11  1  0
 11 12  1  0
 12 13  1  0
 13 14  1  0
 14 15  2  0
 15 16  1  0
 16 17  1  0
 17 18  1  0
 18 19  2  0
 19 20  1  0
 20 21  2  0
 21 22  1  0
 22 23  1  0
 23 24  1  0
 24 25  2  0
 25 26  1  0
 26 27  2  0
 21 28  1  0
 28 29  2  0
 11 30  2  0
 30 31  1  0
 31  9  1  0
 16 12  2  0
 29 18  1  0
 29 15  1  0
 27 23  1  0
  1 32  1  0
  1 33  1  0
  1 34  1  0
  3 35  1  0
  3 36  1  0
  4 37  1  0
  4 38  1  0
  6 39  1  0
  6 40  1  0
 10 41  1  0
 13 42  1  0
 17 43  1  0
 17 44  1  0
 19 45  1  0
 20 46  1  0
 22 47  1  0
 22 48  1  0
 24 49  1  0
 26 50  1  0
 28 51  1  0
 30 52  1  0
M  END
$$$$
