@<TRIPOS>MOLECULE
*****
 52 56 0 0 0
SMALL
GASTEIGER

@<TRIPOS>ATOM
      1 C          11.4955    0.5424   -0.1789 C.3     1  UNL1        0.0365
      2 O          10.7740    0.1418   -1.2703 O.3     1  UNL1       -0.3807
      3 C           9.4573    0.5594   -1.2923 C.3     1  UNL1        0.0707
      4 C           8.7250    0.0262   -0.1018 C.3     1  UNL1        0.0722
      5 O           7.4024    0.3639   -0.0048 O.3     1  UNL1       -0.3651
      6 C           6.6752   -0.0603   -1.0833 C.3     1  UNL1        0.1087
      7 C           5.2594    0.3055   -0.8371 C.1     1  UNL1       -0.0682
      8 C           4.0920    0.6038   -0.6130 C.1     1  UNL1       -0.0568
      9 C           2.7115    0.9481   -0.3611 C.ar    1  UNL1        0.0626
     10 C           1.6397    0.1431   -0.2766 C.ar    1  UNL1       -0.0300
     11 C           0.4334    0.6665   -0.0189 C.ar    1  UNL1        0.0083
     12 C          -0.8146   -0.1679    0.0874 C.ar    1  UNL1        0.0704
     13 N          -0.9155   -1.4969   -0.1193 N.ar    1  UNL1       -0.2761
     14 N          -2.1606   -1.8839    0.0802 N.ar    1  UNL1       -0.1730
     15 C          -2.9219   -0.8445    0.4215 C.ar    1  UNL1        0.0968
     16 C          -2.0790    0.2445    0.4282 C.ar    1  UNL1        0.0099
     17 C          -2.8646    1.4488    0.8075 C.3     1  UNL1        0.0023
     18 C          -4.2332    0.9108    1.0158 C.ar    1  UNL1       -0.0337
     19 C          -5.4396    1.5158    1.3860 C.ar    1  UNL1       -0.0573
     20 C          -6.6162    0.8033    1.5183 C.ar    1  UNL1       -0.0565
     21 C          -6.6236   -0.5398    1.2836 C.ar    1  UNL1       -0.0254
     22 C          -7.8572   -1.3136    1.4188 C.3     1  UNL1        0.0682
     23 N          -8.6685   -1.3839    0.2388 N.ar    1  UNL1       -0.2477
     24 C          -8.6445   -2.2778   -0.7717 C.ar    1  UNL1        0.1146
     25 N          -9.5764   -1.9989   -1.6865 N.ar    1  UNL1       -0.2228
     26 C         -10.2059   -0.8880   -1.2289 C.ar    1  UNL1        0.1380
     27 N          -9.6311   -0.5413   -0.0601 N.ar    1  UNL1       -0.1581
     28 C          -5.4637   -1.1722    0.9188 C.ar    1  UNL1       -0.0473
     29 C          -4.2743   -0.4411    0.7872 C.ar    1  UNL1        0.0062
     30 C           0.3228    2.0306    0.1540 C.ar    1  UNL1       -0.0140
     31 S           2.0721    2.5660   -0.0727 S.2     1  UNL1       -0.0876
     32 H          12.5460    0.1617   -0.3111 H       1  UNL1        0.0524
     33 H          11.1290    0.0801    0.7884 H       1  UNL1        0.0524
     34 H          11.4729    1.6421   -0.0994 H       1  UNL1        0.0524
     35 H           9.4974    1.6880   -1.2923 H       1  UNL1        0.0582
     36 H           8.9940    0.2025   -2.2534 H       1  UNL1        0.0582
     37 H           8.8509   -1.0742   -0.0949 H       1  UNL1        0.0583
     38 H           9.2194    0.4566    0.8083 H       1  UNL1        0.0583
     39 H           6.7166   -1.1247   -1.3072 H       1  UNL1        0.0697
     40 H           7.0460    0.5033   -1.9886 H       1  UNL1        0.0697
     41 H           1.7885   -0.9629   -0.4250 H       1  UNL1        0.0642
     42 H          -0.0888   -2.1028   -0.3999 H       1  UNL1        0.1889
     43 H          -2.9284    2.2009    0.0202 H       1  UNL1        0.0363
     44 H          -2.4601    1.9162    1.7506 H       1  UNL1        0.0363
     45 H          -5.3858    2.5871    1.5623 H       1  UNL1        0.0621
     46 H          -7.5002    1.3628    1.8124 H       1  UNL1        0.0621
     47 H          -7.5906   -2.3607    1.7035 H       1  UNL1        0.0559
     48 H          -8.4958   -0.8897    2.2414 H       1  UNL1        0.0559
     49 H          -7.9615   -3.1062   -0.8297 H       1  UNL1        0.1044
     50 H         -11.0233   -0.4169   -1.7664 H       1  UNL1        0.1065
     51 H          -5.4196   -2.2469    0.7205 H       1  UNL1        0.0627
     52 H          -0.4765    2.6734    0.3580 H       1  UNL1        0.0700
@<TRIPOS>BOND
     1     1     2    1
     2     2     3    1
     3     3     4    1
     4     4     5    1
     5     5     6    1
     6     6     7    1
     7     7     8    3
     8     8     9    1
     9     9    10   ar
    10    10    11   ar
    11    11    12    1
    12    12    13   ar
    13    13    14   ar
    14    14    15   ar
    15    15    16   ar
    16    16    17    1
    17    17    18    1
    18    18    19   ar
    19    19    20   ar
    20    20    21   ar
    21    21    22    1
    22    22    23    1
    23    23    24   ar
    24    24    25   ar
    25    25    26   ar
    26    26    27   ar
    27    21    28   ar
    28    28    29   ar
    29    11    30   ar
    30    30    31   ar
    31    31     9   ar
    32    16    12   ar
    33    29    18   ar
    34    29    15    1
    35    27    23   ar
    36     1    32    1
    37     1    33    1
    38     1    34    1
    39     3    35    1
    40     3    36    1
    41     4    37    1
    42     4    38    1
    43     6    39    1
    44     6    40    1
    45    10    41    1
    46    13    42    1
    47    17    43    1
    48    17    44    1
    49    19    45    1
    50    20    46    1
    51    22    47    1
    52    22    48    1
    53    24    49    1
    54    26    50    1
    55    28    51    1
    56    30    52    1
