@<TRIPOS>MOLECULE
*****
 63 67 0 0 0
SMALL
GASTEIGER

@<TRIPOS>ATOM
      1 O          -2.3031    0.2230   -1.1113 O.2     1  UNL1       -0.2741
      2 C          -1.6454    0.8412   -0.2469 C.2     1  UNL1        0.2304
      3 C          -2.2766    1.7819    0.6880 C.3     1  UNL1        0.0870
      4 N          -3.7248    1.8422    0.4243 N.pl3   1  UNL1       -0.3199
      5 C          -4.4768    0.6548    0.5729 C.ar    1  UNL1        0.1307
      6 N          -3.8342   -0.4851    0.9551 N.ar    1  UNL1       -0.2086
      7 C          -4.4904   -1.6448    1.1164 C.ar    1  UNL1        0.2362
      8 C          -3.7767   -2.8920    1.5364 C.3     1  UNL1        0.4523
      9 F          -2.5305   -2.6271    2.0171 F       1  UNL1       -0.1632
     10 F          -3.7201   -3.7627    0.4581 F       1  UNL1       -0.1632
     11 F          -4.5936   -3.4880    2.5033 F       1  UNL1       -0.1632
     12 N          -5.8158   -1.7331    0.9073 N.ar    1  UNL1       -0.2239
     13 C          -6.5038   -0.6539    0.5317 C.ar    1  UNL1        0.0766
     14 C          -7.8541   -0.7332    0.3161 C.ar    1  UNL1       -0.0350
     15 C          -8.5313    0.4137   -0.0736 C.ar    1  UNL1       -0.0481
     16 C          -7.8922    1.6076   -0.2460 C.ar    1  UNL1        0.0556
     17 C          -8.6187    2.8509   -0.6670 C.3     1  UNL1        0.4174
     18 F          -9.9688    2.7148   -0.4886 F       1  UNL1       -0.1659
     19 F          -8.1535    3.9028    0.1176 F       1  UNL1       -0.1659
     20 F          -8.2929    3.1594   -1.9651 F       1  UNL1       -0.1659
     21 C          -6.5154    1.6918   -0.0271 C.ar    1  UNL1       -0.0376
     22 C          -5.8330    0.5492    0.3625 C.ar    1  UNL1        0.0407
     23 N          -0.2507    0.6140   -0.1830 N.am    1  UNL1       -0.3087
     24 C           0.3960   -0.3196   -1.1060 C.3     1  UNL1        0.0486
     25 C           1.6172    0.3525   -1.7192 C.3     1  UNL1        0.0189
     26 N           2.4538   -0.5363   -0.9676 N.3     1  UNL1       -0.2958
     27 C           3.2897    0.0628    0.0431 C.3     1  UNL1        0.0107
     28 C           4.0835   -1.0031    0.7098 C.3     1  UNL1       -0.0344
     29 C           5.4395   -0.5717    1.1948 C.3     1  UNL1       -0.0179
     30 C           6.2535    0.1203    0.1409 C.3     1  UNL1        0.0985
     31 O           6.8246    1.2610    0.7076 O.3     1  UNL1       -0.3834
     32 C           7.3090   -0.7946   -0.3970 C.ar    1  UNL1        0.0405
     33 C           7.3481   -1.6679   -1.4038 C.ar    1  UNL1        0.0406
     34 N           8.5010   -2.3162   -1.5783 N.ar    1  UNL1       -0.2553
     35 C           9.4387   -2.2204   -0.9876 C.ar    1  UNL1        0.0650
     36 S           8.9760   -0.9272    0.2970 S.2     1  UNL1       -0.0775
     37 C           5.4153    0.5506   -1.0404 C.3     1  UNL1       -0.0179
     38 C           4.1541    1.1620   -0.4656 C.3     1  UNL1       -0.0344
     39 C           1.3291   -1.2976   -0.4324 C.3     1  UNL1        0.0189
     40 H          -2.1438    1.4381    1.7351 H       1  UNL1        0.0557
     41 H          -1.8060    2.7837    0.6388 H       1  UNL1        0.0557
     42 H          -4.0755    2.7611    0.1485 H       1  UNL1        0.1480
     43 H          -8.4132   -1.6650    0.4400 H       1  UNL1        0.0639
     44 H          -9.5891    0.3360   -0.2386 H       1  UNL1        0.0624
     45 H          -6.0068    2.6360   -0.1630 H       1  UNL1        0.0631
     46 H           0.2976    1.1295    0.5378 H       1  UNL1        0.1491
     47 H          -0.2894   -0.7933   -1.8078 H       1  UNL1        0.0523
     48 H           1.6880    1.4206   -1.5269 H       1  UNL1        0.0445
     49 H           1.6451    0.0742   -2.8104 H       1  UNL1        0.0445
     50 H           2.5998    0.5175    0.8135 H       1  UNL1        0.0462
     51 H           4.2640   -1.8773    0.0177 H       1  UNL1        0.0281
     52 H           3.5532   -1.4460    1.5818 H       1  UNL1        0.0281
     53 H           5.2846    0.0916    2.0625 H       1  UNL1        0.0297
     54 H           5.9777   -1.4809    1.5309 H       1  UNL1        0.0297
     55 H           7.0648    1.0304    1.6402 H       1  UNL1        0.2106
     56 H           6.4874   -1.8589   -2.0673 H       1  UNL1        0.0839
     57 H          10.5355   -2.6338   -0.9148 H       1  UNL1        0.0907
     58 H           5.0893   -0.3866   -1.5761 H       1  UNL1        0.0297
     59 H           5.9579    1.2396   -1.6853 H       1  UNL1        0.0297
     60 H           3.6546    1.8378   -1.1829 H       1  UNL1        0.0281
     61 H           4.4111    1.8162    0.4191 H       1  UNL1        0.0281
     62 H           1.2753   -1.3357    0.6653 H       1  UNL1        0.0445
     63 H           1.3114   -2.3168   -0.9033 H       1  UNL1        0.0445
@<TRIPOS>BOND
     1     1     2    2
     2     2     3    1
     3     3     4    1
     4     4     5    1
     5     5     6   ar
     6     6     7   ar
     7     7     8    1
     8     8     9    1
     9     8    10    1
    10     8    11    1
    11     7    12   ar
    12    12    13   ar
    13    13    14   ar
    14    14    15   ar
    15    15    16   ar
    16    16    17    1
    17    17    18    1
    18    17    19    1
    19    17    20    1
    20    16    21   ar
    21    21    22   ar
    22     2    23   am
    23    23    24    1
    24    24    25    1
    25    25    26    1
    26    26    27    1
    27    27    28    1
    28    28    29    1
    29    29    30    1
    30    30    31    1
    31    30    32    1
    32    32    33   ar
    33    33    34   ar
    34    34    35   ar
    35    35    36   ar
    36    30    37    1
    37    37    38    1
    38    26    39    1
    39    22     5   ar
    40    39    24    1
    41    22    13   ar
    42    38    27    1
    43    36    32   ar
    44     3    40    1
    45     3    41    1
    46     4    42    1
    47    14    43    1
    48    15    44    1
    49    21    45    1
    50    23    46    1
    51    24    47    1
    52    25    48    1
    53    25    49    1
    54    27    50    1
    55    28    51    1
    56    28    52    1
    57    29    53    1
    58    29    54    1
    59    31    55    1
    60    33    56    1
    61    35    57    1
    62    37    58    1
    63    37    59    1
    64    38    60    1
    65    38    61    1
    66    39    62    1
    67    39    63    1
