@<TRIPOS>MOLECULE
*****
 31 32 0 0 0
SMALL
GASTEIGER

@<TRIPOS>ATOM
      1 C          -3.1845   -0.2542   -0.4673 C.3     1  UNL1       -0.0645
      2 C          -2.0803   -1.0670    0.1016 C.3     1  UNL1       -0.0426
      3 C          -1.0826   -0.3484    0.9480 C.3     1  UNL1        0.0624
      4 C          -0.3242    0.7519    0.3105 C.3     1  UNL1        0.0116
      5 C           0.3834    0.4526   -0.9548 C.3     1  UNL1       -0.0041
      6 C           1.3998   -0.6140   -0.7672 C.ar    1  UNL1        0.0381
      7 C           1.4319   -1.9796   -0.8588 C.ar    1  UNL1        0.0486
      8 N           2.6592   -2.4510   -0.5768 N.ar    1  UNL1       -0.2438
      9 C           3.4435   -1.4194   -0.2993 C.ar    1  UNL1        0.0959
     10 N           2.6881   -0.3173   -0.4135 N.ar    1  UNL1       -0.3370
     11 C           3.2709    1.0075   -0.1664 C.3     1  UNL1        0.0130
     12 C          -1.2904    1.8794    0.3005 C.3     1  UNL1        0.0964
     13 O          -2.0588    1.7032    1.5024 O.3     1  UNL1       -0.4641
     14 C          -1.7912    0.4255    2.0389 C.2     1  UNL1        0.3106
     15 O          -2.0432   -0.0699    3.1684 O.2     1  UNL1       -0.2505
     16 H          -3.5748    0.5109    0.2011 H       1  UNL1        0.0230
     17 H          -2.9722    0.1029   -1.5124 H       1  UNL1        0.0230
     18 H          -4.0591   -0.9544   -0.6341 H       1  UNL1        0.0230
     19 H          -2.5541   -1.8374    0.7815 H       1  UNL1        0.0271
     20 H          -1.5990   -1.6223   -0.6981 H       1  UNL1        0.0271
     21 H          -0.3916   -1.0938    1.3588 H       1  UNL1        0.0417
     22 H           0.4724    1.0462    1.0704 H       1  UNL1        0.0345
     23 H           0.8897    1.3125   -1.4149 H       1  UNL1        0.0332
     24 H          -0.3752    0.0557   -1.6744 H       1  UNL1        0.0332
     25 H           0.5471   -2.5358   -1.1293 H       1  UNL1        0.0848
     26 H           4.4811   -1.5001   -0.0378 H       1  UNL1        0.1029
     27 H           3.5726    1.0457    0.9167 H       1  UNL1        0.0456
     28 H           4.1806    1.0599   -0.8119 H       1  UNL1        0.0456
     29 H           2.6119    1.8264   -0.4509 H       1  UNL1        0.0456
     30 H          -1.8896    2.0251   -0.5895 H       1  UNL1        0.0700
     31 H          -0.7613    2.8595    0.4801 H       1  UNL1        0.0700
@<TRIPOS>BOND
     1     1     2    1
     2     2     3    1
     3     3     4    1
     4     4     5    1
     5     5     6    1
     6     6     7   ar
     7     7     8   ar
     8     8     9   ar
     9     9    10   ar
    10    10    11    1
    11     4    12    1
    12    12    13    1
    13    13    14    1
    14    14    15    2
    15    14     3    1
    16    10     6   ar
    17     1    16    1
    18     1    17    1
    19     1    18    1
    20     2    19    1
    21     2    20    1
    22     3    21    1
    23     4    22    1
    24     5    23    1
    25     5    24    1
    26     7    25    1
    27     9    26    1
    28    11    27    1
    29    11    28    1
    30    11    29    1
    31    12    30    1
    32    12    31    1
