
     RDKit          3D

 43 46  0  0  0  0  0  0  0  0999 V2000
   -7.8652   -0.0532    0.1099 N   0  0  0  0  0  0  0  0  0  0  0  0
   -6.7355   -0.1421    0.3614 C   0  0  0  0  0  0  0  0  0  0  0  0
   -5.3582   -0.2666    0.6870 C   0  0  0  0  0  0  0  0  0  0  0  0
   -4.9483   -0.1327    1.9799 C   0  0  0  0  0  0  0  0  0  0  0  0
   -3.5858   -0.2635    2.2449 C   0  0  0  0  0  0  0  0  0  0  0  0
   -2.6747   -0.5182    1.2523 C   0  0  0  0  0  0  0  0  0  0  0  0
   -1.2193   -0.6462    1.5888 C   0  0  1  0  0  0  0  0  0  0  0  0
   -0.7602   -1.8171    0.8769 N   0  0  0  0  0  0  0  0  0  0  0  0
    0.2920   -1.7795   -0.0635 C   0  0  0  0  0  0  0  0  0  0  0  0
    0.6572   -2.8337   -0.6593 O   0  0  0  0  0  0  0  0  0  0  0  0
    0.9339   -0.5505   -0.3322 N   0  0  0  0  0  0  0  0  0  0  0  0
    1.9947   -0.4487   -1.2662 C   0  0  0  0  0  0  0  0  0  0  0  0
    1.7024   -0.1900   -2.5855 C   0  0  0  0  0  0  0  0  0  0  0  0
    2.7141   -0.0834   -3.5258 C   0  0  0  0  0  0  0  0  0  0  0  0
    4.0294   -0.2362   -3.1472 C   0  0  0  0  0  0  0  0  0  0  0  0
    4.3421   -0.4953   -1.8328 C   0  0  0  0  0  0  0  0  0  0  0  0
    5.7481   -0.6663   -1.3866 C   0  0  0  0  0  0  0  0  0  0  0  0
    5.8630   -1.6806   -0.4777 F   0  0  0  0  0  0  0  0  0  0  0  0
    6.1661    0.5064   -0.8127 F   0  0  0  0  0  0  0  0  0  0  0  0
    6.5608   -0.9346   -2.4721 F   0  0  0  0  0  0  0  0  0  0  0  0
    3.3082   -0.5985   -0.9031 C   0  0  0  0  0  0  0  0  0  0  0  0
    0.4926    0.6172    0.3622 C   0  0  0  0  0  0  0  0  0  0  0  0
   -0.4907    0.5802    1.2414 C   0  0  0  0  0  0  0  0  0  0  0  0
   -0.7015    1.9290    1.7759 C   0  0  0  0  0  0  0  0  0  0  0  0
   -1.6952    2.3765    2.3639 O   0  0  0  0  0  0  0  0  0  0  0  0
    0.5300    2.7306    1.4905 C   0  0  0  0  0  0  0  0  0  0  0  0
    1.0258    2.0282    0.2390 C   0  0  0  0  0  0  0  0  0  0  0  0
   -3.1189   -0.6464   -0.0291 C   0  0  0  0  0  0  0  0  0  0  0  0
   -4.4459   -0.5256   -0.3348 C   0  0  0  0  0  0  0  0  0  0  0  0
   -5.6552    0.0706    2.7902 H   0  0  0  0  0  0  0  0  0  0  0  0
   -3.2527   -0.1576    3.2700 H   0  0  0  0  0  0  0  0  0  0  0  0
   -1.1825   -0.8477    2.7010 H   0  0  0  0  0  0  0  0  0  0  0  0
   -1.2648   -2.7304    1.0993 H   0  0  0  0  0  0  0  0  0  0  0  0
    0.6927   -0.0597   -2.9479 H   0  0  0  0  0  0  0  0  0  0  0  0
    2.5034    0.1194   -4.5676 H   0  0  0  0  0  0  0  0  0  0  0  0
    4.8403   -0.1554   -3.8750 H   0  0  0  0  0  0  0  0  0  0  0  0
    3.5527   -0.8001    0.1211 H   0  0  0  0  0  0  0  0  0  0  0  0
    0.2884    3.7661    1.2512 H   0  0  0  0  0  0  0  0  0  0  0  0
    1.2559    2.5638    2.2864 H   0  0  0  0  0  0  0  0  0  0  0  0
    2.1144    1.9782    0.1827 H   0  0  0  0  0  0  0  0  0  0  0  0
    0.5722    2.4677   -0.6496 H   0  0  0  0  0  0  0  0  0  0  0  0
   -2.4357   -0.8465   -0.8392 H   0  0  0  0  0  0  0  0  0  0  0  0
   -4.7905   -0.6273   -1.3524 H   0  0  0  0  0  0  0  0  0  0  0  0
  1  2  3  0
  2  3  1  0
  3  4  2  0
  4  5  1  0
  5  6  2  0
  6  7  1  0
  7  8  1  0
  8  9  1  0
  9 10  2  0
  9 11  1  0
 11 12  1  0
 12 13  2  0
 13 14  1  0
 14 15  2  0
 15 16  1  0
 16 17  1  0
 17 18  1  0
 17 19  1  0
 17 20  1  0
 16 21  2  0
 11 22  1  0
 22 23  2  0
 23 24  1  0
 24 25  2  0
 24 26  1  0
 26 27  1  0
  6 28  1  0
 28 29  2  0
 29  3  1  0
 23  7  1  0
 21 12  1  0
 27 22  1  0
  4 30  1  0
  5 31  1  0
  7 32  1  1
  8 33  1  0
 13 34  1  0
 14 35  1  0
 15 36  1  0
 21 37  1  0
 26 38  1  0
 26 39  1  0
 27 40  1  0
 27 41  1  0
 28 42  1  0
 29 43  1  0
M  END
$$$$
