@<TRIPOS>MOLECULE
*****
 43 46 0 0 0
SMALL
GASTEIGER

@<TRIPOS>ATOM
      1 N          -7.8652   -0.0532    0.1099 N.1     1  UNL1       -0.1909
      2 C          -6.7355   -0.1421    0.3614 C.1     1  UNL1        0.0992
      3 C          -5.3582   -0.2666    0.6870 C.ar    1  UNL1        0.0518
      4 C          -4.9483   -0.1327    1.9799 C.ar    1  UNL1       -0.0440
      5 C          -3.5858   -0.2635    2.2449 C.ar    1  UNL1       -0.0553
      6 C          -2.6747   -0.5182    1.2523 C.ar    1  UNL1       -0.0225
      7 C          -1.2193   -0.6462    1.5888 C.3     1  UNL1        0.0798
      8 N          -0.7602   -1.8171    0.8769 N.am    1  UNL1       -0.2877
      9 C           0.2920   -1.7795   -0.0635 C.2     1  UNL1        0.3114
     10 O           0.6572   -2.8337   -0.6593 O.2     1  UNL1       -0.2519
     11 N           0.9339   -0.5505   -0.3322 N.am    1  UNL1       -0.2276
     12 C           1.9947   -0.4487   -1.2662 C.ar    1  UNL1        0.0430
     13 C           1.7024   -0.1900   -2.5855 C.ar    1  UNL1       -0.0399
     14 C           2.7141   -0.0834   -3.5258 C.ar    1  UNL1       -0.0595
     15 C           4.0294   -0.2362   -3.1472 C.ar    1  UNL1       -0.0500
     16 C           4.3421   -0.4953   -1.8328 C.ar    1  UNL1        0.0566
     17 C           5.7481   -0.6663   -1.3866 C.3     1  UNL1        0.4175
     18 F           5.8630   -1.6806   -0.4777 F       1  UNL1       -0.1659
     19 F           6.1661    0.5064   -0.8127 F       1  UNL1       -0.1659
     20 F           6.5608   -0.9346   -2.4721 F       1  UNL1       -0.1659
     21 C           3.3082   -0.5985   -0.9031 C.ar    1  UNL1       -0.0283
     22 C           0.4926    0.6172    0.3622 C.2     1  UNL1        0.0289
     23 C          -0.4907    0.5802    1.2414 C.2     1  UNL1        0.0372
     24 C          -0.7015    1.9290    1.7759 C.2     1  UNL1        0.1631
     25 O          -1.6952    2.3765    2.3639 O.2     1  UNL1       -0.2923
     26 C           0.5300    2.7306    1.4905 C.3     1  UNL1        0.0154
     27 C           1.0258    2.0282    0.2390 C.3     1  UNL1       -0.0064
     28 C          -3.1189   -0.6464   -0.0291 C.ar    1  UNL1       -0.0553
     29 C          -4.4459   -0.5256   -0.3348 C.ar    1  UNL1       -0.0440
     30 H          -5.6552    0.0706    2.7902 H       1  UNL1        0.0630
     31 H          -3.2527   -0.1576    3.2700 H       1  UNL1        0.0621
     32 H          -1.1825   -0.8477    2.7010 H       1  UNL1        0.0601
     33 H          -1.2648   -2.7304    1.0993 H       1  UNL1        0.1512
     34 H           0.6927   -0.0597   -2.9479 H       1  UNL1        0.0636
     35 H           2.5034    0.1194   -4.5676 H       1  UNL1        0.0618
     36 H           4.8403   -0.1554   -3.8750 H       1  UNL1        0.0623
     37 H           3.5527   -0.8001    0.1211 H       1  UNL1        0.0642
     38 H           0.2884    3.7661    1.2512 H       1  UNL1        0.0349
     39 H           1.2559    2.5638    2.2864 H       1  UNL1        0.0349
     40 H           2.1144    1.9782    0.1827 H       1  UNL1        0.0330
     41 H           0.5722    2.4677   -0.6496 H       1  UNL1        0.0330
     42 H          -2.4357   -0.8465   -0.8392 H       1  UNL1        0.0621
     43 H          -4.7905   -0.6273   -1.3524 H       1  UNL1        0.0630
@<TRIPOS>BOND
     1     1     2    3
     2     2     3    1
     3     3     4   ar
     4     4     5   ar
     5     5     6   ar
     6     6     7    1
     7     7     8    1
     8     8     9   am
     9     9    10    2
    10     9    11   am
    11    11    12    1
    12    12    13   ar
    13    13    14   ar
    14    14    15   ar
    15    15    16   ar
    16    16    17    1
    17    17    18    1
    18    17    19    1
    19    17    20    1
    20    16    21   ar
    21    11    22    1
    22    22    23    2
    23    23    24    1
    24    24    25    2
    25    24    26    1
    26    26    27    1
    27     6    28   ar
    28    28    29   ar
    29    29     3   ar
    30    23     7    1
    31    21    12   ar
    32    27    22    1
    33     4    30    1
    34     5    31    1
    35     7    32    1
    36     8    33    1
    37    13    34    1
    38    14    35    1
    39    15    36    1
    40    21    37    1
    41    26    38    1
    42    26    39    1
    43    27    40    1
    44    27    41    1
    45    28    42    1
    46    29    43    1
