
     RDKit          3D

 73 78  0  0  0  0  0  0  0  0999 V2000
   -2.6579    7.8127   -1.1945 C   0  0  0  0  0  0  0  0  0  0  0  0
   -1.9573    6.6110   -1.4235 O   0  0  0  0  0  0  0  0  0  0  0  0
   -1.9835    5.5772   -0.5050 C   0  0  0  0  0  0  0  0  0  0  0  0
   -1.3239    4.3843   -0.6685 C   0  0  0  0  0  0  0  0  0  0  0  0
   -1.3753    3.3724    0.2764 C   0  0  0  0  0  0  0  0  0  0  0  0
   -0.7097    2.1273    0.1498 N   0  0  0  0  0  0  0  0  0  0  0  0
    0.6219    1.8838    0.6213 C   0  0  0  0  0  0  0  0  0  0  0  0
    1.2328    2.5283    1.5160 O   0  0  0  0  0  0  0  0  0  0  0  0
    1.1652    0.7772   -0.0902 N   0  0  0  0  0  0  0  0  0  0  0  0
    2.4442    0.1680    0.0280 C   0  0  0  0  0  0  0  0  0  0  0  0
    3.5335    0.5675   -0.7127 C   0  0  0  0  0  0  0  0  0  0  0  0
    4.7794   -0.0523   -0.5730 C   0  0  0  0  0  0  0  0  0  0  0  0
    4.9416   -1.0874    0.3202 C   0  0  0  0  0  0  0  0  0  0  0  0
    6.2539   -1.7092    0.4410 C   0  0  0  0  0  0  0  0  0  0  0  0
    6.4135   -3.0392    0.7622 C   0  0  0  0  0  0  0  0  0  0  0  0
    7.6687   -3.5700    0.8643 C   0  0  0  0  0  0  0  0  0  0  0  0
    8.8286   -2.8380    0.6602 C   0  0  0  0  0  0  0  0  0  0  0  0
   10.1500   -3.4308    0.7760 C   0  0  0  0  0  0  0  0  0  0  0  0
   11.1531   -2.7174    0.5799 O   0  0  0  0  0  0  0  0  0  0  0  0
   10.2951   -4.7514    1.0951 O   0  0  0  0  0  0  0  0  0  0  0  0
    8.6381   -1.5069    0.3394 C   0  0  0  0  0  0  0  0  0  0  0  0
    7.3831   -0.9508    0.2311 C   0  0  0  0  0  0  0  0  0  0  0  0
    3.8557   -1.4875    1.0604 C   0  0  0  0  0  0  0  0  0  0  0  0
    2.6290   -0.8736    0.9193 C   0  0  0  0  0  0  0  0  0  0  0  0
    0.1229    0.3654   -0.9999 C   0  0  0  0  0  0  0  0  0  0  0  0
    0.3513   -0.2939   -2.0419 O   0  0  0  0  0  0  0  0  0  0  0  0
   -1.1429    0.8758   -0.4313 C   0  0  0  0  0  0  0  0  0  0  0  0
   -2.1846    1.0377   -1.4826 C   0  0  0  0  0  0  0  0  0  0  0  0
   -2.6917   -0.3279   -1.8900 C   0  0  0  0  0  0  0  0  0  0  0  0
   -3.4145   -0.9839   -0.8178 N   0  0  0  0  0  0  0  0  0  0  0  0
   -4.8308   -0.9679   -1.1083 C   0  0  0  0  0  0  0  0  0  0  0  0
   -5.6356   -1.6108   -0.0633 C   0  0  0  0  0  0  0  0  0  0  0  0
   -6.3386   -0.8580    0.7995 N   0  0  0  0  0  0  0  0  0  0  0  0
   -7.0926   -1.3619    1.7734 C   0  0  0  0  0  0  0  0  0  0  0  0
   -7.1474   -2.7465    1.8941 C   0  0  0  0  0  0  0  0  0  0  0  0
   -6.4405   -3.5642    1.0288 C   0  0  0  0  0  0  0  0  0  0  0  0
   -5.6797   -2.9910    0.0438 C   0  0  0  0  0  0  0  0  0  0  0  0
   -4.9233   -3.8855   -0.8800 C   0  0  0  0  0  0  0  0  0  0  0  0
   -3.1388   -0.3510    0.4486 C   0  0  0  0  0  0  0  0  0  0  0  0
   -1.6442   -0.0903    0.6173 C   0  0  0  0  0  0  0  0  0  0  0  0
   -2.1094    3.6165    1.3720 N   0  0  0  0  0  0  0  0  0  0  0  0
   -2.7729    4.7859    1.5620 C   0  0  0  0  0  0  0  0  0  0  0  0
   -2.6940    5.7373    0.6197 N   0  0  0  0  0  0  0  0  0  0  0  0
   -3.7485    7.6864   -1.1462 H   0  0  0  0  0  0  0  0  0  0  0  0
   -2.3593    8.2906   -0.2275 H   0  0  0  0  0  0  0  0  0  0  0  0
   -2.3982    8.5473   -1.9790 H   0  0  0  0  0  0  0  0  0  0  0  0
   -0.7451    4.2155   -1.5517 H   0  0  0  0  0  0  0  0  0  0  0  0
    3.4026    1.3908   -1.4220 H   0  0  0  0  0  0  0  0  0  0  0  0
    5.6166    0.2890   -1.1749 H   0  0  0  0  0  0  0  0  0  0  0  0
    5.5040   -3.6224    0.9246 H   0  0  0  0  0  0  0  0  0  0  0  0
    7.7897   -4.6199    1.1178 H   0  0  0  0  0  0  0  0  0  0  0  0
   11.0549   -5.3059    0.6735 H   0  0  0  0  0  0  0  0  0  0  0  0
    9.5399   -0.9161    0.1757 H   0  0  0  0  0  0  0  0  0  0  0  0
    7.2831    0.1138   -0.0257 H   0  0  0  0  0  0  0  0  0  0  0  0
    4.0100   -2.3018    1.7537 H   0  0  0  0  0  0  0  0  0  0  0  0
    1.7691   -1.1819    1.4979 H   0  0  0  0  0  0  0  0  0  0  0  0
   -3.0576    1.6127   -1.1385 H   0  0  0  0  0  0  0  0  0  0  0  0
   -1.7453    1.5271   -2.3696 H   0  0  0  0  0  0  0  0  0  0  0  0
   -1.8570   -1.0295   -2.1600 H   0  0  0  0  0  0  0  0  0  0  0  0
   -3.3099   -0.2692   -2.8209 H   0  0  0  0  0  0  0  0  0  0  0  0
   -4.9958   -1.4733   -2.0823 H   0  0  0  0  0  0  0  0  0  0  0  0
   -5.1369    0.1099   -1.2201 H   0  0  0  0  0  0  0  0  0  0  0  0
   -7.6378   -0.7267    2.4410 H   0  0  0  0  0  0  0  0  0  0  0  0
   -7.7713   -3.1564    2.6992 H   0  0  0  0  0  0  0  0  0  0  0  0
   -6.4971   -4.6486    1.1406 H   0  0  0  0  0  0  0  0  0  0  0  0
   -4.2533   -3.3127   -1.5396 H   0  0  0  0  0  0  0  0  0  0  0  0
   -5.5978   -4.5476   -1.4609 H   0  0  0  0  0  0  0  0  0  0  0  0
   -4.2473   -4.5667   -0.2865 H   0  0  0  0  0  0  0  0  0  0  0  0
   -3.7307    0.5797    0.4947 H   0  0  0  0  0  0  0  0  0  0  0  0
   -3.4215   -1.0630    1.2484 H   0  0  0  0  0  0  0  0  0  0  0  0
   -1.1476   -1.0794    0.4783 H   0  0  0  0  0  0  0  0  0  0  0  0
   -1.5233    0.2998    1.6507 H   0  0  0  0  0  0  0  0  0  0  0  0
   -3.3613    4.9775    2.4435 H   0  0  0  0  0  0  0  0  0  0  0  0
  1  2  1  0
  2  3  1  0
  3  4  2  0
  4  5  1  0
  5  6  1  0
  6  7  1  0
  7  8  2  0
  7  9  1  0
  9 10  1  0
 10 11  2  0
 11 12  1  0
 12 13  2  0
 13 14  1  0
 14 15  2  0
 15 16  1  0
 16 17  2  0
 17 18  1  0
 18 19  2  0
 18 20  1  0
 17 21  1  0
 21 22  2  0
 13 23  1  0
 23 24  2  0
  9 25  1  0
 25 26  2  0
 25 27  1  0
 27 28  1  0
 28 29  1  0
 29 30  1  0
 30 31  1  0
 31 32  1  0
 32 33  2  0
 33 34  1  0
 34 35  2  0
 35 36  1  0
 36 37  2  0
 37 38  1  0
 30 39  1  0
 39 40  1  0
  5 41  2  0
 41 42  1  0
 42 43  2  0
 43  3  1  0
 27  6  1  0
 37 32  1  0
 24 10  1  0
 40 27  1  0
 22 14  1  0
  1 44  1  0
  1 45  1  0
  1 46  1  0
  4 47  1  0
 11 48  1  0
 12 49  1  0
 15 50  1  0
 16 51  1  0
 20 52  1  0
 21 53  1  0
 22 54  1  0
 23 55  1  0
 24 56  1  0
 28 57  1  0
 28 58  1  0
 29 59  1  0
 29 60  1  0
 31 61  1  0
 31 62  1  0
 34 63  1  0
 35 64  1  0
 36 65  1  0
 38 66  1  0
 38 67  1  0
 38 68  1  0
 39 69  1  0
 39 70  1  0
 40 71  1  0
 40 72  1  0
 42 73  1  0
M  END
$$$$
