@<TRIPOS>MOLECULE
*****
 73 78 0 0 0
SMALL
GASTEIGER

@<TRIPOS>ATOM
      1 C          -2.6579    7.8127   -1.1945 C.3     1  UNL1        0.0804
      2 O          -1.9573    6.6110   -1.4235 O.3     1  UNL1       -0.4795
      3 C          -1.9835    5.5772   -0.5050 C.ar    1  UNL1        0.2191
      4 C          -1.3239    4.3843   -0.6685 C.ar    1  UNL1        0.0404
      5 C          -1.3753    3.3724    0.2764 C.ar    1  UNL1        0.1364
      6 N          -0.7097    2.1273    0.1498 N.am    1  UNL1       -0.2240
      7 C           0.6219    1.8838    0.6213 C.2     1  UNL1        0.3219
      8 O           1.2328    2.5283    1.5160 O.2     1  UNL1       -0.2512
      9 N           1.1652    0.7772   -0.0902 N.am    1  UNL1       -0.1920
     10 C           2.4442    0.1680    0.0280 C.ar    1  UNL1        0.0455
     11 C           3.5335    0.5675   -0.7127 C.ar    1  UNL1       -0.0392
     12 C           4.7794   -0.0523   -0.5730 C.ar    1  UNL1       -0.0523
     13 C           4.9416   -1.0874    0.3202 C.ar    1  UNL1       -0.0178
     14 C           6.2539   -1.7092    0.4410 C.ar    1  UNL1       -0.0178
     15 C           6.4135   -3.0392    0.7622 C.ar    1  UNL1       -0.0533
     16 C           7.6687   -3.5700    0.8643 C.ar    1  UNL1       -0.0472
     17 C           8.8286   -2.8380    0.6602 C.ar    1  UNL1        0.0589
     18 C          10.1500   -3.4308    0.7760 C.2     1  UNL1        0.3368
     19 O          11.1531   -2.7174    0.5799 O.2     1  UNL1       -0.2451
     20 O          10.2951   -4.7514    1.0951 O.3     1  UNL1       -0.4771
     21 C           8.6381   -1.5069    0.3394 C.ar    1  UNL1       -0.0472
     22 C           7.3831   -0.9508    0.2311 C.ar    1  UNL1       -0.0533
     23 C           3.8557   -1.4875    1.0604 C.ar    1  UNL1       -0.0523
     24 C           2.6290   -0.8736    0.9193 C.ar    1  UNL1       -0.0392
     25 C           0.1229    0.3654   -0.9999 C.2     1  UNL1        0.2516
     26 O           0.3513   -0.2939   -2.0419 O.2     1  UNL1       -0.2724
     27 C          -1.1429    0.8758   -0.4313 C.3     1  UNL1        0.1240
     28 C          -2.1846    1.0377   -1.4826 C.3     1  UNL1       -0.0095
     29 C          -2.6917   -0.3279   -1.8900 C.3     1  UNL1        0.0017
     30 N          -3.4145   -0.9839   -0.8178 N.3     1  UNL1       -0.2965
     31 C          -4.8308   -0.9679   -1.1083 C.3     1  UNL1        0.0415
     32 C          -5.6356   -1.6108   -0.0633 C.ar    1  UNL1        0.0581
     33 N          -6.3386   -0.8580    0.7995 N.ar    1  UNL1       -0.2583
     34 C          -7.0926   -1.3619    1.7734 C.ar    1  UNL1        0.0279
     35 C          -7.1474   -2.7465    1.8941 C.ar    1  UNL1       -0.0433
     36 C          -6.4405   -3.5642    1.0288 C.ar    1  UNL1       -0.0557
     37 C          -5.6797   -2.9910    0.0438 C.ar    1  UNL1       -0.0279
     38 C          -4.9233   -3.8855   -0.8800 C.3     1  UNL1       -0.0380
     39 C          -3.1388   -0.3510    0.4486 C.3     1  UNL1        0.0017
     40 C          -1.6442   -0.0903    0.6173 C.3     1  UNL1       -0.0095
     41 N          -2.1094    3.6165    1.3720 N.ar    1  UNL1       -0.2200
     42 C          -2.7729    4.7859    1.5620 C.ar    1  UNL1        0.1219
     43 N          -2.6940    5.7373    0.6197 N.ar    1  UNL1       -0.2013
     44 H          -3.7485    7.6864   -1.1462 H       1  UNL1        0.0660
     45 H          -2.3593    8.2906   -0.2275 H       1  UNL1        0.0660
     46 H          -2.3982    8.5473   -1.9790 H       1  UNL1        0.0660
     47 H          -0.7451    4.2155   -1.5517 H       1  UNL1        0.0705
     48 H           3.4026    1.3908   -1.4220 H       1  UNL1        0.0636
     49 H           5.6166    0.2890   -1.1749 H       1  UNL1        0.0624
     50 H           5.5040   -3.6224    0.9246 H       1  UNL1        0.0624
     51 H           7.7897   -4.6199    1.1178 H       1  UNL1        0.0626
     52 H          11.0549   -5.3059    0.6735 H       1  UNL1        0.2954
     53 H           9.5399   -0.9161    0.1757 H       1  UNL1        0.0626
     54 H           7.2831    0.1138   -0.0257 H       1  UNL1        0.0624
     55 H           4.0100   -2.3018    1.7537 H       1  UNL1        0.0624
     56 H           1.7691   -1.1819    1.4979 H       1  UNL1        0.0636
     57 H          -3.0576    1.6127   -1.1385 H       1  UNL1        0.0303
     58 H          -1.7453    1.5271   -2.3696 H       1  UNL1        0.0303
     59 H          -1.8570   -1.0295   -2.1600 H       1  UNL1        0.0427
     60 H          -3.3099   -0.2692   -2.8209 H       1  UNL1        0.0427
     61 H          -4.9958   -1.4733   -2.0823 H       1  UNL1        0.0491
     62 H          -5.1369    0.1099   -1.2201 H       1  UNL1        0.0491
     63 H          -7.6378   -0.7267    2.4410 H       1  UNL1        0.0829
     64 H          -7.7713   -3.1564    2.6992 H       1  UNL1        0.0633
     65 H          -6.4971   -4.6486    1.1406 H       1  UNL1        0.0621
     66 H          -4.2533   -3.3127   -1.5396 H       1  UNL1        0.0278
     67 H          -5.5978   -4.5476   -1.4609 H       1  UNL1        0.0278
     68 H          -4.2473   -4.5667   -0.2865 H       1  UNL1        0.0278
     69 H          -3.7307    0.5797    0.4947 H       1  UNL1        0.0427
     70 H          -3.4215   -1.0630    1.2484 H       1  UNL1        0.0427
     71 H          -1.1476   -1.0794    0.4783 H       1  UNL1        0.0303
     72 H          -1.5233    0.2998    1.6507 H       1  UNL1        0.0303
     73 H          -3.3613    4.9775    2.4435 H       1  UNL1        0.1049
@<TRIPOS>BOND
     1     1     2    1
     2     2     3    1
     3     3     4   ar
     4     4     5   ar
     5     5     6    1
     6     6     7   am
     7     7     8    2
     8     7     9   am
     9     9    10    1
    10    10    11   ar
    11    11    12   ar
    12    12    13   ar
    13    13    14    1
    14    14    15   ar
    15    15    16   ar
    16    16    17   ar
    17    17    18    1
    18    18    19    2
    19    18    20    1
    20    17    21   ar
    21    21    22   ar
    22    13    23   ar
    23    23    24   ar
    24     9    25   am
    25    25    26    2
    26    25    27    1
    27    27    28    1
    28    28    29    1
    29    29    30    1
    30    30    31    1
    31    31    32    1
    32    32    33   ar
    33    33    34   ar
    34    34    35   ar
    35    35    36   ar
    36    36    37   ar
    37    37    38    1
    38    30    39    1
    39    39    40    1
    40     5    41   ar
    41    41    42   ar
    42    42    43   ar
    43    43     3   ar
    44    27     6    1
    45    37    32   ar
    46    24    10   ar
    47    40    27    1
    48    22    14   ar
    49     1    44    1
    50     1    45    1
    51     1    46    1
    52     4    47    1
    53    11    48    1
    54    12    49    1
    55    15    50    1
    56    16    51    1
    57    20    52    1
    58    21    53    1
    59    22    54    1
    60    23    55    1
    61    24    56    1
    62    28    57    1
    63    28    58    1
    64    29    59    1
    65    29    60    1
    66    31    61    1
    67    31    62    1
    68    34    63    1
    69    35    64    1
    70    36    65    1
    71    38    66    1
    72    38    67    1
    73    38    68    1
    74    39    69    1
    75    39    70    1
    76    40    71    1
    77    40    72    1
    78    42    73    1
