
     RDKit          3D

 50 52  0  0  0  0  0  0  0  0999 V2000
   -1.2029   -3.2838    3.0120 C   0  0  0  0  0  0  0  0  0  0  0  0
   -0.7262   -2.2705    2.1371 O   0  0  0  0  0  0  0  0  0  0  0  0
   -1.6506   -1.5058    1.4421 C   0  0  0  0  0  0  0  0  0  0  0  0
   -3.0251   -1.7258    1.6005 C   0  0  0  0  0  0  0  0  0  0  0  0
   -3.8658   -0.9492    0.9010 N   0  0  0  0  0  0  0  0  0  0  0  0
   -3.4621    0.0304    0.0547 C   0  0  0  0  0  0  0  0  0  0  0  0
   -4.4852    0.8197   -0.6600 C   0  0  0  0  0  0  0  0  0  0  0  0
   -4.1718    1.8227   -1.5290 C   0  0  0  0  0  0  0  0  0  0  0  0
   -5.1401    2.5633   -2.1998 C   0  0  0  0  0  0  0  0  0  0  0  0
   -4.7163    3.8468   -3.3114 Cl  0  0  0  0  0  0  0  0  0  0  0  0
   -6.4681    2.2698   -1.9753 C   0  0  0  0  0  0  0  0  0  0  0  0
   -6.8119    1.2607   -1.1016 C   0  0  0  0  0  0  0  0  0  0  0  0
   -5.8247    0.5512   -0.4576 C   0  0  0  0  0  0  0  0  0  0  0  0
   -6.1865   -0.4351    0.3957 F   0  0  0  0  0  0  0  0  0  0  0  0
   -2.1293    0.2509   -0.1056 C   0  0  0  0  0  0  0  0  0  0  0  0
   -1.2048   -0.5210    0.5914 C   0  0  0  0  0  0  0  0  0  0  0  0
    0.2211   -0.2900    0.4576 N   0  0  0  0  0  0  0  0  0  0  0  0
    1.0390   -1.2841   -0.0839 C   0  0  0  0  0  0  0  0  0  0  0  0
    0.4235   -2.4588   -0.5645 C   0  0  0  0  0  0  0  0  0  0  0  0
    1.1753   -3.4791   -1.0913 C   0  0  0  0  0  0  0  0  0  0  0  0
    2.5046   -3.3879   -1.1636 N   0  0  0  0  0  0  0  0  0  0  0  0
    3.1112   -2.2706   -0.7089 C   0  0  0  0  0  0  0  0  0  0  0  0
    2.3926   -1.1940   -0.1590 C   0  0  0  0  0  0  0  0  0  0  0  0
    3.0979   -0.0165    0.3227 C   0  0  0  0  0  0  0  0  0  0  0  0
    2.5614    0.9898    0.8449 O   0  0  0  0  0  0  0  0  0  0  0  0
    4.5372    0.1116    0.2429 N   0  0  0  0  0  0  0  0  0  0  0  0
    5.2278    1.2899    0.7184 C   0  0  0  0  0  0  0  0  0  0  0  0
    4.8463    2.5390    0.0013 C   0  0  2  0  0  0  0  0  0  0  0  0
    5.1242    2.4600   -1.4883 C   0  0  0  0  0  0  0  0  0  0  0  0
    5.5310    3.6600    0.4718 O   0  0  0  0  0  0  0  0  0  0  0  0
   -1.8335   -2.8563    3.8273 H   0  0  0  0  0  0  0  0  0  0  0  0
   -0.3714   -3.8448    3.4787 H   0  0  0  0  0  0  0  0  0  0  0  0
   -1.7951   -3.9904    2.3813 H   0  0  0  0  0  0  0  0  0  0  0  0
   -3.3430   -2.5035    2.2724 H   0  0  0  0  0  0  0  0  0  0  0  0
   -3.1574    2.0890   -1.7373 H   0  0  0  0  0  0  0  0  0  0  0  0
   -7.2559    2.8323   -2.4860 H   0  0  0  0  0  0  0  0  0  0  0  0
   -7.8402    1.0285   -0.9235 H   0  0  0  0  0  0  0  0  0  0  0  0
   -1.7543    1.0138   -0.7633 H   0  0  0  0  0  0  0  0  0  0  0  0
    0.5477    0.6138    0.7722 H   0  0  0  0  0  0  0  0  0  0  0  0
   -0.6423   -2.5420   -0.5271 H   0  0  0  0  0  0  0  0  0  0  0  0
    0.6953   -4.3699   -1.4540 H   0  0  0  0  0  0  0  0  0  0  0  0
    4.1664   -2.2534   -0.7914 H   0  0  0  0  0  0  0  0  0  0  0  0
    5.0645   -0.6974   -0.1805 H   0  0  0  0  0  0  0  0  0  0  0  0
    5.0127    1.4665    1.8138 H   0  0  0  0  0  0  0  0  0  0  0  0
    6.3232    1.1100    0.5722 H   0  0  0  0  0  0  0  0  0  0  0  0
    3.7770    2.7360    0.1197 H   0  0  0  0  0  0  0  0  0  0  0  0
    6.2251    2.4248   -1.6107 H   0  0  0  0  0  0  0  0  0  0  0  0
    4.7362    3.3789   -1.9408 H   0  0  0  0  0  0  0  0  0  0  0  0
    4.6225    1.5979   -1.9586 H   0  0  0  0  0  0  0  0  0  0  0  0
    6.1009    3.3727    1.2269 H   0  0  0  0  0  0  0  0  0  0  0  0
  1  2  1  0
  2  3  1  0
  3  4  2  0
  4  5  1  0
  5  6  2  0
  6  7  1  0
  7  8  2  0
  8  9  1  0
  9 10  1  0
  9 11  2  0
 11 12  1  0
 12 13  2  0
 13 14  1  0
  6 15  1  0
 15 16  2  0
 16 17  1  0
 17 18  1  0
 18 19  2  0
 19 20  1  0
 20 21  2  0
 21 22  1  0
 22 23  2  0
 23 24  1  0
 24 25  2  0
 24 26  1  0
 26 27  1  0
 27 28  1  0
 28 29  1  0
 28 30  1  0
 16  3  1  0
 23 18  1  0
 13  7  1  0
  1 31  1  0
  1 32  1  0
  1 33  1  0
  4 34  1  0
  8 35  1  0
 11 36  1  0
 12 37  1  0
 15 38  1  0
 17 39  1  0
 19 40  1  0
 20 41  1  0
 22 42  1  0
 26 43  1  0
 27 44  1  0
 27 45  1  0
 28 46  1  6
 29 47  1  0
 29 48  1  0
 29 49  1  0
 30 50  1  0
M  END
$$$$
