@<TRIPOS>MOLECULE
*****
 50 52 0 0 0
SMALL
GASTEIGER

@<TRIPOS>ATOM
      1 C          -1.2029   -3.2838    3.0120 C.3     1  UNL1        0.0789
      2 O          -0.7262   -2.2705    2.1371 O.3     1  UNL1       -0.4917
      3 C          -1.6506   -1.5058    1.4421 C.ar    1  UNL1        0.1591
      4 C          -3.0251   -1.7258    1.6005 C.ar    1  UNL1        0.0717
      5 N          -3.8658   -0.9492    0.9010 N.ar    1  UNL1       -0.2511
      6 C          -3.4621    0.0304    0.0547 C.ar    1  UNL1        0.0758
      7 C          -4.4852    0.8197   -0.6600 C.ar    1  UNL1        0.0369
      8 C          -4.1718    1.8227   -1.5290 C.ar    1  UNL1       -0.0314
      9 C          -5.1401    2.5633   -2.1998 C.ar    1  UNL1        0.0418
     10 CL         -4.7163    3.8468   -3.3114 Cl      1  UNL1       -0.0835
     11 C          -6.4681    2.2698   -1.9753 C.ar    1  UNL1       -0.0406
     12 C          -6.8119    1.2607   -1.1016 C.ar    1  UNL1       -0.0244
     13 C          -5.8247    0.5512   -0.4576 C.ar    1  UNL1        0.1326
     14 F          -6.1865   -0.4351    0.3957 F       1  UNL1       -0.2048
     15 C          -2.1293    0.2509   -0.1056 C.ar    1  UNL1       -0.0108
     16 C          -1.2048   -0.5210    0.5914 C.ar    1  UNL1        0.0772
     17 N           0.2211   -0.2900    0.4576 N.pl3   1  UNL1       -0.3109
     18 C           1.0390   -1.2841   -0.0839 C.ar    1  UNL1        0.0466
     19 C           0.4235   -2.4588   -0.5645 C.ar    1  UNL1       -0.0217
     20 C           1.1753   -3.4791   -1.0913 C.ar    1  UNL1        0.0293
     21 N           2.5046   -3.3879   -1.1636 N.ar    1  UNL1       -0.2624
     22 C           3.1112   -2.2706   -0.7089 C.ar    1  UNL1        0.0415
     23 C           2.3926   -1.1940   -0.1590 C.ar    1  UNL1        0.0758
     24 C           3.0979   -0.0165    0.3227 C.2     1  UNL1        0.2474
     25 O           2.5614    0.9898    0.8449 O.2     1  UNL1       -0.2701
     26 N           4.5372    0.1116    0.2429 N.am    1  UNL1       -0.3088
     27 C           5.2278    1.2899    0.7184 C.3     1  UNL1        0.0377
     28 C           4.8463    2.5390    0.0013 C.3     1  UNL1        0.0679
     29 C           5.1242    2.4600   -1.4883 C.3     1  UNL1       -0.0375
     30 O           5.5310    3.6600    0.4718 O.3     1  UNL1       -0.3905
     31 H          -1.8335   -2.8563    3.8273 H       1  UNL1        0.0660
     32 H          -0.3714   -3.8448    3.4787 H       1  UNL1        0.0660
     33 H          -1.7951   -3.9904    2.3813 H       1  UNL1        0.0660
     34 H          -3.3430   -2.5035    2.2724 H       1  UNL1        0.0868
     35 H          -3.1574    2.0890   -1.7373 H       1  UNL1        0.0639
     36 H          -7.2559    2.8323   -2.4860 H       1  UNL1        0.0633
     37 H          -7.8402    1.0285   -0.9235 H       1  UNL1        0.0647
     38 H          -1.7543    1.0138   -0.7633 H       1  UNL1        0.0659
     39 H           0.5477    0.6138    0.7722 H       1  UNL1        0.1523
     40 H          -0.6423   -2.5420   -0.5271 H       1  UNL1        0.0651
     41 H           0.6953   -4.3699   -1.4540 H       1  UNL1        0.0830
     42 H           4.1664   -2.2534   -0.7914 H       1  UNL1        0.0838
     43 H           5.0645   -0.6974   -0.1805 H       1  UNL1        0.1491
     44 H           5.0127    1.4665    1.8138 H       1  UNL1        0.0487
     45 H           6.3232    1.1100    0.5722 H       1  UNL1        0.0487
     46 H           3.7770    2.7360    0.1197 H       1  UNL1        0.0606
     47 H           6.2251    2.4248   -1.6107 H       1  UNL1        0.0255
     48 H           4.7362    3.3789   -1.9408 H       1  UNL1        0.0255
     49 H           4.6225    1.5979   -1.9586 H       1  UNL1        0.0255
     50 H           6.1009    3.3727    1.2269 H       1  UNL1        0.2098
@<TRIPOS>BOND
     1     1     2    1
     2     2     3    1
     3     3     4   ar
     4     4     5   ar
     5     5     6   ar
     6     6     7    1
     7     7     8   ar
     8     8     9   ar
     9     9    10    1
    10     9    11   ar
    11    11    12   ar
    12    12    13   ar
    13    13    14    1
    14     6    15   ar
    15    15    16   ar
    16    16    17    1
    17    17    18    1
    18    18    19   ar
    19    19    20   ar
    20    20    21   ar
    21    21    22   ar
    22    22    23   ar
    23    23    24    1
    24    24    25    2
    25    24    26   am
    26    26    27    1
    27    27    28    1
    28    28    29    1
    29    28    30    1
    30    16     3   ar
    31    23    18   ar
    32    13     7   ar
    33     1    31    1
    34     1    32    1
    35     1    33    1
    36     4    34    1
    37     8    35    1
    38    11    36    1
    39    12    37    1
    40    15    38    1
    41    17    39    1
    42    19    40    1
    43    20    41    1
    44    22    42    1
    45    26    43    1
    46    27    44    1
    47    27    45    1
    48    28    46    1
    49    29    47    1
    50    29    48    1
    51    29    49    1
    52    30    50    1
