@<TRIPOS>MOLECULE
*****
 65 68 0 0 0
SMALL
GASTEIGER

@<TRIPOS>ATOM
      1 C          -0.5836   -1.8059    1.4044 C.3     1  UNL1       -0.0454
      2 C          -0.2045   -0.3400    1.6191 C.3     1  UNL1        0.0411
      3 N           0.5791    0.1593    0.5075 N.ar    1  UNL1       -0.2438
      4 N           1.9201    0.0908    0.4586 N.ar    1  UNL1       -0.1541
      5 C           2.3858    0.6193   -0.6707 C.ar    1  UNL1        0.1548
      6 C           3.7706    0.7766   -1.1808 C.3     1  UNL1        0.0236
      7 C           4.3486   -0.6036   -1.4086 C.3     1  UNL1       -0.0273
      8 C           5.1344   -0.9730   -0.1672 C.3     1  UNL1        0.0153
      9 N           6.2952   -0.1167   -0.1344 N.am    1  UNL1       -0.3014
     10 C           7.5542   -0.6785    0.1559 C.2     1  UNL1        0.2177
     11 O           7.6838   -1.9060    0.3857 O.2     1  UNL1       -0.2755
     12 C           8.7645    0.1723    0.1974 C.3     1  UNL1        0.0473
     13 C          10.0043   -0.6322    0.5271 C.3     1  UNL1        0.0525
     14 O          11.1126    0.2094    0.5546 O.3     1  UNL1       -0.3945
     15 C           6.0977    1.2864   -0.4046 C.3     1  UNL1        0.0153
     16 C           4.6087    1.6364   -0.2816 C.3     1  UNL1       -0.0273
     17 N           1.2737    1.0331   -1.3491 N.ar    1  UNL1       -0.2093
     18 C           0.2006    0.7500   -0.6296 C.ar    1  UNL1        0.1787
     19 C          -1.1953    1.0297   -0.9989 C.ar    1  UNL1        0.1266
     20 C          -1.4828    1.8890   -2.0425 C.ar    1  UNL1        0.0587
     21 N          -2.7506    2.1315   -2.3649 N.ar    1  UNL1       -0.2361
     22 C          -3.7577    1.5644   -1.7042 C.ar    1  UNL1        0.1472
     23 N          -5.0957    1.8354   -2.0627 N.pl3   1  UNL1       -0.3413
     24 C          -3.5120    0.7018   -0.6575 C.ar    1  UNL1        0.1672
     25 C          -4.6011    0.0759    0.0725 C.ar    1  UNL1        0.2701
     26 N          -4.4714   -0.7688    1.0948 N.ar    1  UNL1       -0.1055
     27 N          -5.6957   -1.1208    1.4912 N.ar    1  UNL1       -0.1115
     28 C          -6.5684   -0.4958    0.7167 C.ar    1  UNL1        0.2230
     29 C          -8.0595   -0.5152    0.7056 C.3     1  UNL1        0.0401
     30 C          -8.5243    0.5893    1.6180 C.3     1  UNL1       -0.0516
     31 C          -8.5656   -1.8374    1.2946 C.3     1  UNL1       -0.0516
     32 C          -8.6315   -0.3886   -0.6678 C.3     1  UNL1       -0.0516
     33 O          -5.8752    0.2299   -0.1431 O.2     1  UNL1       -0.4183
     34 N          -2.2170    0.4669   -0.3437 N.ar    1  UNL1       -0.2338
     35 H           0.1756   -2.2142    0.6782 H       1  UNL1        0.0247
     36 H          -1.5651   -1.9290    0.9466 H       1  UNL1        0.0247
     37 H          -0.4458   -2.3999    2.3401 H       1  UNL1        0.0247
     38 H           0.4345   -0.3170    2.5249 H       1  UNL1        0.0507
     39 H          -1.1490    0.2227    1.7653 H       1  UNL1        0.0507
     40 H           3.7701    1.2775   -2.1853 H       1  UNL1        0.0381
     41 H           3.5306   -1.3373   -1.5018 H       1  UNL1        0.0287
     42 H           4.9898   -0.6146   -2.3190 H       1  UNL1        0.0287
     43 H           4.5119   -0.7175    0.7182 H       1  UNL1        0.0465
     44 H           5.4332   -2.0418   -0.1716 H       1  UNL1        0.0465
     45 H           8.6347    1.0309    0.8812 H       1  UNL1        0.0381
     46 H           8.9473    0.6140   -0.8212 H       1  UNL1        0.0381
     47 H           9.8635   -1.0580    1.5427 H       1  UNL1        0.0562
     48 H          10.1980   -1.3914   -0.2421 H       1  UNL1        0.0562
     49 H          11.1124    0.8468    1.2852 H       1  UNL1        0.2094
     50 H           6.5970    1.8708    0.4091 H       1  UNL1        0.0465
     51 H           6.4707    1.6173   -1.3747 H       1  UNL1        0.0465
     52 H           4.2988    1.6244    0.7696 H       1  UNL1        0.0287
     53 H           4.5476    2.7114   -0.6193 H       1  UNL1        0.0287
     54 H          -0.6395    2.3472   -2.5755 H       1  UNL1        0.0853
     55 H          -5.5610    2.7426   -1.8444 H       1  UNL1        0.1438
     56 H          -5.6248    1.0958   -2.5616 H       1  UNL1        0.1438
     57 H          -8.4569    0.2530    2.6673 H       1  UNL1        0.0240
     58 H          -7.8604    1.4832    1.5112 H       1  UNL1        0.0240
     59 H          -9.5926    0.8407    1.4079 H       1  UNL1        0.0240
     60 H          -9.5989   -2.0218    0.9643 H       1  UNL1        0.0240
     61 H          -7.9462   -2.6824    0.9541 H       1  UNL1        0.0240
     62 H          -8.5794   -1.7759    2.4142 H       1  UNL1        0.0240
     63 H          -8.7903    0.6638   -0.9957 H       1  UNL1        0.0240
     64 H          -9.6363   -0.8692   -0.7040 H       1  UNL1        0.0240
     65 H          -8.0112   -0.8668   -1.4557 H       1  UNL1        0.0240
@<TRIPOS>BOND
     1     1     2    1
     2     2     3    1
     3     3     4   ar
     4     4     5   ar
     5     5     6    1
     6     6     7    1
     7     7     8    1
     8     8     9    1
     9     9    10   am
    10    10    11    2
    11    10    12    1
    12    12    13    1
    13    13    14    1
    14     9    15    1
    15    15    16    1
    16     5    17   ar
    17    17    18   ar
    18    18    19    1
    19    19    20   ar
    20    20    21   ar
    21    21    22   ar
    22    22    23    1
    23    22    24   ar
    24    24    25    1
    25    25    26   ar
    26    26    27   ar
    27    27    28   ar
    28    28    29    1
    29    29    30    1
    30    29    31    1
    31    29    32    1
    32    28    33   ar
    33    24    34   ar
    34    18     3   ar
    35    34    19   ar
    36    16     6    1
    37    33    25   ar
    38     1    35    1
    39     1    36    1
    40     1    37    1
    41     2    38    1
    42     2    39    1
    43     6    40    1
    44     7    41    1
    45     7    42    1
    46     8    43    1
    47     8    44    1
    48    12    45    1
    49    12    46    1
    50    13    47    1
    51    13    48    1
    52    14    49    1
    53    15    50    1
    54    15    51    1
    55    16    52    1
    56    16    53    1
    57    20    54    1
    58    23    55    1
    59    23    56    1
    60    30    57    1
    61    30    58    1
    62    30    59    1
    63    31    60    1
    64    31    61    1
    65    31    62    1
    66    32    63    1
    67    32    64    1
    68    32    65    1
