@<TRIPOS>MOLECULE
*****
 50 53 0 0 0
SMALL
GASTEIGER

@<TRIPOS>ATOM
      1 C          10.4028   -0.2626    0.2195 C.3     1  UNL1       -0.0025
      2 C           9.3209    0.5239   -0.2816 C.1     1  UNL1       -0.1022
      3 C           8.4149    1.1782   -0.6805 C.1     1  UNL1       -0.0617
      4 C           7.3252    1.9752   -1.1876 C.3     1  UNL1        0.1516
      5 O           6.0548    1.9015   -0.9653 O.3     1  UNL1       -0.4624
      6 C           4.8901    1.2788   -1.0080 C.ar    1  UNL1        0.2344
      7 C           3.7536    2.0156   -0.4558 C.ar    1  UNL1        0.0899
      8 N           2.5643    1.4702   -0.4826 N.ar    1  UNL1       -0.2435
      9 C           2.2736    0.2692   -0.9821 C.ar    1  UNL1        0.1439
     10 C           0.8861   -0.0992   -1.0467 C.2     1  UNL1        0.2681
     11 O           0.4761   -1.2452   -1.4546 O.2     1  UNL1       -0.2681
     12 N          -0.1296    0.8184   -0.6831 N.am    1  UNL1       -0.2802
     13 C          -1.5389    0.6577   -0.7489 C.ar    1  UNL1        0.0341
     14 C          -2.1349    1.0641   -1.9872 C.ar    1  UNL1       -0.0391
     15 C          -3.4813    1.0244   -2.2012 C.ar    1  UNL1       -0.0413
     16 C          -4.3593    0.5650   -1.1770 C.ar    1  UNL1        0.0467
     17 CL         -6.0721    0.5464   -1.5395 Cl      1  UNL1       -0.0832
     18 C          -3.7670    0.1851   -0.0064 C.ar    1  UNL1        0.0059
     19 C          -4.6816   -0.2275    1.1028 C.3     1  UNL1        0.1590
     20 C          -5.5000    0.9400    1.6026 C.3     1  UNL1        0.2685
     21 F          -4.6513    1.9286    2.1033 F       1  UNL1       -0.2062
     22 F          -6.3882    0.6214    2.6135 F       1  UNL1       -0.2062
     23 N          -5.5064   -1.3068    0.6474 N.2     1  UNL1       -0.2194
     24 C          -5.1498   -2.5565    0.6713 C.2     1  UNL1        0.2764
     25 N          -5.9886   -3.6202    0.1880 N.pl3   1  UNL1       -0.3134
     26 O          -3.8942   -2.8218    1.1966 O.2     1  UNL1       -0.4622
     27 C          -3.4761   -2.1080    2.3336 C.3     1  UNL1        0.1091
     28 C          -4.5822   -1.5945    3.3006 C.3     1  UNL1       -0.0064
     29 C          -3.8074   -0.6768    2.2834 C.3     1  UNL1        0.0344
     30 C          -2.3860    0.2250    0.2065 C.ar    1  UNL1       -0.0334
     31 C           3.3329   -0.4590   -1.5048 C.ar    1  UNL1        0.0619
     32 N           4.5530    0.0873   -1.4877 N.ar    1  UNL1       -0.2177
     33 H          11.0258   -0.6848   -0.6367 H       1  UNL1        0.0362
     34 H          10.0705   -1.0091    0.9408 H       1  UNL1        0.0362
     35 H          11.1682    0.4028    0.7523 H       1  UNL1        0.0362
     36 H           7.6473    3.0718   -0.8362 H       1  UNL1        0.0837
     37 H           7.5845    2.1337   -2.3173 H       1  UNL1        0.0837
     38 H           4.0009    2.9772   -0.0516 H       1  UNL1        0.0884
     39 H           0.2134    1.7604   -0.3126 H       1  UNL1        0.1552
     40 H          -1.4334    1.4101   -2.7382 H       1  UNL1        0.0636
     41 H          -3.9482    1.3382   -3.1160 H       1  UNL1        0.0633
     42 H          -6.0812    1.4567    0.7635 H       1  UNL1        0.1047
     43 H          -6.9671   -3.4283   -0.0160 H       1  UNL1        0.1466
     44 H          -5.5652   -4.5490    0.0532 H       1  UNL1        0.1466
     45 H          -2.5556   -2.4749    2.8769 H       1  UNL1        0.0737
     46 H          -5.6363   -1.7691    3.0220 H       1  UNL1        0.0306
     47 H          -4.3118   -1.4856    4.3236 H       1  UNL1        0.0306
     48 H          -3.1831    0.1035    2.7667 H       1  UNL1        0.0366
     49 H          -1.9507   -0.1068    1.1590 H       1  UNL1        0.0640
     50 H           3.1683   -1.4448   -1.9296 H       1  UNL1        0.0854
@<TRIPOS>BOND
     1     1     2    1
     2     2     3    3
     3     3     4    1
     4     4     5    1
     5     5     6    1
     6     6     7   ar
     7     7     8   ar
     8     8     9   ar
     9     9    10    1
    10    10    11    2
    11    10    12   am
    12    12    13    1
    13    13    14   ar
    14    14    15   ar
    15    15    16   ar
    16    16    17    1
    17    16    18   ar
    18    18    19    1
    19    19    20    1
    20    20    21    1
    21    20    22    1
    22    19    23    1
    23    23    24    2
    24    24    25    1
    25    24    26    1
    26    26    27    1
    27    27    28    1
    28    28    29    1
    29    18    30   ar
    30     9    31   ar
    31    31    32   ar
    32    32     6   ar
    33    30    13   ar
    34    29    19    1
    35    29    27    1
    36     1    33    1
    37     1    34    1
    38     1    35    1
    39     4    36    1
    40     4    37    1
    41     7    38    1
    42    12    39    1
    43    14    40    1
    44    15    41    1
    45    20    42    1
    46    25    43    1
    47    25    44    1
    48    27    45    1
    49    28    46    1
    50    28    47    1
    51    29    48    1
    52    30    49    1
    53    31    50    1
