
     RDKit          3D

 50 53  0  0  0  0  0  0  0  0999 V2000
   10.4028   -0.2626    0.2195 C   0  0  0  0  0  0  0  0  0  0  0  0
    9.3209    0.5239   -0.2816 C   0  0  0  0  0  0  0  0  0  0  0  0
    8.4149    1.1782   -0.6805 C   0  0  0  0  0  0  0  0  0  0  0  0
    7.3252    1.9752   -1.1876 C   0  0  0  0  0  0  0  0  0  0  0  0
    6.0548    1.9015   -0.9653 O   0  0  0  0  0  0  0  0  0  0  0  0
    4.8901    1.2788   -1.0080 C   0  0  0  0  0  0  0  0  0  0  0  0
    3.7536    2.0156   -0.4558 C   0  0  0  0  0  0  0  0  0  0  0  0
    2.5643    1.4702   -0.4826 N   0  0  0  0  0  0  0  0  0  0  0  0
    2.2736    0.2692   -0.9821 C   0  0  0  0  0  0  0  0  0  0  0  0
    0.8861   -0.0992   -1.0467 C   0  0  0  0  0  0  0  0  0  0  0  0
    0.4761   -1.2452   -1.4546 O   0  0  0  0  0  0  0  0  0  0  0  0
   -0.1296    0.8184   -0.6831 N   0  0  0  0  0  0  0  0  0  0  0  0
   -1.5389    0.6577   -0.7489 C   0  0  0  0  0  0  0  0  0  0  0  0
   -2.1349    1.0641   -1.9872 C   0  0  0  0  0  0  0  0  0  0  0  0
   -3.4813    1.0244   -2.2012 C   0  0  0  0  0  0  0  0  0  0  0  0
   -4.3593    0.5650   -1.1770 C   0  0  0  0  0  0  0  0  0  0  0  0
   -6.0721    0.5464   -1.5395 Cl  0  0  0  0  0  0  0  0  0  0  0  0
   -3.7670    0.1851   -0.0064 C   0  0  0  0  0  0  0  0  0  0  0  0
   -4.6816   -0.2275    1.1028 C   0  0  1  0  0  0  0  0  0  0  0  0
   -5.5000    0.9400    1.6026 C   0  0  0  0  0  0  0  0  0  0  0  0
   -4.6513    1.9286    2.1033 F   0  0  0  0  0  0  0  0  0  0  0  0
   -6.3882    0.6214    2.6135 F   0  0  0  0  0  0  0  0  0  0  0  0
   -5.5064   -1.3068    0.6474 N   0  0  0  0  0  0  0  0  0  0  0  0
   -5.1498   -2.5565    0.6713 C   0  0  0  0  0  0  0  0  0  0  0  0
   -5.9886   -3.6202    0.1880 N   0  0  0  0  0  0  0  0  0  0  0  0
   -3.8942   -2.8218    1.1966 O   0  0  0  0  0  0  0  0  0  0  0  0
   -3.4761   -2.1080    2.3336 C   0  0  2  0  0  0  0  0  0  0  0  0
   -4.5822   -1.5945    3.3006 C   0  0  0  0  0  0  0  0  0  0  0  0
   -3.8074   -0.6768    2.2834 C   0  0  2  0  0  0  0  0  0  0  0  0
   -2.3860    0.2250    0.2065 C   0  0  0  0  0  0  0  0  0  0  0  0
    3.3329   -0.4590   -1.5048 C   0  0  0  0  0  0  0  0  0  0  0  0
    4.5530    0.0873   -1.4877 N   0  0  0  0  0  0  0  0  0  0  0  0
   11.0258   -0.6848   -0.6367 H   0  0  0  0  0  0  0  0  0  0  0  0
   10.0705   -1.0091    0.9408 H   0  0  0  0  0  0  0  0  0  0  0  0
   11.1682    0.4028    0.7523 H   0  0  0  0  0  0  0  0  0  0  0  0
    7.6473    3.0718   -0.8362 H   0  0  0  0  0  0  0  0  0  0  0  0
    7.5845    2.1337   -2.3173 H   0  0  0  0  0  0  0  0  0  0  0  0
    4.0009    2.9772   -0.0516 H   0  0  0  0  0  0  0  0  0  0  0  0
    0.2134    1.7604   -0.3126 H   0  0  0  0  0  0  0  0  0  0  0  0
   -1.4334    1.4101   -2.7382 H   0  0  0  0  0  0  0  0  0  0  0  0
   -3.9482    1.3382   -3.1160 H   0  0  0  0  0  0  0  0  0  0  0  0
   -6.0812    1.4567    0.7635 H   0  0  0  0  0  0  0  0  0  0  0  0
   -6.9671   -3.4283   -0.0160 H   0  0  0  0  0  0  0  0  0  0  0  0
   -5.5652   -4.5490    0.0532 H   0  0  0  0  0  0  0  0  0  0  0  0
   -2.5556   -2.4749    2.8769 H   0  0  0  0  0  0  0  0  0  0  0  0
   -5.6363   -1.7691    3.0220 H   0  0  0  0  0  0  0  0  0  0  0  0
   -4.3118   -1.4856    4.3236 H   0  0  0  0  0  0  0  0  0  0  0  0
   -3.1831    0.1035    2.7667 H   0  0  0  0  0  0  0  0  0  0  0  0
   -1.9507   -0.1068    1.1590 H   0  0  0  0  0  0  0  0  0  0  0  0
    3.1683   -1.4448   -1.9296 H   0  0  0  0  0  0  0  0  0  0  0  0
  1  2  1  0
  2  3  3  0
  3  4  1  0
  4  5  1  0
  5  6  1  0
  6  7  2  0
  7  8  1  0
  8  9  2  0
  9 10  1  0
 10 11  2  0
 10 12  1  0
 12 13  1  0
 13 14  2  0
 14 15  1  0
 15 16  2  0
 16 17  1  0
 16 18  1  0
 18 19  1  0
 19 20  1  1
 20 21  1  0
 20 22  1  0
 19 23  1  0
 23 24  2  0
 24 25  1  0
 24 26  1  0
 26 27  1  0
 27 28  1  0
 28 29  1  0
 18 30  2  0
  9 31  1  0
 31 32  2  0
 32  6  1  0
 30 13  1  0
 29 19  1  0
 29 27  1  0
  1 33  1  0
  1 34  1  0
  1 35  1  0
  4 36  1  0
  4 37  1  0
  7 38  1  0
 12 39  1  0
 14 40  1  0
 15 41  1  0
 20 42  1  0
 25 43  1  0
 25 44  1  0
 27 45  1  1
 28 46  1  0
 28 47  1  0
 29 48  1  1
 30 49  1  0
 31 50  1  0
M  END
$$$$
