
     RDKit          3D

 65 67  0  0  0  0  0  0  0  0999 V2000
   -4.6790    5.1565   -0.0588 C   0  0  0  0  0  0  0  0  0  0  0  0
   -4.4810    3.8065   -0.4297 O   0  0  0  0  0  0  0  0  0  0  0  0
   -3.2146    3.3613   -0.7712 C   0  0  0  0  0  0  0  0  0  0  0  0
   -2.1439    4.2361   -0.7497 C   0  0  0  0  0  0  0  0  0  0  0  0
   -0.9029    3.7480   -1.0973 C   0  0  0  0  0  0  0  0  0  0  0  0
   -0.7353    2.4117   -1.4592 C   0  0  0  0  0  0  0  0  0  0  0  0
   -1.8094    1.5501   -1.4768 C   0  0  0  0  0  0  0  0  0  0  0  0
   -1.6659    0.1007   -1.8624 C   0  0  0  0  0  0  0  0  0  0  0  0
   -1.3825   -0.7167   -0.7252 N   0  0  0  0  0  0  0  0  0  0  0  0
   -2.3294   -1.2590    0.0285 N   0  0  0  0  0  0  0  0  0  0  0  0
   -1.7714   -1.9658    1.0542 C   0  0  0  0  0  0  0  0  0  0  0  0
   -2.4504   -2.7043    2.1236 C   0  0  0  0  0  0  0  0  0  0  0  0
   -2.7168   -4.0012    1.8554 O   0  0  0  0  0  0  0  0  0  0  0  0
   -3.5078   -4.3356    0.8100 C   0  0  0  0  0  0  0  0  0  0  0  0
   -4.8756   -3.6779    0.7974 C   0  0  0  0  0  0  0  0  0  0  0  0
   -3.8773   -5.8448    1.1080 C   0  0  0  0  0  0  0  0  0  0  0  0
   -2.9391   -4.3597   -0.5280 C   0  0  0  0  0  0  0  0  0  0  0  0
   -1.7368   -4.1728   -0.8169 O   0  0  0  0  0  0  0  0  0  0  0  0
   -3.7734   -4.6122   -1.6388 O   0  0  0  0  0  0  0  0  0  0  0  0
   -0.4133   -1.8262    0.8866 C   0  0  0  0  0  0  0  0  0  0  0  0
   -0.1779   -1.0340   -0.2432 C   0  0  0  0  0  0  0  0  0  0  0  0
    1.1679   -0.6716   -0.6961 C   0  0  0  0  0  0  0  0  0  0  0  0
    1.6220   -0.8200   -1.9815 C   0  0  0  0  0  0  0  0  0  0  0  0
    2.9055   -0.4455   -2.3842 C   0  0  0  0  0  0  0  0  0  0  0  0
    3.7338    0.0948   -1.4259 C   0  0  0  0  0  0  0  0  0  0  0  0
    3.3425    0.2714   -0.1163 C   0  0  0  0  0  0  0  0  0  0  0  0
    4.2197    0.8195    0.8020 O   0  0  0  0  0  0  0  0  0  0  0  0
    5.5021    1.1894    0.3833 C   0  0  0  0  0  0  0  0  0  0  0  0
    6.3489    1.7673    1.4698 C   0  0  0  0  0  0  0  0  0  0  0  0
    7.7006    2.1192    0.8720 C   0  0  0  0  0  0  0  0  0  0  0  0
    5.7653    3.0141    2.0700 C   0  0  0  0  0  0  0  0  0  0  0  0
    2.0612   -0.1153    0.2319 C   0  0  0  0  0  0  0  0  0  0  0  0
   -3.0571    2.0185   -1.1328 C   0  0  0  0  0  0  0  0  0  0  0  0
   -3.9426    5.3519    0.7749 H   0  0  0  0  0  0  0  0  0  0  0  0
   -4.3663    5.7985   -0.8865 H   0  0  0  0  0  0  0  0  0  0  0  0
   -5.6646    5.3531    0.3569 H   0  0  0  0  0  0  0  0  0  0  0  0
   -2.3261    5.2537   -0.4641 H   0  0  0  0  0  0  0  0  0  0  0  0
   -0.0595    4.4327   -1.0815 H   0  0  0  0  0  0  0  0  0  0  0  0
    0.2379    2.0800   -1.7191 H   0  0  0  0  0  0  0  0  0  0  0  0
   -0.9088    0.0852   -2.6581 H   0  0  0  0  0  0  0  0  0  0  0  0
   -2.6161   -0.2339   -2.3792 H   0  0  0  0  0  0  0  0  0  0  0  0
   -3.3324   -2.1396    2.5282 H   0  0  0  0  0  0  0  0  0  0  0  0
   -1.7325   -2.6928    3.0053 H   0  0  0  0  0  0  0  0  0  0  0  0
   -5.5444   -4.3320    0.1767 H   0  0  0  0  0  0  0  0  0  0  0  0
   -4.8538   -2.6933    0.3032 H   0  0  0  0  0  0  0  0  0  0  0  0
   -5.3287   -3.6323    1.7965 H   0  0  0  0  0  0  0  0  0  0  0  0
   -4.3827   -6.2707    0.2440 H   0  0  0  0  0  0  0  0  0  0  0  0
   -4.5423   -5.7691    1.9862 H   0  0  0  0  0  0  0  0  0  0  0  0
   -2.9432   -6.3152    1.4157 H   0  0  0  0  0  0  0  0  0  0  0  0
   -3.4029   -5.0482   -2.4742 H   0  0  0  0  0  0  0  0  0  0  0  0
    0.3922   -2.2423    1.5022 H   0  0  0  0  0  0  0  0  0  0  0  0
    0.9616   -1.2623   -2.7195 H   0  0  0  0  0  0  0  0  0  0  0  0
    3.2381   -0.5723   -3.4020 H   0  0  0  0  0  0  0  0  0  0  0  0
    4.7311    0.3937   -1.7067 H   0  0  0  0  0  0  0  0  0  0  0  0
    6.0643    0.3763   -0.1060 H   0  0  0  0  0  0  0  0  0  0  0  0
    5.3953    1.9911   -0.4056 H   0  0  0  0  0  0  0  0  0  0  0  0
    6.5070    1.0206    2.2864 H   0  0  0  0  0  0  0  0  0  0  0  0
    7.5533    2.6983   -0.0625 H   0  0  0  0  0  0  0  0  0  0  0  0
    8.3171    2.7121    1.5593 H   0  0  0  0  0  0  0  0  0  0  0  0
    8.1704    1.1615    0.5766 H   0  0  0  0  0  0  0  0  0  0  0  0
    6.2443    3.9463    1.7087 H   0  0  0  0  0  0  0  0  0  0  0  0
    5.9053    3.0003    3.1811 H   0  0  0  0  0  0  0  0  0  0  0  0
    4.6689    3.1143    1.8193 H   0  0  0  0  0  0  0  0  0  0  0  0
    1.7183    0.0060    1.2430 H   0  0  0  0  0  0  0  0  0  0  0  0
   -3.8870    1.3260   -1.1530 H   0  0  0  0  0  0  0  0  0  0  0  0
  1  2  1  0
  2  3  1  0
  3  4  2  0
  4  5  1  0
  5  6  2  0
  6  7  1  0
  7  8  1  0
  8  9  1  0
  9 10  1  0
 10 11  2  0
 11 12  1  0
 12 13  1  0
 13 14  1  0
 14 15  1  0
 14 16  1  0
 14 17  1  0
 17 18  2  0
 17 19  1  0
 11 20  1  0
 20 21  2  0
 21 22  1  0
 22 23  2  0
 23 24  1  0
 24 25  2  0
 25 26  1  0
 26 27  1  0
 27 28  1  0
 28 29  1  0
 29 30  1  0
 29 31  1  0
 26 32  2  0
  7 33  2  0
 33  3  1  0
 21  9  1  0
 32 22  1  0
  1 34  1  0
  1 35  1  0
  1 36  1  0
  4 37  1  0
  5 38  1  0
  6 39  1  0
  8 40  1  0
  8 41  1  0
 12 42  1  0
 12 43  1  0
 15 44  1  0
 15 45  1  0
 15 46  1  0
 16 47  1  0
 16 48  1  0
 16 49  1  0
 19 50  1  0
 20 51  1  0
 23 52  1  0
 24 53  1  0
 25 54  1  0
 28 55  1  0
 28 56  1  0
 29 57  1  0
 30 58  1  0
 30 59  1  0
 30 60  1  0
 31 61  1  0
 31 62  1  0
 31 63  1  0
 32 64  1  0
 33 65  1  0
M  END
$$$$
