@<TRIPOS>MOLECULE
*****
 65 67 0 0 0
SMALL
GASTEIGER

@<TRIPOS>ATOM
      1 C          -4.6790    5.1565   -0.0588 C.3     1  UNL1        0.0788
      2 O          -4.4810    3.8065   -0.4297 O.3     1  UNL1       -0.4951
      3 C          -3.2146    3.3613   -0.7712 C.ar    1  UNL1        0.1204
      4 C          -2.1439    4.2361   -0.7497 C.ar    1  UNL1       -0.0199
      5 C          -0.9029    3.7480   -1.0973 C.ar    1  UNL1       -0.0580
      6 C          -0.7353    2.4117   -1.4592 C.ar    1  UNL1       -0.0566
      7 C          -1.8094    1.5501   -1.4768 C.ar    1  UNL1       -0.0227
      8 C          -1.6659    0.1007   -1.8624 C.3     1  UNL1        0.0673
      9 N          -1.3825   -0.7167   -0.7252 N.ar    1  UNL1       -0.2590
     10 N          -2.3294   -1.2590    0.0285 N.ar    1  UNL1       -0.1730
     11 C          -1.7714   -1.9658    1.0542 C.ar    1  UNL1        0.0892
     12 C          -2.4504   -2.7043    2.1236 C.3     1  UNL1        0.0928
     13 O          -2.7168   -4.0012    1.8554 O.3     1  UNL1       -0.3566
     14 C          -3.5078   -4.3356    0.8100 C.3     1  UNL1        0.1602
     15 C          -4.8756   -3.6779    0.7974 C.3     1  UNL1       -0.0256
     16 C          -3.8773   -5.8448    1.1080 C.3     1  UNL1       -0.0256
     17 C          -2.9391   -4.3597   -0.5280 C.2     1  UNL1        0.3365
     18 O          -1.7368   -4.1728   -0.8169 O.2     1  UNL1       -0.2478
     19 O          -3.7734   -4.6122   -1.6388 O.3     1  UNL1       -0.4786
     20 C          -0.4133   -1.8262    0.8866 C.ar    1  UNL1       -0.0108
     21 C          -0.1779   -1.0340   -0.2432 C.ar    1  UNL1        0.0697
     22 C           1.1679   -0.6716   -0.6961 C.ar    1  UNL1        0.0035
     23 C           1.6220   -0.8200   -1.9815 C.ar    1  UNL1       -0.0524
     24 C           2.9055   -0.4455   -2.3842 C.ar    1  UNL1       -0.0577
     25 C           3.7338    0.0948   -1.4259 C.ar    1  UNL1       -0.0199
     26 C           3.3425    0.2714   -0.1163 C.ar    1  UNL1        0.1211
     27 O           4.2197    0.8195    0.8020 O.3     1  UNL1       -0.4917
     28 C           5.5021    1.1894    0.3833 C.3     1  UNL1        0.0919
     29 C           6.3489    1.7673    1.4698 C.3     1  UNL1       -0.0124
     30 C           7.7006    2.1192    0.8720 C.3     1  UNL1       -0.0596
     31 C           5.7653    3.0141    2.0700 C.3     1  UNL1       -0.0596
     32 C           2.0612   -0.1153    0.2319 C.ar    1  UNL1       -0.0108
     33 C          -3.0571    2.0185   -1.1328 C.ar    1  UNL1       -0.0150
     34 H          -3.9426    5.3519    0.7749 H       1  UNL1        0.0660
     35 H          -4.3663    5.7985   -0.8865 H       1  UNL1        0.0660
     36 H          -5.6646    5.3531    0.3569 H       1  UNL1        0.0660
     37 H          -2.3261    5.2537   -0.4641 H       1  UNL1        0.0654
     38 H          -0.0595    4.4327   -1.0815 H       1  UNL1        0.0619
     39 H           0.2379    2.0800   -1.7191 H       1  UNL1        0.0621
     40 H          -0.9088    0.0852   -2.6581 H       1  UNL1        0.0559
     41 H          -2.6161   -0.2339   -2.3792 H       1  UNL1        0.0559
     42 H          -3.3324   -2.1396    2.5282 H       1  UNL1        0.0626
     43 H          -1.7325   -2.6928    3.0053 H       1  UNL1        0.0626
     44 H          -5.5444   -4.3320    0.1767 H       1  UNL1        0.0263
     45 H          -4.8538   -2.6933    0.3032 H       1  UNL1        0.0263
     46 H          -5.3287   -3.6323    1.7965 H       1  UNL1        0.0263
     47 H          -4.3827   -6.2707    0.2440 H       1  UNL1        0.0263
     48 H          -4.5423   -5.7691    1.9862 H       1  UNL1        0.0263
     49 H          -2.9432   -6.3152    1.4157 H       1  UNL1        0.0263
     50 H          -3.4029   -5.0482   -2.4742 H       1  UNL1        0.2951
     51 H           0.3922   -2.2423    1.5022 H       1  UNL1        0.0658
     52 H           0.9616   -1.2623   -2.7195 H       1  UNL1        0.0624
     53 H           3.2381   -0.5723   -3.4020 H       1  UNL1        0.0619
     54 H           4.7311    0.3937   -1.7067 H       1  UNL1        0.0654
     55 H           6.0643    0.3763   -0.1060 H       1  UNL1        0.0699
     56 H           5.3953    1.9911   -0.4056 H       1  UNL1        0.0699
     57 H           6.5070    1.0206    2.2864 H       1  UNL1        0.0328
     58 H           7.5533    2.6983   -0.0625 H       1  UNL1        0.0233
     59 H           8.3171    2.7121    1.5593 H       1  UNL1        0.0233
     60 H           8.1704    1.1615    0.5766 H       1  UNL1        0.0233
     61 H           6.2443    3.9463    1.7087 H       1  UNL1        0.0233
     62 H           5.9053    3.0003    3.1811 H       1  UNL1        0.0233
     63 H           4.6689    3.1143    1.8193 H       1  UNL1        0.0233
     64 H           1.7183    0.0060    1.2430 H       1  UNL1        0.0661
     65 H          -3.8870    1.3260   -1.1530 H       1  UNL1        0.0657
@<TRIPOS>BOND
     1     1     2    1
     2     2     3    1
     3     3     4   ar
     4     4     5   ar
     5     5     6   ar
     6     6     7   ar
     7     7     8    1
     8     8     9    1
     9     9    10   ar
    10    10    11   ar
    11    11    12    1
    12    12    13    1
    13    13    14    1
    14    14    15    1
    15    14    16    1
    16    14    17    1
    17    17    18    2
    18    17    19    1
    19    11    20   ar
    20    20    21   ar
    21    21    22    1
    22    22    23   ar
    23    23    24   ar
    24    24    25   ar
    25    25    26   ar
    26    26    27    1
    27    27    28    1
    28    28    29    1
    29    29    30    1
    30    29    31    1
    31    26    32   ar
    32     7    33   ar
    33    33     3   ar
    34    21     9   ar
    35    32    22   ar
    36     1    34    1
    37     1    35    1
    38     1    36    1
    39     4    37    1
    40     5    38    1
    41     6    39    1
    42     8    40    1
    43     8    41    1
    44    12    42    1
    45    12    43    1
    46    15    44    1
    47    15    45    1
    48    15    46    1
    49    16    47    1
    50    16    48    1
    51    16    49    1
    52    19    50    1
    53    20    51    1
    54    23    52    1
    55    24    53    1
    56    25    54    1
    57    28    55    1
    58    28    56    1
    59    29    57    1
    60    30    58    1
    61    30    59    1
    62    30    60    1
    63    31    61    1
    64    31    62    1
    65    31    63    1
    66    32    64    1
    67    33    65    1
