@<TRIPOS>MOLECULE
*****
 57 62 0 0 0
SMALL
GASTEIGER

@<TRIPOS>ATOM
      1 C           5.6906   -1.5316    2.9011 C.3     1  UNL1        0.0805
      2 O           4.7938   -1.1527    1.8762 O.3     1  UNL1       -0.4782
      3 C           4.5387   -2.0592    0.8645 C.ar    1  UNL1        0.2408
      4 N           5.1409   -3.2845    0.8632 N.ar    1  UNL1       -0.2195
      5 C           4.8858   -4.1617   -0.1278 C.ar    1  UNL1        0.0315
      6 C           4.0155   -3.8220   -1.1422 C.ar    1  UNL1       -0.0413
      7 C           3.3991   -2.5804   -1.1500 C.ar    1  UNL1       -0.0296
      8 C           3.6668   -1.6907   -0.1318 C.ar    1  UNL1        0.1275
      9 N           3.0820   -0.3981   -0.0577 N.ar    1  UNL1       -0.2219
     10 N           3.6300    0.7815   -0.1014 N.ar    1  UNL1       -0.1704
     11 C           2.6931    1.7402    0.0050 C.ar    1  UNL1        0.0664
     12 C           2.9692    3.2023    0.0081 C.3     1  UNL1       -0.0202
     13 C           1.4759    1.1206    0.1222 C.ar    1  UNL1        0.0309
     14 C           1.7388   -0.2276    0.0824 C.ar    1  UNL1        0.1353
     15 C           0.4690   -0.9270    0.2290 C.2     1  UNL1        0.2715
     16 O           0.3171   -2.1978    0.2374 O.2     1  UNL1       -0.2679
     17 N          -0.5598    0.0420    0.3597 N.am    1  UNL1       -0.2376
     18 C          -1.9185   -0.2505    0.5541 C.ar    1  UNL1        0.1499
     19 C          -2.4156   -0.3368    1.8569 C.ar    1  UNL1       -0.0131
     20 C          -3.7438   -0.6335    2.0695 C.ar    1  UNL1       -0.0012
     21 C          -4.2921   -0.7295    3.4660 C.3     1  UNL1       -0.0360
     22 C          -4.6029   -0.8494    1.0142 C.ar    1  UNL1        0.1809
     23 N          -5.9063   -1.1467    0.9155 N.ar    1  UNL1       -0.1277
     24 N          -6.2140   -1.2422   -0.3600 N.ar    1  UNL1       -0.1325
     25 C          -5.1034   -1.0051   -1.0793 C.ar    1  UNL1        0.1521
     26 C          -5.0268   -1.0176   -2.5599 C.3     1  UNL1       -0.0027
     27 N          -4.0726   -0.7542   -0.2210 N.ar    1  UNL1       -0.1953
     28 N          -2.8006   -0.4703   -0.4358 N.ar    1  UNL1       -0.1478
     29 C           0.0378    1.3465    0.2629 C.3     1  UNL1        0.0868
     30 C          -0.5790    2.1747   -0.7992 C.ar    1  UNL1       -0.0220
     31 C          -1.9109    2.5423   -0.7521 C.ar    1  UNL1       -0.0551
     32 C          -2.5014    3.2910   -1.7473 C.ar    1  UNL1       -0.0431
     33 C          -1.7831    3.7107   -2.8439 C.ar    1  UNL1        0.0410
     34 CL         -2.5373    4.6718   -4.1229 Cl      1  UNL1       -0.0835
     35 C          -0.4578    3.3580   -2.9132 C.ar    1  UNL1       -0.0431
     36 C           0.1327    2.5966   -1.8967 C.ar    1  UNL1       -0.0551
     37 H           6.6486   -1.9034    2.4389 H       1  UNL1        0.0660
     38 H           5.2530   -2.4521    3.3829 H       1  UNL1        0.0660
     39 H           5.8672   -0.7341    3.6324 H       1  UNL1        0.0660
     40 H           5.3425   -5.1423   -0.1652 H       1  UNL1        0.0831
     41 H           3.7976   -4.5096   -1.9449 H       1  UNL1        0.0633
     42 H           2.7053   -2.2870   -1.9427 H       1  UNL1        0.0641
     43 H           1.9993    3.7412    0.0434 H       1  UNL1        0.0293
     44 H           3.5843    3.4939    0.8943 H       1  UNL1        0.0293
     45 H           3.4815    3.4863   -0.9278 H       1  UNL1        0.0293
     46 H          -1.7629   -0.1718    2.7076 H       1  UNL1        0.0656
     47 H          -3.4480   -0.7428    4.1718 H       1  UNL1        0.0279
     48 H          -4.9484    0.1202    3.7091 H       1  UNL1        0.0279
     49 H          -4.8845   -1.6561    3.5928 H       1  UNL1        0.0279
     50 H          -6.0382   -0.8408   -2.9707 H       1  UNL1        0.0309
     51 H          -4.3586   -0.2020   -2.9120 H       1  UNL1        0.0309
     52 H          -4.6684   -2.0203   -2.8714 H       1  UNL1        0.0309
     53 H          -0.0764    1.9081    1.2523 H       1  UNL1        0.0606
     54 H          -2.4727    2.2107    0.1287 H       1  UNL1        0.0621
     55 H          -3.5414    3.5654   -1.6892 H       1  UNL1        0.0632
     56 H           0.1042    3.6890   -3.7755 H       1  UNL1        0.0632
     57 H           1.1650    2.3383   -2.0003 H       1  UNL1        0.0621
@<TRIPOS>BOND
     1     1     2    1
     2     2     3    1
     3     3     4   ar
     4     4     5   ar
     5     5     6   ar
     6     6     7   ar
     7     7     8   ar
     8     8     9    1
     9     9    10   ar
    10    10    11   ar
    11    11    12    1
    12    11    13   ar
    13    13    14   ar
    14    14    15    1
    15    15    16    2
    16    15    17   am
    17    17    18    1
    18    18    19   ar
    19    19    20   ar
    20    20    21    1
    21    20    22   ar
    22    22    23   ar
    23    23    24   ar
    24    24    25   ar
    25    25    26    1
    26    25    27   ar
    27    27    28   ar
    28    17    29    1
    29    29    30    1
    30    30    31   ar
    31    31    32   ar
    32    32    33   ar
    33    33    34    1
    34    33    35   ar
    35    35    36   ar
    36     8     3   ar
    37    14     9   ar
    38    28    18   ar
    39    36    30   ar
    40    29    13    1
    41    27    22   ar
    42     1    37    1
    43     1    38    1
    44     1    39    1
    45     5    40    1
    46     6    41    1
    47     7    42    1
    48    12    43    1
    49    12    44    1
    50    12    45    1
    51    19    46    1
    52    21    47    1
    53    21    48    1
    54    21    49    1
    55    26    50    1
    56    26    51    1
    57    26    52    1
    58    29    53    1
    59    31    54    1
    60    32    55    1
    61    35    56    1
    62    36    57    1
