
     RDKit          3D

 57 62  0  0  0  0  0  0  0  0999 V2000
    5.6906   -1.5316    2.9011 C   0  0  0  0  0  0  0  0  0  0  0  0
    4.7938   -1.1527    1.8762 O   0  0  0  0  0  0  0  0  0  0  0  0
    4.5387   -2.0592    0.8645 C   0  0  0  0  0  0  0  0  0  0  0  0
    5.1409   -3.2845    0.8632 N   0  0  0  0  0  0  0  0  0  0  0  0
    4.8858   -4.1617   -0.1278 C   0  0  0  0  0  0  0  0  0  0  0  0
    4.0155   -3.8220   -1.1422 C   0  0  0  0  0  0  0  0  0  0  0  0
    3.3991   -2.5804   -1.1500 C   0  0  0  0  0  0  0  0  0  0  0  0
    3.6668   -1.6907   -0.1318 C   0  0  0  0  0  0  0  0  0  0  0  0
    3.0820   -0.3981   -0.0577 N   0  0  0  0  0  0  0  0  0  0  0  0
    3.6300    0.7815   -0.1014 N   0  0  0  0  0  0  0  0  0  0  0  0
    2.6931    1.7402    0.0050 C   0  0  0  0  0  0  0  0  0  0  0  0
    2.9692    3.2023    0.0081 C   0  0  0  0  0  0  0  0  0  0  0  0
    1.4759    1.1206    0.1222 C   0  0  0  0  0  0  0  0  0  0  0  0
    1.7388   -0.2276    0.0824 C   0  0  0  0  0  0  0  0  0  0  0  0
    0.4690   -0.9270    0.2290 C   0  0  0  0  0  0  0  0  0  0  0  0
    0.3171   -2.1978    0.2374 O   0  0  0  0  0  0  0  0  0  0  0  0
   -0.5598    0.0420    0.3597 N   0  0  0  0  0  0  0  0  0  0  0  0
   -1.9185   -0.2505    0.5541 C   0  0  0  0  0  0  0  0  0  0  0  0
   -2.4156   -0.3368    1.8569 C   0  0  0  0  0  0  0  0  0  0  0  0
   -3.7438   -0.6335    2.0695 C   0  0  0  0  0  0  0  0  0  0  0  0
   -4.2921   -0.7295    3.4660 C   0  0  0  0  0  0  0  0  0  0  0  0
   -4.6029   -0.8494    1.0142 C   0  0  0  0  0  0  0  0  0  0  0  0
   -5.9063   -1.1467    0.9155 N   0  0  0  0  0  0  0  0  0  0  0  0
   -6.2140   -1.2422   -0.3600 N   0  0  0  0  0  0  0  0  0  0  0  0
   -5.1034   -1.0051   -1.0793 C   0  0  0  0  0  0  0  0  0  0  0  0
   -5.0268   -1.0176   -2.5599 C   0  0  0  0  0  0  0  0  0  0  0  0
   -4.0726   -0.7542   -0.2210 N   0  0  0  0  0  0  0  0  0  0  0  0
   -2.8006   -0.4703   -0.4358 N   0  0  0  0  0  0  0  0  0  0  0  0
    0.0378    1.3465    0.2629 C   0  0  0  0  0  0  0  0  0  0  0  0
   -0.5790    2.1747   -0.7992 C   0  0  0  0  0  0  0  0  0  0  0  0
   -1.9109    2.5423   -0.7521 C   0  0  0  0  0  0  0  0  0  0  0  0
   -2.5014    3.2910   -1.7473 C   0  0  0  0  0  0  0  0  0  0  0  0
   -1.7831    3.7107   -2.8439 C   0  0  0  0  0  0  0  0  0  0  0  0
   -2.5373    4.6718   -4.1229 Cl  0  0  0  0  0  0  0  0  0  0  0  0
   -0.4578    3.3580   -2.9132 C   0  0  0  0  0  0  0  0  0  0  0  0
    0.1327    2.5966   -1.8967 C   0  0  0  0  0  0  0  0  0  0  0  0
    6.6486   -1.9034    2.4389 H   0  0  0  0  0  0  0  0  0  0  0  0
    5.2530   -2.4521    3.3829 H   0  0  0  0  0  0  0  0  0  0  0  0
    5.8672   -0.7341    3.6324 H   0  0  0  0  0  0  0  0  0  0  0  0
    5.3425   -5.1423   -0.1652 H   0  0  0  0  0  0  0  0  0  0  0  0
    3.7976   -4.5096   -1.9449 H   0  0  0  0  0  0  0  0  0  0  0  0
    2.7053   -2.2870   -1.9427 H   0  0  0  0  0  0  0  0  0  0  0  0
    1.9993    3.7412    0.0434 H   0  0  0  0  0  0  0  0  0  0  0  0
    3.5843    3.4939    0.8943 H   0  0  0  0  0  0  0  0  0  0  0  0
    3.4815    3.4863   -0.9278 H   0  0  0  0  0  0  0  0  0  0  0  0
   -1.7629   -0.1718    2.7076 H   0  0  0  0  0  0  0  0  0  0  0  0
   -3.4480   -0.7428    4.1718 H   0  0  0  0  0  0  0  0  0  0  0  0
   -4.9484    0.1202    3.7091 H   0  0  0  0  0  0  0  0  0  0  0  0
   -4.8845   -1.6561    3.5928 H   0  0  0  0  0  0  0  0  0  0  0  0
   -6.0382   -0.8408   -2.9707 H   0  0  0  0  0  0  0  0  0  0  0  0
   -4.3586   -0.2020   -2.9120 H   0  0  0  0  0  0  0  0  0  0  0  0
   -4.6684   -2.0203   -2.8714 H   0  0  0  0  0  0  0  0  0  0  0  0
   -0.0764    1.9081    1.2523 H   0  0  0  0  0  0  0  0  0  0  0  0
   -2.4727    2.2107    0.1287 H   0  0  0  0  0  0  0  0  0  0  0  0
   -3.5414    3.5654   -1.6892 H   0  0  0  0  0  0  0  0  0  0  0  0
    0.1042    3.6890   -3.7755 H   0  0  0  0  0  0  0  0  0  0  0  0
    1.1650    2.3383   -2.0003 H   0  0  0  0  0  0  0  0  0  0  0  0
  1  2  1  0
  2  3  1  0
  3  4  2  0
  4  5  1  0
  5  6  2  0
  6  7  1  0
  7  8  2  0
  8  9  1  0
  9 10  1  0
 10 11  2  0
 11 12  1  0
 11 13  1  0
 13 14  2  0
 14 15  1  0
 15 16  2  0
 15 17  1  0
 17 18  1  0
 18 19  1  0
 19 20  2  0
 20 21  1  0
 20 22  1  0
 22 23  2  0
 23 24  1  0
 24 25  2  0
 25 26  1  0
 25 27  1  0
 27 28  1  0
 17 29  1  0
 29 30  1  0
 30 31  2  0
 31 32  1  0
 32 33  2  0
 33 34  1  0
 33 35  1  0
 35 36  2  0
  8  3  1  0
 14  9  1  0
 28 18  2  0
 36 30  1  0
 29 13  1  0
 27 22  1  0
  1 37  1  0
  1 38  1  0
  1 39  1  0
  5 40  1  0
  6 41  1  0
  7 42  1  0
 12 43  1  0
 12 44  1  0
 12 45  1  0
 19 46  1  0
 21 47  1  0
 21 48  1  0
 21 49  1  0
 26 50  1  0
 26 51  1  0
 26 52  1  0
 29 53  1  0
 31 54  1  0
 32 55  1  0
 35 56  1  0
 36 57  1  0
M  END
$$$$
