@<TRIPOS>MOLECULE
*****
 91 97 0 0 0
SMALL
GASTEIGER

@<TRIPOS>ATOM
      1 C          12.3817   -0.0434    0.9009 C.3     1  UNL1       -0.0497
      2 C          11.8486    0.4384   -0.4171 C.3     1  UNL1        0.0049
      3 C          11.1460    1.7553   -0.1574 C.3     1  UNL1       -0.0497
      4 N          10.9121   -0.5379   -0.9822 N.3     1  UNL1       -0.2969
      5 C          10.4360   -0.0903   -2.2430 C.3     1  UNL1        0.0150
      6 C           9.0726   -0.5180   -2.6481 C.3     1  UNL1        0.0278
      7 N           8.1751   -0.7096   -1.5237 N.am    1  UNL1       -0.2951
      8 C           6.8851   -0.1600   -1.5674 C.2     1  UNL1        0.2467
      9 O           6.5616    0.5127   -2.6090 O.2     1  UNL1       -0.2700
     10 C           5.9030   -0.3051   -0.5180 C.ar    1  UNL1        0.0370
     11 C           5.4910    0.7504    0.2759 C.ar    1  UNL1       -0.0479
     12 C           4.5142    0.5294    1.2280 C.ar    1  UNL1       -0.0397
     13 C           3.9280   -0.7011    1.4261 C.ar    1  UNL1        0.0348
     14 N           2.9080   -0.8438    2.3964 N.am    1  UNL1       -0.2692
     15 C           1.5479   -0.6547    2.0367 C.2     1  UNL1        0.3081
     16 O           1.2756   -0.3696    0.8176 O.2     1  UNL1       -0.2522
     17 N           0.4391   -0.7456    2.8988 N.am    1  UNL1       -0.2692
     18 C          -0.8932   -0.5380    2.4485 C.ar    1  UNL1        0.0348
     19 C          -1.7388   -1.5465    2.0658 C.ar    1  UNL1       -0.0398
     20 C          -3.0216   -1.2613    1.5882 C.ar    1  UNL1       -0.0493
     21 C          -3.4668    0.0378    1.4899 C.ar    1  UNL1        0.0194
     22 C          -4.7706    0.3548    0.9392 C.ar    1  UNL1        0.1652
     23 N          -5.2063    1.5928    0.6666 N.ar    1  UNL1       -0.2122
     24 C          -6.4174    1.8604    0.1434 C.ar    1  UNL1        0.1382
     25 C          -6.8594    3.2756   -0.1211 C.3     1  UNL1        0.0233
     26 C          -6.0548    3.8626   -1.2586 C.3     1  UNL1       -0.0197
     27 C          -6.7954    4.8135   -2.1295 C.3     1  UNL1        0.0483
     28 O          -8.0662    5.1417   -1.7229 O.3     1  UNL1       -0.3797
     29 C          -8.7952    3.9423   -1.5871 C.3     1  UNL1        0.0483
     30 C          -8.3282    3.3468   -0.2716 C.3     1  UNL1       -0.0197
     31 N          -7.2159    0.7979   -0.1086 N.ar    1  UNL1       -0.1991
     32 C          -6.8463   -0.4640    0.1410 C.ar    1  UNL1        0.2220
     33 N          -7.7049   -1.5207   -0.1148 N.pl3   1  UNL1       -0.2891
     34 C          -8.7566   -1.6209   -1.0789 C.3     1  UNL1        0.0500
     35 C          -9.9151   -2.0355   -0.1460 C.3     1  UNL1       -0.0304
     36 C          -9.2320   -2.7432    1.0353 C.3     1  UNL1       -0.0304
     37 C          -7.7484   -2.7749    0.6091 C.3     1  UNL1        0.0500
     38 C          -7.5973   -3.9632   -0.2881 C.3     1  UNL1        0.0663
     39 O          -7.4364   -3.5333   -1.6087 O.3     1  UNL1       -0.3761
     40 C          -8.5648   -2.8169   -2.0073 C.3     1  UNL1        0.0663
     41 N          -5.6163   -0.6614    0.6659 N.ar    1  UNL1       -0.1945
     42 C          -2.6010    1.0305    1.8815 C.ar    1  UNL1       -0.0493
     43 C          -1.3320    0.7617    2.3559 C.ar    1  UNL1       -0.0398
     44 C           4.3510   -1.7333    0.6314 C.ar    1  UNL1       -0.0397
     45 C           5.3348   -1.5575   -0.3446 C.ar    1  UNL1       -0.0479
     46 C           8.6759   -1.4595   -0.4122 C.3     1  UNL1        0.0278
     47 C           9.9566   -0.8229    0.0301 C.3     1  UNL1        0.0150
     48 H          13.3401    0.5245    1.0644 H       1  UNL1        0.0245
     49 H          12.6892   -1.1107    0.8858 H       1  UNL1        0.0245
     50 H          11.7172    0.2381    1.7163 H       1  UNL1        0.0245
     51 H          12.6745    0.5509   -1.1391 H       1  UNL1        0.0457
     52 H          11.0299    1.9667    0.9389 H       1  UNL1        0.0245
     53 H          10.1151    1.7928   -0.5550 H       1  UNL1        0.0245
     54 H          11.7044    2.5746   -0.6319 H       1  UNL1        0.0245
     55 H          10.5225    1.0152   -2.3601 H       1  UNL1        0.0442
     56 H          11.1656   -0.4895   -3.0187 H       1  UNL1        0.0442
     57 H           9.1797   -1.5343   -3.1362 H       1  UNL1        0.0477
     58 H           8.5839    0.1151   -3.3824 H       1  UNL1        0.0477
     59 H           5.9606    1.7060    0.1059 H       1  UNL1        0.0626
     60 H           4.1863    1.3613    1.8580 H       1  UNL1        0.0636
     61 H           3.1476   -1.0873    3.3700 H       1  UNL1        0.1564
     62 H           0.6330   -0.9744    3.8935 H       1  UNL1        0.1564
     63 H          -1.4401   -2.5941    2.1191 H       1  UNL1        0.0636
     64 H          -3.6577   -2.0639    1.2991 H       1  UNL1        0.0625
     65 H          -6.5503    3.8297    0.8135 H       1  UNL1        0.0381
     66 H          -5.7012    3.0066   -1.8820 H       1  UNL1        0.0294
     67 H          -5.1199    4.3022   -0.8300 H       1  UNL1        0.0294
     68 H          -6.7674    4.5018   -3.2060 H       1  UNL1        0.0560
     69 H          -6.2072    5.7814   -2.1310 H       1  UNL1        0.0560
     70 H          -8.5608    3.2237   -2.3825 H       1  UNL1        0.0560
     71 H          -9.8732    4.1156   -1.5246 H       1  UNL1        0.0560
     72 H          -8.7520    2.3290   -0.1215 H       1  UNL1        0.0294
     73 H          -8.7626    3.9750    0.5319 H       1  UNL1        0.0294
     74 H          -9.0006   -0.7103   -1.6241 H       1  UNL1        0.0523
     75 H         -10.6293   -2.6989   -0.6464 H       1  UNL1        0.0284
     76 H         -10.3517   -1.0720    0.1939 H       1  UNL1        0.0284
     77 H          -9.6307   -3.7372    1.2176 H       1  UNL1        0.0284
     78 H          -9.2669   -2.0608    1.9233 H       1  UNL1        0.0284
     79 H          -7.0927   -2.7696    1.4913 H       1  UNL1        0.0523
     80 H          -6.7379   -4.6109   -0.0177 H       1  UNL1        0.0578
     81 H          -8.5048   -4.6283   -0.2876 H       1  UNL1        0.0578
     82 H          -8.3815   -2.4604   -3.0489 H       1  UNL1        0.0578
     83 H          -9.4708   -3.4545   -2.0575 H       1  UNL1        0.0578
     84 H          -2.9603    2.0619    1.8052 H       1  UNL1        0.0625
     85 H          -0.6861    1.5712    2.6523 H       1  UNL1        0.0636
     86 H           3.9038   -2.7205    0.7646 H       1  UNL1        0.0636
     87 H           5.6685   -2.3862   -0.9731 H       1  UNL1        0.0626
     88 H           7.9998   -1.4856    0.4670 H       1  UNL1        0.0477
     89 H           8.8959   -2.5031   -0.7194 H       1  UNL1        0.0477
     90 H          10.4335   -1.5575    0.7365 H       1  UNL1        0.0442
     91 H           9.7918    0.0946    0.6384 H       1  UNL1        0.0442
@<TRIPOS>BOND
     1     1     2    1
     2     2     3    1
     3     2     4    1
     4     4     5    1
     5     5     6    1
     6     6     7    1
     7     7     8   am
     8     8     9    2
     9     8    10    1
    10    10    11   ar
    11    11    12   ar
    12    12    13   ar
    13    13    14    1
    14    14    15   am
    15    15    16    2
    16    15    17   am
    17    17    18    1
    18    18    19   ar
    19    19    20   ar
    20    20    21   ar
    21    21    22    1
    22    22    23   ar
    23    23    24   ar
    24    24    25    1
    25    25    26    1
    26    26    27    1
    27    27    28    1
    28    28    29    1
    29    29    30    1
    30    24    31   ar
    31    31    32   ar
    32    32    33    1
    33    33    34    1
    34    34    35    1
    35    35    36    1
    36    36    37    1
    37    37    38    1
    38    38    39    1
    39    39    40    1
    40    32    41   ar
    41    21    42   ar
    42    42    43   ar
    43    13    44   ar
    44    44    45   ar
    45     7    46    1
    46    46    47    1
    47    47     4    1
    48    45    10   ar
    49    43    18   ar
    50    41    22   ar
    51    30    25    1
    52    37    33    1
    53    40    34    1
    54     1    48    1
    55     1    49    1
    56     1    50    1
    57     2    51    1
    58     3    52    1
    59     3    53    1
    60     3    54    1
    61     5    55    1
    62     5    56    1
    63     6    57    1
    64     6    58    1
    65    11    59    1
    66    12    60    1
    67    14    61    1
    68    17    62    1
    69    19    63    1
    70    20    64    1
    71    25    65    1
    72    26    66    1
    73    26    67    1
    74    27    68    1
    75    27    69    1
    76    29    70    1
    77    29    71    1
    78    30    72    1
    79    30    73    1
    80    34    74    1
    81    35    75    1
    82    35    76    1
    83    36    77    1
    84    36    78    1
    85    37    79    1
    86    38    80    1
    87    38    81    1
    88    40    82    1
    89    40    83    1
    90    42    84    1
    91    43    85    1
    92    44    86    1
    93    45    87    1
    94    46    88    1
    95    46    89    1
    96    47    90    1
    97    47    91    1
