@<TRIPOS>MOLECULE
*****
 49 51 0 0 0
SMALL
GASTEIGER

@<TRIPOS>ATOM
      1 C          -5.0077    1.3215   -3.1116 C.3     1  UNL1       -0.0305
      2 C          -6.3350    0.6033   -2.9760 C.3     1  UNL1        0.0912
      3 O          -6.1530   -0.5677   -2.2046 O.3     1  UNL1       -0.4507
      4 C          -5.6788   -0.3769   -0.8852 C.2     1  UNL1        0.4005
      5 O          -5.4415    0.7544   -0.4419 O.2     1  UNL1       -0.2265
      6 N          -5.4770   -1.5083   -0.0671 N.am    1  UNL1       -0.2770
      7 C          -4.9978   -1.4534    1.2927 C.3     1  UNL1        0.0400
      8 C          -3.5412   -1.2348    1.2851 C.ar    1  UNL1       -0.0302
      9 C          -2.7387   -2.3747    1.2009 C.ar    1  UNL1       -0.0564
     10 C          -1.3627   -2.2651    1.1971 C.ar    1  UNL1       -0.0493
     11 C          -0.7146   -1.0528    1.2742 C.ar    1  UNL1        0.0370
     12 C           0.7384   -0.9864    1.2735 C.2     1  UNL1        0.2483
     13 O           1.3973   -2.0614    1.2293 O.2     1  UNL1       -0.2699
     14 N           1.4829    0.2100    1.3194 N.am    1  UNL1       -0.2799
     15 C           2.8999    0.2940    1.3224 C.ar    1  UNL1        0.0551
     16 C           3.6801    0.3766    0.1910 C.ar    1  UNL1       -0.0305
     17 C           5.0557    0.4611    0.2268 C.ar    1  UNL1       -0.0094
     18 C           5.7886    0.5467   -1.0205 C.ar    1  UNL1        0.0194
     19 C           5.3268    0.5635   -2.3535 C.ar    1  UNL1       -0.0469
     20 C           6.2170    0.6514   -3.3204 C.ar    1  UNL1       -0.0541
     21 C           7.5631    0.7271   -3.0995 C.ar    1  UNL1       -0.0237
     22 S           7.5077    0.6601   -1.2227 S.2     1  UNL1       -0.0967
     23 C           5.7108    0.4648    1.4472 C.ar    1  UNL1       -0.0517
     24 C           4.9548    0.3834    2.5901 C.ar    1  UNL1       -0.0386
     25 C           3.5609    0.2985    2.5334 C.ar    1  UNL1        0.0461
     26 N           2.8182    0.2164    3.7306 N.pl3   1  UNL1       -0.3565
     27 C          -1.5156    0.0628    1.3567 C.ar    1  UNL1       -0.0493
     28 C          -2.9135   -0.0293    1.3621 C.ar    1  UNL1       -0.0564
     29 H          -4.9641    2.0872   -2.2989 H       1  UNL1        0.0262
     30 H          -4.9864    1.8390   -4.1082 H       1  UNL1        0.0262
     31 H          -4.1413    0.6600   -3.0941 H       1  UNL1        0.0262
     32 H          -7.0661    1.2298   -2.3865 H       1  UNL1        0.0695
     33 H          -6.7725    0.3524   -3.9714 H       1  UNL1        0.0695
     34 H          -5.6955   -2.4615   -0.4917 H       1  UNL1        0.1523
     35 H          -5.5393   -0.6946    1.9012 H       1  UNL1        0.0513
     36 H          -5.2089   -2.4253    1.8213 H       1  UNL1        0.0513
     37 H          -3.1397   -3.3710    1.1369 H       1  UNL1        0.0621
     38 H          -0.7266   -3.1590    1.1311 H       1  UNL1        0.0625
     39 H           0.9507    1.1142    1.3533 H       1  UNL1        0.1552
     40 H           3.1782    0.3748   -0.7801 H       1  UNL1        0.0643
     41 H           4.2152    0.5005   -2.5125 H       1  UNL1        0.0629
     42 H           5.9038    0.6691   -4.4141 H       1  UNL1        0.0623
     43 H           8.4170    0.7976   -3.6196 H       1  UNL1        0.0693
     44 H           6.7728    0.5307    1.4446 H       1  UNL1        0.0624
     45 H           5.4846    0.3878    3.5415 H       1  UNL1        0.0637
     46 H           2.6382   -0.7135    4.1635 H       1  UNL1        0.1424
     47 H           2.4427    1.0594    4.1971 H       1  UNL1        0.1424
     48 H          -1.0752    1.0524    1.4203 H       1  UNL1        0.0625
     49 H          -3.5127    0.8769    1.4372 H       1  UNL1        0.0621
@<TRIPOS>BOND
     1     1     2    1
     2     2     3    1
     3     3     4    1
     4     4     5    2
     5     4     6   am
     6     6     7    1
     7     7     8    1
     8     8     9   ar
     9     9    10   ar
    10    10    11   ar
    11    11    12    1
    12    12    13    2
    13    12    14   am
    14    14    15    1
    15    15    16   ar
    16    16    17   ar
    17    17    18    1
    18    18    19   ar
    19    19    20   ar
    20    20    21   ar
    21    21    22   ar
    22    17    23   ar
    23    23    24   ar
    24    24    25   ar
    25    25    26    1
    26    11    27   ar
    27    27    28   ar
    28    28     8   ar
    29    25    15   ar
    30    22    18   ar
    31     1    29    1
    32     1    30    1
    33     1    31    1
    34     2    32    1
    35     2    33    1
    36     6    34    1
    37     7    35    1
    38     7    36    1
    39     9    37    1
    40    10    38    1
    41    14    39    1
    42    16    40    1
    43    19    41    1
    44    20    42    1
    45    21    43    1
    46    23    44    1
    47    24    45    1
    48    26    46    1
    49    26    47    1
    50    27    48    1
    51    28    49    1
