@<TRIPOS>MOLECULE
*****
 36 39 0 0 0
SMALL
GASTEIGER

@<TRIPOS>ATOM
      1 O           0.3785   -0.6717    0.1053 O.2     1  UNL1       -0.2751
      2 C           0.2704    0.3865   -0.5842 C.2     1  UNL1        0.2220
      3 C          -1.0870    0.9694   -0.7312 C.3     1  UNL1        0.0500
      4 C          -2.1128    0.1878   -0.0257 C.ar    1  UNL1       -0.0308
      5 C          -2.6347    0.6416    1.1906 C.ar    1  UNL1       -0.0575
      6 C          -3.6008   -0.1094    1.8423 C.ar    1  UNL1       -0.0609
      7 C          -4.0453   -1.3073    1.2850 C.ar    1  UNL1       -0.0526
      8 C          -3.5430   -1.7636    0.0949 C.ar    1  UNL1        0.0005
      9 C          -3.9924   -2.9480   -0.4429 C.ar    1  UNL1        0.0353
     10 N          -3.4732   -3.3588   -1.6134 N.ar    1  UNL1       -0.2626
     11 C          -2.5393   -2.6663   -2.2769 C.ar    1  UNL1        0.0282
     12 C          -2.0928   -1.4807   -1.7335 C.ar    1  UNL1       -0.0356
     13 C          -2.5886   -0.9996   -0.5266 C.ar    1  UNL1       -0.0114
     14 N           1.4235    0.9999   -1.2016 N.am    1  UNL1       -0.2780
     15 C           2.6739    0.3782   -1.0093 C.ar    1  UNL1        0.1009
     16 S           3.3528   -0.9756   -2.0257 S.2     1  UNL1       -0.0600
     17 C           4.9244   -1.0375   -0.9765 C.ar    1  UNL1        0.0672
     18 N           4.7148   -0.2303   -0.2330 N.ar    1  UNL1       -0.2439
     19 C           3.6835    0.5842   -0.0654 C.ar    1  UNL1        0.1182
     20 C           3.6076    1.6430    0.9982 C.ar    1  UNL1        0.0986
     21 C           2.5435    2.4799    1.0657 C.ar    1  UNL1        0.0047
     22 S           2.9647    3.5617    2.4911 S.2     1  UNL1       -0.0832
     23 C           4.5877    2.6170    2.7286 C.ar    1  UNL1        0.0654
     24 N           4.5317    1.8696    1.9189 N.ar    1  UNL1       -0.2458
     25 H          -1.3448    1.1388   -1.8064 H       1  UNL1        0.0407
     26 H          -1.0465    1.9890   -0.2836 H       1  UNL1        0.0407
     27 H          -2.2650    1.5746    1.5912 H       1  UNL1        0.0621
     28 H          -4.0151    0.2317    2.7892 H       1  UNL1        0.0618
     29 H          -4.7930   -1.9073    1.7706 H       1  UNL1        0.0624
     30 H          -4.7383   -3.5566    0.0318 H       1  UNL1        0.0836
     31 H          -2.1664   -3.0445   -3.2016 H       1  UNL1        0.0830
     32 H          -1.3354   -0.8718   -2.2235 H       1  UNL1        0.0639
     33 H           1.2416    1.8626   -1.7495 H       1  UNL1        0.1554
     34 H           5.6779   -1.8527   -1.3423 H       1  UNL1        0.0908
     35 H           1.6128    2.6033    0.4885 H       1  UNL1        0.0716
     36 H           5.2252    3.0629    3.6607 H       1  UNL1        0.0907
@<TRIPOS>BOND
     1     1     2    2
     2     2     3    1
     3     3     4    1
     4     4     5   ar
     5     5     6   ar
     6     6     7   ar
     7     7     8   ar
     8     8     9   ar
     9     9    10   ar
    10    10    11   ar
    11    11    12   ar
    12    12    13   ar
    13     2    14   am
    14    14    15    1
    15    15    16   ar
    16    16    17   ar
    17    17    18   ar
    18    18    19   ar
    19    19    20    1
    20    20    21   ar
    21    21    22   ar
    22    22    23   ar
    23    23    24   ar
    24    13     4   ar
    25    19    15   ar
    26    24    20   ar
    27    13     8   ar
    28     3    25    1
    29     3    26    1
    30     5    27    1
    31     6    28    1
    32     7    29    1
    33     9    30    1
    34    11    31    1
    35    12    32    1
    36    14    33    1
    37    17    34    1
    38    21    35    1
    39    23    36    1
