
     RDKit          3D

 36 39  0  0  0  0  0  0  0  0999 V2000
    0.3785   -0.6717    0.1053 O   0  0  0  0  0  0  0  0  0  0  0  0
    0.2704    0.3865   -0.5842 C   0  0  0  0  0  0  0  0  0  0  0  0
   -1.0870    0.9694   -0.7312 C   0  0  0  0  0  0  0  0  0  0  0  0
   -2.1128    0.1878   -0.0257 C   0  0  0  0  0  0  0  0  0  0  0  0
   -2.6347    0.6416    1.1906 C   0  0  0  0  0  0  0  0  0  0  0  0
   -3.6008   -0.1094    1.8423 C   0  0  0  0  0  0  0  0  0  0  0  0
   -4.0453   -1.3073    1.2850 C   0  0  0  0  0  0  0  0  0  0  0  0
   -3.5430   -1.7636    0.0949 C   0  0  0  0  0  0  0  0  0  0  0  0
   -3.9924   -2.9480   -0.4429 C   0  0  0  0  0  0  0  0  0  0  0  0
   -3.4732   -3.3588   -1.6134 N   0  0  0  0  0  0  0  0  0  0  0  0
   -2.5393   -2.6663   -2.2769 C   0  0  0  0  0  0  0  0  0  0  0  0
   -2.0928   -1.4807   -1.7335 C   0  0  0  0  0  0  0  0  0  0  0  0
   -2.5886   -0.9996   -0.5266 C   0  0  0  0  0  0  0  0  0  0  0  0
    1.4235    0.9999   -1.2016 N   0  0  0  0  0  0  0  0  0  0  0  0
    2.6739    0.3782   -1.0093 C   0  0  0  0  0  0  0  0  0  0  0  0
    3.3528   -0.9756   -2.0257 S   0  0  0  0  0  0  0  0  0  0  0  0
    4.9244   -1.0375   -0.9765 C   0  0  0  0  0  0  0  0  0  0  0  0
    4.7148   -0.2303   -0.2330 N   0  0  0  0  0  0  0  0  0  0  0  0
    3.6835    0.5842   -0.0654 C   0  0  0  0  0  0  0  0  0  0  0  0
    3.6076    1.6430    0.9982 C   0  0  0  0  0  0  0  0  0  0  0  0
    2.5435    2.4799    1.0657 C   0  0  0  0  0  0  0  0  0  0  0  0
    2.9647    3.5617    2.4911 S   0  0  0  0  0  0  0  0  0  0  0  0
    4.5877    2.6170    2.7286 C   0  0  0  0  0  0  0  0  0  0  0  0
    4.5317    1.8696    1.9189 N   0  0  0  0  0  0  0  0  0  0  0  0
   -1.3448    1.1388   -1.8064 H   0  0  0  0  0  0  0  0  0  0  0  0
   -1.0465    1.9890   -0.2836 H   0  0  0  0  0  0  0  0  0  0  0  0
   -2.2650    1.5746    1.5912 H   0  0  0  0  0  0  0  0  0  0  0  0
   -4.0151    0.2317    2.7892 H   0  0  0  0  0  0  0  0  0  0  0  0
   -4.7930   -1.9073    1.7706 H   0  0  0  0  0  0  0  0  0  0  0  0
   -4.7383   -3.5566    0.0318 H   0  0  0  0  0  0  0  0  0  0  0  0
   -2.1664   -3.0445   -3.2016 H   0  0  0  0  0  0  0  0  0  0  0  0
   -1.3354   -0.8718   -2.2235 H   0  0  0  0  0  0  0  0  0  0  0  0
    1.2416    1.8626   -1.7495 H   0  0  0  0  0  0  0  0  0  0  0  0
    5.6779   -1.8527   -1.3423 H   0  0  0  0  0  0  0  0  0  0  0  0
    1.6128    2.6033    0.4885 H   0  0  0  0  0  0  0  0  0  0  0  0
    5.2252    3.0629    3.6607 H   0  0  0  0  0  0  0  0  0  0  0  0
  1  2  2  0
  2  3  1  0
  3  4  1  0
  4  5  2  0
  5  6  1  0
  6  7  2  0
  7  8  1  0
  8  9  2  0
  9 10  1  0
 10 11  2  0
 11 12  1  0
 12 13  2  0
  2 14  1  0
 14 15  1  0
 15 16  1  0
 16 17  1  0
 17 18  2  0
 18 19  1  0
 19 20  1  0
 20 21  2  0
 21 22  1  0
 22 23  1  0
 23 24  2  0
 13  4  1  0
 19 15  2  0
 24 20  1  0
 13  8  1  0
  3 25  1  0
  3 26  1  0
  5 27  1  0
  6 28  1  0
  7 29  1  0
  9 30  1  0
 11 31  1  0
 12 32  1  0
 14 33  1  0
 17 34  1  0
 21 35  1  0
 23 36  1  0
M  END
$$$$
