@<TRIPOS>MOLECULE
*****
 53 57 0 0 0
SMALL
GASTEIGER

@<TRIPOS>ATOM
      1 C          -4.6827   -4.4676    2.8802 C.3     1  UNL1        0.0125
      2 C          -4.5383   -3.2249    2.0297 C.2     1  UNL1        0.2141
      3 O          -5.5386   -2.5473    1.7113 O.2     1  UNL1       -0.2758
      4 N          -3.2654   -2.8082    1.5797 N.am    1  UNL1       -0.2839
      5 C          -3.0594   -1.6566    0.7819 C.ar    1  UNL1        0.0637
      6 C          -3.9429   -0.7291    0.2807 C.ar    1  UNL1        0.0266
      7 N          -3.2982    0.2237   -0.4431 N.ar    1  UNL1       -0.3492
      8 C          -3.9155    1.3682   -1.1255 C.3     1  UNL1        0.0117
      9 C          -1.9889   -0.0699   -0.4229 C.ar    1  UNL1        0.0580
     10 C          -1.8082   -1.2160    0.3189 C.ar    1  UNL1        0.0813
     11 C          -0.3892   -1.4911    0.3083 C.2     1  UNL1        0.2553
     12 O           0.1350   -2.4766    0.8962 O.2     1  UNL1       -0.2695
     13 N           0.2847   -0.4761   -0.4636 N.am    1  UNL1       -0.2529
     14 C           1.6892   -0.5079   -0.6534 C.ar    1  UNL1        0.0545
     15 C           2.1997   -1.1712   -1.7625 C.ar    1  UNL1       -0.0324
     16 C           3.5595   -1.2031   -1.9417 C.ar    1  UNL1       -0.0041
     17 C           4.0919   -1.9134   -3.1282 C.3     1  UNL1       -0.0361
     18 C           4.3551   -0.5727   -1.0082 C.ar    1  UNL1        0.1642
     19 N           5.7013   -0.4846   -0.9940 N.ar    1  UNL1       -0.1290
     20 N           6.0169    0.2164    0.0976 N.ar    1  UNL1       -0.1278
     21 C           4.8993    0.5627    0.7570 C.ar    1  UNL1        0.2041
     22 C           4.7664    1.3459    2.0225 C.3     1  UNL1        0.2980
     23 F           4.1921    0.5528    3.0218 F       1  UNL1       -0.2005
     24 F           3.9171    2.4207    1.8553 F       1  UNL1       -0.2005
     25 N           3.8708    0.0623    0.0534 N.ar    1  UNL1       -0.2798
     26 C           2.5266    0.1062    0.2504 C.ar    1  UNL1        0.0345
     27 C          -0.6907    0.4477   -0.9396 C.3     1  UNL1        0.0973
     28 C          -0.4763    1.8500   -0.5702 C.ar    1  UNL1       -0.0208
     29 C          -0.1477    2.2752    0.6978 C.ar    1  UNL1       -0.0550
     30 C           0.0465    3.6014    1.0094 C.ar    1  UNL1       -0.0431
     31 C          -0.0858    4.5731    0.0338 C.ar    1  UNL1        0.0410
     32 CL          0.1603    6.2728    0.4210 Cl      1  UNL1       -0.0835
     33 C          -0.4101    4.1844   -1.2297 C.ar    1  UNL1       -0.0431
     34 C          -0.5995    2.8673   -1.5243 C.ar    1  UNL1       -0.0550
     35 H          -4.6068   -5.3507    2.2163 H       1  UNL1        0.0323
     36 H          -5.6867   -4.4501    3.3107 H       1  UNL1        0.0323
     37 H          -3.8641   -4.5450    3.6120 H       1  UNL1        0.0323
     38 H          -2.4524   -3.3959    1.8632 H       1  UNL1        0.1549
     39 H          -5.0098   -0.7265    0.4225 H       1  UNL1        0.0828
     40 H          -4.9684    1.3901   -0.8321 H       1  UNL1        0.0456
     41 H          -3.3733    2.3065   -0.8922 H       1  UNL1        0.0456
     42 H          -3.8807    1.1211   -2.2184 H       1  UNL1        0.0456
     43 H           1.5057   -1.6399   -2.4469 H       1  UNL1        0.0640
     44 H           3.4701   -1.6797   -4.0087 H       1  UNL1        0.0279
     45 H           3.9581   -3.0038   -2.9270 H       1  UNL1        0.0279
     46 H           5.1659   -1.6576   -3.3217 H       1  UNL1        0.0279
     47 H           5.7580    1.6407    2.4006 H       1  UNL1        0.1105
     48 H           2.1814    0.6322    1.1284 H       1  UNL1        0.0833
     49 H          -0.6755    0.3801   -2.0671 H       1  UNL1        0.0619
     50 H          -0.0346    1.5446    1.4908 H       1  UNL1        0.0621
     51 H           0.3061    3.9424    2.0090 H       1  UNL1        0.0632
     52 H          -0.5121    4.9668   -1.9953 H       1  UNL1        0.0632
     53 H          -0.8560    2.6108   -2.5444 H       1  UNL1        0.0621
@<TRIPOS>BOND
     1     1     2    1
     2     2     3    2
     3     2     4   am
     4     4     5    1
     5     5     6   ar
     6     6     7   ar
     7     7     8    1
     8     7     9   ar
     9     9    10   ar
    10    10    11    1
    11    11    12    2
    12    11    13   am
    13    13    14    1
    14    14    15   ar
    15    15    16   ar
    16    16    17    1
    17    16    18   ar
    18    18    19   ar
    19    19    20   ar
    20    20    21   ar
    21    21    22    1
    22    22    23    1
    23    22    24    1
    24    21    25   ar
    25    25    26   ar
    26    13    27    1
    27    27    28    1
    28    28    29   ar
    29    29    30   ar
    30    30    31   ar
    31    31    32    1
    32    31    33   ar
    33    33    34   ar
    34    10     5   ar
    35    26    14   ar
    36    34    28   ar
    37    27     9    1
    38    25    18   ar
    39     1    35    1
    40     1    36    1
    41     1    37    1
    42     4    38    1
    43     6    39    1
    44     8    40    1
    45     8    41    1
    46     8    42    1
    47    15    43    1
    48    17    44    1
    49    17    45    1
    50    17    46    1
    51    22    47    1
    52    26    48    1
    53    27    49    1
    54    29    50    1
    55    30    51    1
    56    33    52    1
    57    34    53    1
