
     RDKit          3D

 53 57  0  0  0  0  0  0  0  0999 V2000
   -4.6827   -4.4676    2.8802 C   0  0  0  0  0  0  0  0  0  0  0  0
   -4.5383   -3.2249    2.0297 C   0  0  0  0  0  0  0  0  0  0  0  0
   -5.5386   -2.5473    1.7113 O   0  0  0  0  0  0  0  0  0  0  0  0
   -3.2654   -2.8082    1.5797 N   0  0  0  0  0  0  0  0  0  0  0  0
   -3.0594   -1.6566    0.7819 C   0  0  0  0  0  0  0  0  0  0  0  0
   -3.9429   -0.7291    0.2807 C   0  0  0  0  0  0  0  0  0  0  0  0
   -3.2982    0.2237   -0.4431 N   0  0  0  0  0  0  0  0  0  0  0  0
   -3.9155    1.3682   -1.1255 C   0  0  0  0  0  0  0  0  0  0  0  0
   -1.9889   -0.0699   -0.4229 C   0  0  0  0  0  0  0  0  0  0  0  0
   -1.8082   -1.2160    0.3189 C   0  0  0  0  0  0  0  0  0  0  0  0
   -0.3892   -1.4911    0.3083 C   0  0  0  0  0  0  0  0  0  0  0  0
    0.1350   -2.4766    0.8962 O   0  0  0  0  0  0  0  0  0  0  0  0
    0.2847   -0.4761   -0.4636 N   0  0  0  0  0  0  0  0  0  0  0  0
    1.6892   -0.5079   -0.6534 C   0  0  0  0  0  0  0  0  0  0  0  0
    2.1997   -1.1712   -1.7625 C   0  0  0  0  0  0  0  0  0  0  0  0
    3.5595   -1.2031   -1.9417 C   0  0  0  0  0  0  0  0  0  0  0  0
    4.0919   -1.9134   -3.1282 C   0  0  0  0  0  0  0  0  0  0  0  0
    4.3551   -0.5727   -1.0082 C   0  0  0  0  0  0  0  0  0  0  0  0
    5.7013   -0.4846   -0.9940 N   0  0  0  0  0  0  0  0  0  0  0  0
    6.0169    0.2164    0.0976 N   0  0  0  0  0  0  0  0  0  0  0  0
    4.8993    0.5627    0.7570 C   0  0  0  0  0  0  0  0  0  0  0  0
    4.7664    1.3459    2.0225 C   0  0  0  0  0  0  0  0  0  0  0  0
    4.1921    0.5528    3.0218 F   0  0  0  0  0  0  0  0  0  0  0  0
    3.9171    2.4207    1.8553 F   0  0  0  0  0  0  0  0  0  0  0  0
    3.8708    0.0623    0.0534 N   0  0  0  0  0  0  0  0  0  0  0  0
    2.5266    0.1062    0.2504 C   0  0  0  0  0  0  0  0  0  0  0  0
   -0.6907    0.4477   -0.9396 C   0  0  0  0  0  0  0  0  0  0  0  0
   -0.4763    1.8500   -0.5702 C   0  0  0  0  0  0  0  0  0  0  0  0
   -0.1477    2.2752    0.6978 C   0  0  0  0  0  0  0  0  0  0  0  0
    0.0465    3.6014    1.0094 C   0  0  0  0  0  0  0  0  0  0  0  0
   -0.0858    4.5731    0.0338 C   0  0  0  0  0  0  0  0  0  0  0  0
    0.1603    6.2728    0.4210 Cl  0  0  0  0  0  0  0  0  0  0  0  0
   -0.4101    4.1844   -1.2297 C   0  0  0  0  0  0  0  0  0  0  0  0
   -0.5995    2.8673   -1.5243 C   0  0  0  0  0  0  0  0  0  0  0  0
   -4.6068   -5.3507    2.2163 H   0  0  0  0  0  0  0  0  0  0  0  0
   -5.6867   -4.4501    3.3107 H   0  0  0  0  0  0  0  0  0  0  0  0
   -3.8641   -4.5450    3.6120 H   0  0  0  0  0  0  0  0  0  0  0  0
   -2.4524   -3.3959    1.8632 H   0  0  0  0  0  0  0  0  0  0  0  0
   -5.0098   -0.7265    0.4225 H   0  0  0  0  0  0  0  0  0  0  0  0
   -4.9684    1.3901   -0.8321 H   0  0  0  0  0  0  0  0  0  0  0  0
   -3.3733    2.3065   -0.8922 H   0  0  0  0  0  0  0  0  0  0  0  0
   -3.8807    1.1211   -2.2184 H   0  0  0  0  0  0  0  0  0  0  0  0
    1.5057   -1.6399   -2.4469 H   0  0  0  0  0  0  0  0  0  0  0  0
    3.4701   -1.6797   -4.0087 H   0  0  0  0  0  0  0  0  0  0  0  0
    3.9581   -3.0038   -2.9270 H   0  0  0  0  0  0  0  0  0  0  0  0
    5.1659   -1.6576   -3.3217 H   0  0  0  0  0  0  0  0  0  0  0  0
    5.7580    1.6407    2.4006 H   0  0  0  0  0  0  0  0  0  0  0  0
    2.1814    0.6322    1.1284 H   0  0  0  0  0  0  0  0  0  0  0  0
   -0.6755    0.3801   -2.0671 H   0  0  0  0  0  0  0  0  0  0  0  0
   -0.0346    1.5446    1.4908 H   0  0  0  0  0  0  0  0  0  0  0  0
    0.3061    3.9424    2.0090 H   0  0  0  0  0  0  0  0  0  0  0  0
   -0.5121    4.9668   -1.9953 H   0  0  0  0  0  0  0  0  0  0  0  0
   -0.8560    2.6108   -2.5444 H   0  0  0  0  0  0  0  0  0  0  0  0
  1  2  1  0
  2  3  2  0
  2  4  1  0
  4  5  1  0
  5  6  2  0
  6  7  1  0
  7  8  1  0
  7  9  1  0
  9 10  2  0
 10 11  1  0
 11 12  2  0
 11 13  1  0
 13 14  1  0
 14 15  1  0
 15 16  2  0
 16 17  1  0
 16 18  1  0
 18 19  2  0
 19 20  1  0
 20 21  2  0
 21 22  1  0
 22 23  1  0
 22 24  1  0
 21 25  1  0
 25 26  1  0
 13 27  1  0
 27 28  1  0
 28 29  2  0
 29 30  1  0
 30 31  2  0
 31 32  1  0
 31 33  1  0
 33 34  2  0
 10  5  1  0
 26 14  2  0
 34 28  1  0
 27  9  1  0
 25 18  1  0
  1 35  1  0
  1 36  1  0
  1 37  1  0
  4 38  1  0
  6 39  1  0
  8 40  1  0
  8 41  1  0
  8 42  1  0
 15 43  1  0
 17 44  1  0
 17 45  1  0
 17 46  1  0
 22 47  1  0
 26 48  1  0
 27 49  1  0
 29 50  1  0
 30 51  1  0
 33 52  1  0
 34 53  1  0
M  END
$$$$
