
     RDKit          3D

 38 41  0  0  0  0  0  0  0  0999 V2000
    6.1423    0.6940    1.6600 C   0  0  0  0  0  0  0  0  0  0  0  0
    4.9746   -0.6746    1.9667 S   0  0  0  0  0  0  0  0  0  0  0  0
    3.8788   -0.8791    0.5496 C   0  0  0  0  0  0  0  0  0  0  0  0
    4.1879   -1.7114   -0.4998 C   0  0  0  0  0  0  0  0  0  0  0  0
    3.3191   -1.8352   -1.5609 C   0  0  0  0  0  0  0  0  0  0  0  0
    2.1270   -1.1549   -1.6323 C   0  0  0  0  0  0  0  0  0  0  0  0
    1.2947   -1.2899   -2.6754 N   0  0  0  0  0  0  0  0  0  0  0  0
    0.1260   -0.6274   -2.7523 C   0  0  0  0  0  0  0  0  0  0  0  0
   -0.1979    0.1863   -1.7478 N   0  0  0  0  0  0  0  0  0  0  0  0
    0.5914    0.3717   -0.6655 C   0  0  0  0  0  0  0  0  0  0  0  0
    0.2175    1.2451    0.3787 N   0  0  0  0  0  0  0  0  0  0  0  0
   -1.0082    2.0172    0.4275 C   0  0  0  0  0  0  0  0  0  0  0  0
   -2.1815    1.1271    0.4405 C   0  0  0  0  0  0  0  0  0  0  0  0
   -2.5925    0.5349    1.6401 C   0  0  0  0  0  0  0  0  0  0  0  0
   -3.7106   -0.2757    1.6399 C   0  0  0  0  0  0  0  0  0  0  0  0
   -4.4419   -0.5252    0.4952 C   0  0  0  0  0  0  0  0  0  0  0  0
   -4.0343    0.0601   -0.6848 C   0  0  0  0  0  0  0  0  0  0  0  0
   -2.9022    0.8852   -0.7003 C   0  0  0  0  0  0  0  0  0  0  0  0
   -4.9405   -0.3608   -1.6482 O   0  0  0  0  0  0  0  0  0  0  0  0
   -6.1417   -0.7308   -0.9579 C   0  0  0  0  0  0  0  0  0  0  0  0
   -5.5916   -1.2954    0.2349 O   0  0  0  0  0  0  0  0  0  0  0  0
    1.7930   -0.3038   -0.5769 C   0  0  0  0  0  0  0  0  0  0  0  0
    2.6749   -0.1877    0.4845 C   0  0  0  0  0  0  0  0  0  0  0  0
    6.3246    1.2915    2.5749 H   0  0  0  0  0  0  0  0  0  0  0  0
    5.7056    1.4187    0.9143 H   0  0  0  0  0  0  0  0  0  0  0  0
    7.0995    0.3271    1.2843 H   0  0  0  0  0  0  0  0  0  0  0  0
    5.1288   -2.2463   -0.4402 H   0  0  0  0  0  0  0  0  0  0  0  0
    3.5855   -2.4996   -2.3793 H   0  0  0  0  0  0  0  0  0  0  0  0
   -0.5188   -0.7676   -3.6183 H   0  0  0  0  0  0  0  0  0  0  0  0
    0.8492    1.3665    1.1922 H   0  0  0  0  0  0  0  0  0  0  0  0
   -1.0013    2.6663    1.3074 H   0  0  0  0  0  0  0  0  0  0  0  0
   -1.0805    2.6731   -0.4749 H   0  0  0  0  0  0  0  0  0  0  0  0
   -2.0359    0.7172    2.5427 H   0  0  0  0  0  0  0  0  0  0  0  0
   -4.0423   -0.7422    2.5616 H   0  0  0  0  0  0  0  0  0  0  0  0
   -2.6478    1.3255   -1.6538 H   0  0  0  0  0  0  0  0  0  0  0  0
   -6.7231   -1.4609   -1.5353 H   0  0  0  0  0  0  0  0  0  0  0  0
   -6.6810    0.2089   -0.7498 H   0  0  0  0  0  0  0  0  0  0  0  0
    2.4534    0.4524    1.3080 H   0  0  0  0  0  0  0  0  0  0  0  0
  1  2  1  0
  2  3  1  0
  3  4  2  0
  4  5  1  0
  5  6  2  0
  6  7  1  0
  7  8  2  0
  8  9  1  0
  9 10  2  0
 10 11  1  0
 11 12  1  0
 12 13  1  0
 13 14  2  0
 14 15  1  0
 15 16  2  0
 16 17  1  0
 17 18  2  0
 17 19  1  0
 19 20  1  0
 20 21  1  0
 10 22  1  0
 22 23  2  0
 23  3  1  0
 22  6  1  0
 18 13  1  0
 21 16  1  0
  1 24  1  0
  1 25  1  0
  1 26  1  0
  4 27  1  0
  5 28  1  0
  8 29  1  0
 11 30  1  0
 12 31  1  0
 12 32  1  0
 14 33  1  0
 15 34  1  0
 18 35  1  0
 20 36  1  0
 20 37  1  0
 23 38  1  0
M  END
$$$$
