@<TRIPOS>MOLECULE
*****
 38 41 0 0 0
SMALL
GASTEIGER

@<TRIPOS>ATOM
      1 C           6.1423    0.6940    1.6600 C.3     1  UNL1       -0.0135
      2 S           4.9746   -0.6746    1.9667 S.3     1  UNL1       -0.1286
      3 C           3.8788   -0.8791    0.5496 C.ar    1  UNL1        0.0084
      4 C           4.1879   -1.7114   -0.4998 C.ar    1  UNL1       -0.0463
      5 C           3.3191   -1.8352   -1.5609 C.ar    1  UNL1       -0.0345
      6 C           2.1270   -1.1549   -1.6323 C.ar    1  UNL1        0.0761
      7 N           1.2947   -1.2899   -2.6754 N.ar    1  UNL1       -0.2353
      8 C           0.1260   -0.6274   -2.7523 C.ar    1  UNL1        0.1187
      9 N          -0.1979    0.1863   -1.7478 N.ar    1  UNL1       -0.2203
     10 C           0.5914    0.3717   -0.6655 C.ar    1  UNL1        0.1300
     11 N           0.2175    1.2451    0.3787 N.pl3   1  UNL1       -0.3244
     12 C          -1.0082    2.0172    0.4275 C.3     1  UNL1        0.0358
     13 C          -2.1815    1.1271    0.4405 C.ar    1  UNL1       -0.0267
     14 C          -2.5925    0.5349    1.6401 C.ar    1  UNL1       -0.0534
     15 C          -3.7106   -0.2757    1.6399 C.ar    1  UNL1       -0.0158
     16 C          -4.4419   -0.5252    0.4952 C.ar    1  UNL1        0.1662
     17 C          -4.0343    0.0601   -0.6848 C.ar    1  UNL1        0.1665
     18 C          -2.9022    0.8852   -0.7003 C.ar    1  UNL1       -0.0115
     19 O          -4.9405   -0.3608   -1.6482 O.3     1  UNL1       -0.4526
     20 C          -6.1417   -0.7308   -0.9579 C.3     1  UNL1        0.2332
     21 O          -5.5916   -1.2954    0.2349 O.3     1  UNL1       -0.4526
     22 C           1.7930   -0.3038   -0.5769 C.ar    1  UNL1        0.0412
     23 C           2.6749   -0.1877    0.4845 C.ar    1  UNL1       -0.0358
     24 H           6.3246    1.2915    2.5749 H       1  UNL1        0.0344
     25 H           5.7056    1.4187    0.9143 H       1  UNL1        0.0344
     26 H           7.0995    0.3271    1.2843 H       1  UNL1        0.0344
     27 H           5.1288   -2.2463   -0.4402 H       1  UNL1        0.0629
     28 H           3.5855   -2.4996   -2.3793 H       1  UNL1        0.0639
     29 H          -0.5188   -0.7676   -3.6183 H       1  UNL1        0.1048
     30 H           0.8492    1.3665    1.1922 H       1  UNL1        0.1478
     31 H          -1.0013    2.6663    1.3074 H       1  UNL1        0.0511
     32 H          -1.0805    2.6731   -0.4749 H       1  UNL1        0.0511
     33 H          -2.0359    0.7172    2.5427 H       1  UNL1        0.0622
     34 H          -4.0423   -0.7422    2.5616 H       1  UNL1        0.0655
     35 H          -2.6478    1.3255   -1.6538 H       1  UNL1        0.0658
     36 H          -6.7231   -1.4609   -1.5353 H       1  UNL1        0.1166
     37 H          -6.6810    0.2089   -0.7498 H       1  UNL1        0.1166
     38 H           2.4534    0.4524    1.3080 H       1  UNL1        0.0636
@<TRIPOS>BOND
     1     1     2    1
     2     2     3    1
     3     3     4   ar
     4     4     5   ar
     5     5     6   ar
     6     6     7   ar
     7     7     8   ar
     8     8     9   ar
     9     9    10   ar
    10    10    11    1
    11    11    12    1
    12    12    13    1
    13    13    14   ar
    14    14    15   ar
    15    15    16   ar
    16    16    17   ar
    17    17    18   ar
    18    17    19    1
    19    19    20    1
    20    20    21    1
    21    10    22   ar
    22    22    23   ar
    23    23     3   ar
    24    22     6   ar
    25    18    13   ar
    26    21    16    1
    27     1    24    1
    28     1    25    1
    29     1    26    1
    30     4    27    1
    31     5    28    1
    32     8    29    1
    33    11    30    1
    34    12    31    1
    35    12    32    1
    36    14    33    1
    37    15    34    1
    38    18    35    1
    39    20    36    1
    40    20    37    1
    41    23    38    1
