@<TRIPOS>MOLECULE
*****
 61 64 0 0 0
SMALL
GASTEIGER

@<TRIPOS>ATOM
      1 C          -0.9318   -1.2802    1.7591 C.3     1  UNL1       -0.0422
      2 C          -0.9341   -1.0473    0.2974 C.3     1  UNL1        0.0491
      3 C          -0.5531    0.3941    0.0877 C.ar    1  UNL1        0.0163
      4 C          -1.4661    1.4105    0.0905 C.ar    1  UNL1       -0.0411
      5 C          -1.0730    2.7103   -0.0990 C.ar    1  UNL1        0.0381
      6 C          -2.0315    3.8231   -0.1023 C.2     1  UNL1        0.2462
      7 O          -3.0458    3.7209   -0.8308 O.2     1  UNL1       -0.2700
      8 N          -1.8321    4.9637    0.6745 N.am    1  UNL1       -0.3036
      9 C          -2.7948    6.0441    0.6481 C.3     1  UNL1        0.0031
     10 C          -0.6718    5.1457    1.5461 C.3     1  UNL1        0.0031
     11 C           0.2722    2.9965   -0.2956 C.ar    1  UNL1       -0.0352
     12 C           1.2086    1.9857   -0.3015 C.ar    1  UNL1        0.0651
     13 C           2.5397    2.3093   -0.5003 C.ar    1  UNL1        0.1944
     14 O           2.8830    3.4930   -0.6705 O.2     1  UNL1       -0.2870
     15 C           3.4389    1.2408   -0.4961 C.ar    1  UNL1        0.0434
     16 C           2.9700   -0.0369   -0.3010 C.ar    1  UNL1        0.1931
     17 N           3.9215   -1.1072   -0.3046 N.pl3   1  UNL1       -0.2969
     18 C           5.3353   -0.9318   -0.5159 C.3     1  UNL1        0.0383
     19 C           5.8431   -2.2228   -1.1746 C.3     1  UNL1        0.0635
     20 O           5.7423   -3.2720   -0.3016 O.3     1  UNL1       -0.3767
     21 C           4.6488   -3.2213    0.5295 C.3     1  UNL1        0.0635
     22 C           3.4722   -2.4906   -0.0815 C.3     1  UNL1        0.0383
     23 O           1.6922   -0.2748   -0.1173 O.2     1  UNL1       -0.4407
     24 C           0.7787    0.6947   -0.1093 C.ar    1  UNL1        0.1458
     25 N          -2.0874   -1.4116   -0.4604 N.pl3   1  UNL1       -0.3259
     26 C          -2.2864   -0.6592   -1.7509 C.3     1  UNL1        0.0013
     27 C          -3.0006   -2.4294   -0.2114 C.ar    1  UNL1        0.0354
     28 C          -2.8813   -3.3791    0.7631 C.ar    1  UNL1       -0.0052
     29 C          -3.8543   -4.3672    1.0049 C.ar    1  UNL1        0.1279
     30 F          -3.6781   -5.2775    1.9782 F       1  UNL1       -0.2053
     31 C          -4.9848   -4.3931    0.2321 C.ar    1  UNL1        0.0089
     32 C          -5.1560   -3.4534   -0.7709 C.ar    1  UNL1        0.1279
     33 F          -6.2819   -3.5047   -1.5164 F       1  UNL1       -0.2053
     34 C          -4.1833   -2.5064   -0.9740 C.ar    1  UNL1       -0.0052
     35 H          -0.2675   -2.1199    2.1056 H       1  UNL1        0.0251
     36 H          -1.9375   -1.2786    2.1811 H       1  UNL1        0.0251
     37 H          -0.4328   -0.3937    2.3105 H       1  UNL1        0.0251
     38 H          -0.0869   -1.6450   -0.1498 H       1  UNL1        0.0548
     39 H          -2.5169    1.2096    0.2485 H       1  UNL1        0.0629
     40 H          -2.3818    6.8914    0.0300 H       1  UNL1        0.0428
     41 H          -3.7564    5.7808    0.2128 H       1  UNL1        0.0428
     42 H          -2.8739    6.4390    1.6881 H       1  UNL1        0.0428
     43 H          -1.0025    5.6428    2.4778 H       1  UNL1        0.0428
     44 H          -0.2211    4.1757    1.8170 H       1  UNL1        0.0428
     45 H           0.0629    5.8307    1.0601 H       1  UNL1        0.0428
     46 H           0.6016    4.0260   -0.4464 H       1  UNL1        0.0633
     47 H           4.4727    1.5114   -0.6495 H       1  UNL1        0.0707
     48 H           5.5792   -0.0742   -1.1440 H       1  UNL1        0.0487
     49 H           5.8842   -0.7774    0.4594 H       1  UNL1        0.0487
     50 H           6.8644   -2.0521   -1.5546 H       1  UNL1        0.0575
     51 H           5.1597   -2.4133   -2.0290 H       1  UNL1        0.0575
     52 H           4.3057   -4.2900    0.6582 H       1  UNL1        0.0575
     53 H           4.8780   -2.8757    1.5532 H       1  UNL1        0.0575
     54 H           2.6500   -2.5137    0.6682 H       1  UNL1        0.0487
     55 H           3.1891   -2.9620   -1.0212 H       1  UNL1        0.0487
     56 H          -1.4656    0.0211   -1.9411 H       1  UNL1        0.0428
     57 H          -3.2144   -0.0708   -1.6193 H       1  UNL1        0.0428
     58 H          -2.4756   -1.3950   -2.5566 H       1  UNL1        0.0428
     59 H          -1.9901   -3.4119    1.3737 H       1  UNL1        0.0665
     60 H          -5.7253   -5.1600    0.4290 H       1  UNL1        0.0675
     61 H          -4.3176   -1.7613   -1.7665 H       1  UNL1        0.0665
@<TRIPOS>BOND
     1     1     2    1
     2     2     3    1
     3     3     4   ar
     4     4     5   ar
     5     5     6    1
     6     6     7    2
     7     6     8   am
     8     8     9    1
     9     8    10    1
    10     5    11   ar
    11    11    12   ar
    12    12    13   ar
    13    13    14    2
    14    13    15   ar
    15    15    16   ar
    16    16    17    1
    17    17    18    1
    18    18    19    1
    19    19    20    1
    20    20    21    1
    21    21    22    1
    22    16    23   ar
    23    23    24   ar
    24     2    25    1
    25    25    26    1
    26    25    27    1
    27    27    28   ar
    28    28    29   ar
    29    29    30    1
    30    29    31   ar
    31    31    32   ar
    32    32    33    1
    33    32    34   ar
    34    24     3   ar
    35    34    27   ar
    36    24    12   ar
    37    22    17    1
    38     1    35    1
    39     1    36    1
    40     1    37    1
    41     2    38    1
    42     4    39    1
    43     9    40    1
    44     9    41    1
    45     9    42    1
    46    10    43    1
    47    10    44    1
    48    10    45    1
    49    11    46    1
    50    15    47    1
    51    18    48    1
    52    18    49    1
    53    19    50    1
    54    19    51    1
    55    21    52    1
    56    21    53    1
    57    22    54    1
    58    22    55    1
    59    26    56    1
    60    26    57    1
    61    26    58    1
    62    28    59    1
    63    31    60    1
    64    34    61    1
