
     RDKit          3D

 61 64  0  0  0  0  0  0  0  0999 V2000
   -0.9318   -1.2802    1.7591 C   0  0  0  0  0  0  0  0  0  0  0  0
   -0.9341   -1.0473    0.2974 C   0  0  2  0  0  0  0  0  0  0  0  0
   -0.5531    0.3941    0.0877 C   0  0  0  0  0  0  0  0  0  0  0  0
   -1.4661    1.4105    0.0905 C   0  0  0  0  0  0  0  0  0  0  0  0
   -1.0730    2.7103   -0.0990 C   0  0  0  0  0  0  0  0  0  0  0  0
   -2.0315    3.8231   -0.1023 C   0  0  0  0  0  0  0  0  0  0  0  0
   -3.0458    3.7209   -0.8308 O   0  0  0  0  0  0  0  0  0  0  0  0
   -1.8321    4.9637    0.6745 N   0  0  0  0  0  0  0  0  0  0  0  0
   -2.7948    6.0441    0.6481 C   0  0  0  0  0  0  0  0  0  0  0  0
   -0.6718    5.1457    1.5461 C   0  0  0  0  0  0  0  0  0  0  0  0
    0.2722    2.9965   -0.2956 C   0  0  0  0  0  0  0  0  0  0  0  0
    1.2086    1.9857   -0.3015 C   0  0  0  0  0  0  0  0  0  0  0  0
    2.5397    2.3093   -0.5003 C   0  0  0  0  0  0  0  0  0  0  0  0
    2.8830    3.4930   -0.6705 O   0  0  0  0  0  0  0  0  0  0  0  0
    3.4389    1.2408   -0.4961 C   0  0  0  0  0  0  0  0  0  0  0  0
    2.9700   -0.0369   -0.3010 C   0  0  0  0  0  0  0  0  0  0  0  0
    3.9215   -1.1072   -0.3046 N   0  0  0  0  0  0  0  0  0  0  0  0
    5.3353   -0.9318   -0.5159 C   0  0  0  0  0  0  0  0  0  0  0  0
    5.8431   -2.2228   -1.1746 C   0  0  0  0  0  0  0  0  0  0  0  0
    5.7423   -3.2720   -0.3016 O   0  0  0  0  0  0  0  0  0  0  0  0
    4.6488   -3.2213    0.5295 C   0  0  0  0  0  0  0  0  0  0  0  0
    3.4722   -2.4906   -0.0815 C   0  0  0  0  0  0  0  0  0  0  0  0
    1.6922   -0.2748   -0.1173 O   0  0  0  0  0  0  0  0  0  0  0  0
    0.7787    0.6947   -0.1093 C   0  0  0  0  0  0  0  0  0  0  0  0
   -2.0874   -1.4116   -0.4604 N   0  0  0  0  0  0  0  0  0  0  0  0
   -2.2864   -0.6592   -1.7509 C   0  0  0  0  0  0  0  0  0  0  0  0
   -3.0006   -2.4294   -0.2114 C   0  0  0  0  0  0  0  0  0  0  0  0
   -2.8813   -3.3791    0.7631 C   0  0  0  0  0  0  0  0  0  0  0  0
   -3.8543   -4.3672    1.0049 C   0  0  0  0  0  0  0  0  0  0  0  0
   -3.6781   -5.2775    1.9782 F   0  0  0  0  0  0  0  0  0  0  0  0
   -4.9848   -4.3931    0.2321 C   0  0  0  0  0  0  0  0  0  0  0  0
   -5.1560   -3.4534   -0.7709 C   0  0  0  0  0  0  0  0  0  0  0  0
   -6.2819   -3.5047   -1.5164 F   0  0  0  0  0  0  0  0  0  0  0  0
   -4.1833   -2.5064   -0.9740 C   0  0  0  0  0  0  0  0  0  0  0  0
   -0.2675   -2.1199    2.1056 H   0  0  0  0  0  0  0  0  0  0  0  0
   -1.9375   -1.2786    2.1811 H   0  0  0  0  0  0  0  0  0  0  0  0
   -0.4328   -0.3937    2.3105 H   0  0  0  0  0  0  0  0  0  0  0  0
   -0.0869   -1.6450   -0.1498 H   0  0  0  0  0  0  0  0  0  0  0  0
   -2.5169    1.2096    0.2485 H   0  0  0  0  0  0  0  0  0  0  0  0
   -2.3818    6.8914    0.0300 H   0  0  0  0  0  0  0  0  0  0  0  0
   -3.7564    5.7808    0.2128 H   0  0  0  0  0  0  0  0  0  0  0  0
   -2.8739    6.4390    1.6881 H   0  0  0  0  0  0  0  0  0  0  0  0
   -1.0025    5.6428    2.4778 H   0  0  0  0  0  0  0  0  0  0  0  0
   -0.2211    4.1757    1.8170 H   0  0  0  0  0  0  0  0  0  0  0  0
    0.0629    5.8307    1.0601 H   0  0  0  0  0  0  0  0  0  0  0  0
    0.6016    4.0260   -0.4464 H   0  0  0  0  0  0  0  0  0  0  0  0
    4.4727    1.5114   -0.6495 H   0  0  0  0  0  0  0  0  0  0  0  0
    5.5792   -0.0742   -1.1440 H   0  0  0  0  0  0  0  0  0  0  0  0
    5.8842   -0.7774    0.4594 H   0  0  0  0  0  0  0  0  0  0  0  0
    6.8644   -2.0521   -1.5546 H   0  0  0  0  0  0  0  0  0  0  0  0
    5.1597   -2.4133   -2.0290 H   0  0  0  0  0  0  0  0  0  0  0  0
    4.3057   -4.2900    0.6582 H   0  0  0  0  0  0  0  0  0  0  0  0
    4.8780   -2.8757    1.5532 H   0  0  0  0  0  0  0  0  0  0  0  0
    2.6500   -2.5137    0.6682 H   0  0  0  0  0  0  0  0  0  0  0  0
    3.1891   -2.9620   -1.0212 H   0  0  0  0  0  0  0  0  0  0  0  0
   -1.4656    0.0211   -1.9411 H   0  0  0  0  0  0  0  0  0  0  0  0
   -3.2144   -0.0708   -1.6193 H   0  0  0  0  0  0  0  0  0  0  0  0
   -2.4756   -1.3950   -2.5566 H   0  0  0  0  0  0  0  0  0  0  0  0
   -1.9901   -3.4119    1.3737 H   0  0  0  0  0  0  0  0  0  0  0  0
   -5.7253   -5.1600    0.4290 H   0  0  0  0  0  0  0  0  0  0  0  0
   -4.3176   -1.7613   -1.7665 H   0  0  0  0  0  0  0  0  0  0  0  0
  1  2  1  0
  2  3  1  0
  3  4  2  0
  4  5  1  0
  5  6  1  0
  6  7  2  0
  6  8  1  0
  8  9  1  0
  8 10  1  0
  5 11  2  0
 11 12  1  0
 12 13  1  0
 13 14  2  0
 13 15  1  0
 15 16  2  0
 16 17  1  0
 17 18  1  0
 18 19  1  0
 19 20  1  0
 20 21  1  0
 21 22  1  0
 16 23  1  0
 23 24  1  0
  2 25  1  0
 25 26  1  0
 25 27  1  0
 27 28  2  0
 28 29  1  0
 29 30  1  0
 29 31  2  0
 31 32  1  0
 32 33  1  0
 32 34  2  0
 24  3  1  0
 34 27  1  0
 24 12  2  0
 22 17  1  0
  1 35  1  0
  1 36  1  0
  1 37  1  0
  2 38  1  6
  4 39  1  0
  9 40  1  0
  9 41  1  0
  9 42  1  0
 10 43  1  0
 10 44  1  0
 10 45  1  0
 11 46  1  0
 15 47  1  0
 18 48  1  0
 18 49  1  0
 19 50  1  0
 19 51  1  0
 21 52  1  0
 21 53  1  0
 22 54  1  0
 22 55  1  0
 26 56  1  0
 26 57  1  0
 26 58  1  0
 28 59  1  0
 31 60  1  0
 34 61  1  0
M  END
$$$$
