@<TRIPOS>MOLECULE
*****
 48 50 0 0 0
SMALL
GASTEIGER

@<TRIPOS>ATOM
      1 O          -8.8116    0.7659   -0.3884 O.2     1  UNL1       -0.2451
      2 C          -8.1512   -0.2969   -0.2426 C.2     1  UNL1        0.3368
      3 O          -8.8663   -1.4708   -0.1571 O.3     1  UNL1       -0.4771
      4 C          -6.6996   -0.2357   -0.1732 C.ar    1  UNL1        0.0591
      5 C          -6.0428    0.9669   -0.2611 C.ar    1  UNL1       -0.0443
      6 C          -4.6519    1.0422   -0.1990 C.ar    1  UNL1       -0.0192
      7 C          -3.9095   -0.1009   -0.0469 C.ar    1  UNL1        0.1209
      8 O          -2.5497   -0.0607    0.0170 O.3     1  UNL1       -0.4887
      9 C          -1.6974    1.0309   -0.0477 C.3     1  UNL1        0.1031
     10 C          -0.8236    0.9716   -1.3015 C.3     1  UNL1        0.0002
     11 C           0.5729    1.3796   -0.9700 C.3     1  UNL1        0.0195
     12 N           1.1131    0.3533   -0.0795 N.am    1  UNL1       -0.2854
     13 C           2.3518   -0.2824   -0.3641 C.2     1  UNL1        0.3025
     14 O           3.0198    0.0242   -1.4106 O.2     1  UNL1       -0.2526
     15 N           2.9258   -1.2757    0.4643 N.am    1  UNL1       -0.2951
     16 C           4.1808   -1.9182    0.1689 C.3     1  UNL1        0.0397
     17 C           5.3288   -0.9880    0.0719 C.ar    1  UNL1       -0.0119
     18 C           5.8666   -0.6411   -1.1446 C.ar    1  UNL1       -0.0543
     19 C           6.9346    0.2248   -1.1877 C.ar    1  UNL1       -0.0430
     20 C           7.5017    0.7710   -0.0505 C.ar    1  UNL1        0.0424
     21 CL          8.8758    1.8803   -0.1728 Cl      1  UNL1       -0.0835
     22 C           6.9545    0.4157    1.1584 C.ar    1  UNL1       -0.0247
     23 C           5.8887   -0.4478    1.2082 C.ar    1  UNL1        0.0470
     24 CL          5.1793   -0.9100    2.7517 Cl      1  UNL1       -0.0832
     25 C           0.3128    0.0374    1.0764 C.3     1  UNL1        0.0195
     26 C          -0.8135    1.0134    1.1677 C.3     1  UNL1        0.0002
     27 C          -4.5772   -1.3362    0.0440 C.ar    1  UNL1       -0.0192
     28 C          -5.9496   -1.3828   -0.0201 C.ar    1  UNL1       -0.0443
     29 H          -9.7700   -1.6014   -0.6122 H       1  UNL1        0.2954
     30 H          -6.6042    1.8872   -0.3818 H       1  UNL1        0.0627
     31 H          -4.2136    2.0038   -0.2744 H       1  UNL1        0.0654
     32 H          -2.2548    1.9844   -0.1246 H       1  UNL1        0.0734
     33 H          -1.2891    1.5539   -2.1139 H       1  UNL1        0.0316
     34 H          -0.8674   -0.0988   -1.6532 H       1  UNL1        0.0316
     35 H           1.1662    1.4021   -1.9186 H       1  UNL1        0.0466
     36 H           0.5560    2.3748   -0.4985 H       1  UNL1        0.0466
     37 H           2.3762   -1.5349    1.3387 H       1  UNL1        0.1506
     38 H           4.4452   -2.6944    0.9131 H       1  UNL1        0.0512
     39 H           4.0520   -2.4507   -0.8128 H       1  UNL1        0.0512
     40 H           5.4503   -1.0509   -2.0672 H       1  UNL1        0.0622
     41 H           7.3568    0.4960   -2.1660 H       1  UNL1        0.0632
     42 H           7.3547    0.8086    2.0653 H       1  UNL1        0.0647
     43 H           0.0036   -1.0144    1.1184 H       1  UNL1        0.0466
     44 H           0.9505    0.1961    1.9937 H       1  UNL1        0.0466
     45 H          -0.3714    2.0363    1.2773 H       1  UNL1        0.0316
     46 H          -1.3905    0.7631    2.0921 H       1  UNL1        0.0316
     47 H          -3.9637   -2.2312    0.1648 H       1  UNL1        0.0654
     48 H          -6.4498   -2.3597    0.0532 H       1  UNL1        0.0627
@<TRIPOS>BOND
     1     1     2    2
     2     2     3    1
     3     2     4    1
     4     4     5   ar
     5     5     6   ar
     6     6     7   ar
     7     7     8    1
     8     8     9    1
     9     9    10    1
    10    10    11    1
    11    11    12    1
    12    12    13   am
    13    13    14    2
    14    13    15   am
    15    15    16    1
    16    16    17    1
    17    17    18   ar
    18    18    19   ar
    19    19    20   ar
    20    20    21    1
    21    20    22   ar
    22    22    23   ar
    23    23    24    1
    24    12    25    1
    25    25    26    1
    26     7    27   ar
    27    27    28   ar
    28    28     4   ar
    29    26     9    1
    30    23    17   ar
    31     3    29    1
    32     5    30    1
    33     6    31    1
    34     9    32    1
    35    10    33    1
    36    10    34    1
    37    11    35    1
    38    11    36    1
    39    15    37    1
    40    16    38    1
    41    16    39    1
    42    18    40    1
    43    19    41    1
    44    22    42    1
    45    25    43    1
    46    25    44    1
    47    26    45    1
    48    26    46    1
    49    27    47    1
    50    28    48    1
