@<TRIPOS>MOLECULE
*****
 59 63 0 0 0
SMALL
GASTEIGER

@<TRIPOS>ATOM
      1 O          -2.6234    1.4581   -3.6052 O.2     1  UNL1       -0.2699
      2 C          -2.5444    1.1340   -2.3973 C.2     1  UNL1        0.2483
      3 N          -3.7247    0.9743   -1.6539 N.am    1  UNL1       -0.2785
      4 C          -5.0550    1.1431   -2.1020 C.ar    1  UNL1        0.0772
      5 C          -5.4187    1.4568   -3.3893 C.ar    1  UNL1       -0.0368
      6 C          -6.7705    1.6251   -3.7211 C.ar    1  UNL1       -0.0591
      7 C          -7.7653    1.4837   -2.7809 C.ar    1  UNL1       -0.0473
      8 C          -7.4072    1.1705   -1.4928 C.ar    1  UNL1        0.0658
      9 C          -8.3610    1.0141   -0.4813 C.ar    1  UNL1        0.1932
     10 O          -9.5530    1.1639   -0.7740 O.2     1  UNL1       -0.2870
     11 C          -7.8899    0.7024    0.7704 C.ar    1  UNL1        0.0319
     12 C          -6.5682    0.5375    1.0833 C.ar    1  UNL1        0.1774
     13 C          -6.0578    0.2054    2.4174 C.ar    1  UNL1        0.2149
     14 N          -4.7540   -0.0132    2.7370 N.ar    1  UNL1       -0.1052
     15 N          -4.7353   -0.2906    4.0495 N.ar    1  UNL1       -0.0228
     16 N          -5.9332   -0.2584    4.5536 N.ar    1  UNL1       -0.0463
     17 N          -6.7447    0.0517    3.5257 N.ar    1  UNL1       -0.2363
     18 O          -5.7165    0.7004    0.0815 O.2     1  UNL1       -0.4496
     19 C          -6.0739    0.9986   -1.1417 C.ar    1  UNL1        0.1605
     20 C          -1.2025    0.9431   -1.8322 C.ar    1  UNL1        0.0373
     21 C          -0.1220    1.1770   -2.6537 C.ar    1  UNL1       -0.0462
     22 C           1.1793    1.0536   -2.2508 C.ar    1  UNL1       -0.0192
     23 C           1.4492    0.6673   -0.9287 C.ar    1  UNL1        0.1205
     24 O           2.7591    0.5577   -0.5638 O.3     1  UNL1       -0.4920
     25 C           3.3037    0.2051    0.6638 C.3     1  UNL1        0.0896
     26 C           4.8229    0.2467    0.6303 C.3     1  UNL1       -0.0183
     27 C           5.3291   -0.7171   -0.4023 C.3     1  UNL1       -0.0460
     28 C           6.8474   -0.6724   -0.4801 C.3     1  UNL1       -0.0276
     29 C           7.4500   -1.0442    0.8200 C.ar    1  UNL1       -0.0474
     30 C           7.7654   -2.3490    1.0970 C.ar    1  UNL1       -0.0586
     31 C           8.3373   -2.7344    2.2943 C.ar    1  UNL1       -0.0615
     32 C           8.5935   -1.7763    3.2320 C.ar    1  UNL1       -0.0617
     33 C           8.2860   -0.4712    2.9775 C.ar    1  UNL1       -0.0615
     34 C           7.7190   -0.0945    1.7855 C.ar    1  UNL1       -0.0586
     35 C           0.3730    0.4330   -0.1082 C.ar    1  UNL1       -0.0192
     36 C          -0.9488    0.5678   -0.5493 C.ar    1  UNL1       -0.0462
     37 H          -3.5915    0.6885   -0.6357 H       1  UNL1        0.1552
     38 H          -4.6778    1.5774   -4.1664 H       1  UNL1        0.0637
     39 H          -7.0419    1.8692   -4.7229 H       1  UNL1        0.0618
     40 H          -8.8040    1.6100   -3.0022 H       1  UNL1        0.0626
     41 H          -8.6284    0.5820    1.5640 H       1  UNL1        0.0694
     42 H          -7.7643    0.1318    3.6936 H       1  UNL1        0.1924
     43 H          -0.2664    1.4851   -3.7032 H       1  UNL1        0.0626
     44 H           2.0240    1.2396   -2.8968 H       1  UNL1        0.0654
     45 H           2.9391    0.9004    1.4448 H       1  UNL1        0.0696
     46 H           3.0094   -0.8302    0.9485 H       1  UNL1        0.0696
     47 H           5.1674   -0.1086    1.6301 H       1  UNL1        0.0298
     48 H           5.2158    1.2629    0.4494 H       1  UNL1        0.0298
     49 H           4.8583   -0.5493   -1.3725 H       1  UNL1        0.0269
     50 H           5.0340   -1.7480   -0.0619 H       1  UNL1        0.0269
     51 H           7.1103    0.3766   -0.7567 H       1  UNL1        0.0313
     52 H           7.2074   -1.3815   -1.2672 H       1  UNL1        0.0313
     53 H           7.5551   -3.1079    0.3354 H       1  UNL1        0.0620
     54 H           8.5893   -3.7759    2.5073 H       1  UNL1        0.0618
     55 H           9.0443   -2.0797    4.1791 H       1  UNL1        0.0618
     56 H           8.5064    0.2585    3.7457 H       1  UNL1        0.0618
     57 H           7.4953    0.9670    1.6375 H       1  UNL1        0.0620
     58 H           0.5474    0.1303    0.9154 H       1  UNL1        0.0654
     59 H          -1.7742    0.3768    0.1245 H       1  UNL1        0.0626
@<TRIPOS>BOND
     1     1     2    2
     2     2     3   am
     3     3     4    1
     4     4     5   ar
     5     5     6   ar
     6     6     7   ar
     7     7     8   ar
     8     8     9   ar
     9     9    10    2
    10     9    11   ar
    11    11    12   ar
    12    12    13    1
    13    13    14   ar
    14    14    15   ar
    15    15    16   ar
    16    16    17   ar
    17    12    18   ar
    18    18    19   ar
    19     2    20    1
    20    20    21   ar
    21    21    22   ar
    22    22    23   ar
    23    23    24    1
    24    24    25    1
    25    25    26    1
    26    26    27    1
    27    27    28    1
    28    28    29    1
    29    29    30   ar
    30    30    31   ar
    31    31    32   ar
    32    32    33   ar
    33    33    34   ar
    34    23    35   ar
    35    35    36   ar
    36    19     4   ar
    37    36    20   ar
    38    19     8   ar
    39    34    29   ar
    40    17    13   ar
    41     3    37    1
    42     5    38    1
    43     6    39    1
    44     7    40    1
    45    11    41    1
    46    17    42    1
    47    21    43    1
    48    22    44    1
    49    25    45    1
    50    25    46    1
    51    26    47    1
    52    26    48    1
    53    27    49    1
    54    27    50    1
    55    28    51    1
    56    28    52    1
    57    30    53    1
    58    31    54    1
    59    32    55    1
    60    33    56    1
    61    34    57    1
    62    35    58    1
    63    36    59    1
