@<TRIPOS>MOLECULE
*****
 72 76 0 0 0
SMALL
GASTEIGER

@<TRIPOS>ATOM
      1 C           2.3237   -0.7970   -2.0550 C.3     1  UNL1        0.0135
      2 N           1.6605   -1.6920   -1.2252 N.ar    1  UNL1       -0.3304
      3 C           0.4073   -2.4034   -1.4773 C.ar    1  UNL1        0.0387
      4 C          -0.3394   -1.9670   -2.7122 C.3     1  UNL1        0.0642
      5 N          -1.3697   -1.0278   -2.4368 N.am    1  UNL1       -0.2185
      6 C          -1.1297    0.4938   -2.3437 C.2     1  UNL1        0.2412
      7 O          -0.3070    0.9812   -2.8555 O.2     1  UNL1       -0.2734
      8 C          -2.3475    0.7480   -1.4300 C.3     1  UNL1        0.0982
      9 N          -3.4004   -0.1542   -1.9840 N.am    1  UNL1       -0.2462
     10 C          -4.7213    0.2070   -2.0146 C.ar    1  UNL1        0.0385
     11 C          -5.4588    0.0969   -0.8043 C.ar    1  UNL1       -0.0367
     12 C          -6.6724    0.4033   -0.6134 C.ar    1  UNL1       -0.0176
     13 C          -7.5961    0.9497   -1.6005 C.ar    1  UNL1        0.1286
     14 O          -8.7544    1.1675   -1.2005 O.3     1  UNL1       -0.4560
     15 C          -9.3409    1.0123    0.0860 C.ar    1  UNL1        0.1284
     16 C          -9.2399    2.3456    0.6416 C.ar    1  UNL1       -0.0193
     17 C          -9.6893    2.6685    1.8993 C.ar    1  UNL1       -0.0583
     18 C         -10.2322    1.5984    2.5166 C.ar    1  UNL1       -0.0615
     19 C         -10.3797    0.2976    2.0980 C.ar    1  UNL1       -0.0583
     20 C          -9.8682    0.0294    0.7264 C.ar    1  UNL1       -0.0193
     21 C          -6.8592    1.0698   -2.8194 C.ar    1  UNL1       -0.0176
     22 C          -5.5563    0.7432   -3.0367 C.ar    1  UNL1       -0.0367
     23 C          -2.7257   -1.3596   -2.2287 C.2     1  UNL1        0.3162
     24 O          -3.1729   -2.5896   -2.2813 O.2     1  UNL1       -0.2516
     25 C           0.2798   -3.1596   -0.4987 C.ar    1  UNL1       -0.0286
     26 C           1.3238   -3.0668    0.4811 C.ar    1  UNL1        0.0373
     27 C           1.3528   -3.7231    1.7979 C.ar    1  UNL1        0.0408
     28 N           2.4661   -3.1569    2.4881 N.ar    1  UNL1       -0.2311
     29 C           3.2941   -2.1698    1.9360 C.ar    1  UNL1        0.2176
     30 C           4.4141   -1.5033    2.6580 C.2     1  UNL1        0.2823
     31 O           4.5081   -2.0289    3.9327 O.2     1  UNL1       -0.2668
     32 N           5.1540   -0.5965    2.1302 N.am    1  UNL1       -0.2933
     33 C           6.2644    0.2118    2.4225 C.3     1  UNL1        0.1105
     34 C           5.9670    1.6461    2.2422 C.1     1  UNL1        0.0849
     35 N           5.6780    3.0254    2.0722 N.1     1  UNL1       -0.1946
     36 C           7.5189   -0.2233    1.8634 C.3     1  UNL1       -0.0212
     37 C           8.7519    0.5449    2.0366 C.3     1  UNL1       -0.0493
     38 C           9.0497    1.8391    1.3910 C.3     1  UNL1       -0.0406
     39 C           9.1860    1.6728   -0.1262 C.3     1  UNL1       -0.0069
     40 N           7.9593    1.1700   -0.6726 N.3     1  UNL1       -0.3300
     41 N           3.0835   -1.7163    0.6977 N.ar    1  UNL1       -0.2054
     42 C           1.9893   -2.2759    0.0095 C.ar    1  UNL1        0.1447
     43 H           3.1305   -1.4178   -2.6348 H       1  UNL1        0.0456
     44 H           1.7393   -0.3790   -2.8797 H       1  UNL1        0.0456
     45 H           2.8501   -0.0001   -1.5175 H       1  UNL1        0.0456
     46 H           0.3741   -1.6132   -3.4455 H       1  UNL1        0.0534
     47 H          -0.8045   -2.9121   -3.1091 H       1  UNL1        0.0534
     48 H          -2.1584    0.4334   -0.4068 H       1  UNL1        0.0565
     49 H          -2.6900    1.7901   -1.5986 H       1  UNL1        0.0565
     50 H          -4.8329   -0.3297    0.0288 H       1  UNL1        0.0637
     51 H          -7.1753    0.2788    0.3964 H       1  UNL1        0.0655
     52 H          -8.7898    3.1552    0.0413 H       1  UNL1        0.0654
     53 H          -9.6435    3.6389    2.3139 H       1  UNL1        0.0619
     54 H         -10.6371    1.8187    3.5581 H       1  UNL1        0.0618
     55 H         -10.8138   -0.4917    2.5895 H       1  UNL1        0.0619
     56 H          -9.9356   -0.9555    0.3996 H       1  UNL1        0.0654
     57 H          -7.4702    1.4697   -3.6386 H       1  UNL1        0.0655
     58 H          -5.0532    0.8709   -3.9966 H       1  UNL1        0.0637
     59 H          -0.5780   -3.8871   -0.2305 H       1  UNL1        0.0643
     60 H           0.7322   -4.4055    2.1082 H       1  UNL1        0.0837
     61 H           4.8180   -0.2903    1.0256 H       1  UNL1        0.1504
     62 H           6.3392    0.2147    3.5943 H       1  UNL1        0.0657
     63 H           7.3979   -0.3876    0.7217 H       1  UNL1        0.0293
     64 H           7.7143   -1.3109    2.1728 H       1  UNL1        0.0293
     65 H           8.9302    0.7409    3.1665 H       1  UNL1        0.0267
     66 H           9.6292   -0.1784    1.8354 H       1  UNL1        0.0267
     67 H          10.0619    2.2134    1.7734 H       1  UNL1        0.0277
     68 H           8.3303    2.6477    1.5616 H       1  UNL1        0.0277
     69 H          10.0206    0.9690   -0.3301 H       1  UNL1        0.0422
     70 H           9.4339    2.6624   -0.6113 H       1  UNL1        0.0422
     71 H           7.4898    1.9667   -1.2135 H       1  UNL1        0.1182
     72 H           8.1198    0.3785   -1.3849 H       1  UNL1        0.1182
@<TRIPOS>BOND
     1     1     2    1
     2     2     3   ar
     3     3     4    1
     4     4     5    1
     5     5     6   am
     6     6     7    2
     7     6     8    1
     8     8     9    1
     9     9    10    1
    10    10    11   ar
    11    11    12   ar
    12    12    13   ar
    13    13    14    1
    14    14    15    1
    15    15    16   ar
    16    16    17   ar
    17    17    18   ar
    18    18    19   ar
    19    19    20   ar
    20    13    21   ar
    21    21    22   ar
    22     9    23   am
    23    23    24    2
    24     3    25   ar
    25    25    26   ar
    26    26    27   ar
    27    27    28   ar
    28    28    29   ar
    29    29    30    1
    30    30    31    2
    31    30    32   am
    32    32    33    1
    33    33    34    1
    34    34    35    3
    35    33    36    1
    36    36    37    1
    37    37    38    1
    38    38    39    1
    39    39    40    1
    40    29    41   ar
    41    41    42   ar
    42    42     2   ar
    43    23     5   am
    44    42    26   ar
    45    22    10   ar
    46    20    15   ar
    47     1    43    1
    48     1    44    1
    49     1    45    1
    50     4    46    1
    51     4    47    1
    52     8    48    1
    53     8    49    1
    54    11    50    1
    55    12    51    1
    56    16    52    1
    57    17    53    1
    58    18    54    1
    59    19    55    1
    60    20    56    1
    61    21    57    1
    62    22    58    1
    63    25    59    1
    64    27    60    1
    65    32    61    1
    66    33    62    1
    67    36    63    1
    68    36    64    1
    69    37    65    1
    70    37    66    1
    71    38    67    1
    72    38    68    1
    73    39    69    1
    74    39    70    1
    75    40    71    1
    76    40    72    1
