
     RDKit          3D

 53 56  0  0  0  0  0  0  0  0999 V2000
   -3.4282    4.2860   -3.2732 C   0  0  0  0  0  0  0  0  0  0  0  0
   -2.6204    3.1422   -3.4428 O   0  0  0  0  0  0  0  0  0  0  0  0
   -2.6624    2.1210   -2.4743 C   0  0  0  0  0  0  0  0  0  0  0  0
   -3.4846    2.2502   -1.3826 C   0  0  0  0  0  0  0  0  0  0  0  0
   -3.5195    1.2251   -0.4210 C   0  0  0  0  0  0  0  0  0  0  0  0
   -4.3721    1.4494    0.6308 O   0  0  0  0  0  0  0  0  0  0  0  0
   -4.5351    0.5435    1.6742 C   0  0  0  0  0  0  0  0  0  0  0  0
   -4.1778    1.1608    3.0227 C   0  0  0  0  0  0  0  0  0  0  0  0
   -5.9848    0.0667    1.7877 C   0  0  0  0  0  0  0  0  0  0  0  0
   -2.7222    0.1301   -0.6183 C   0  0  0  0  0  0  0  0  0  0  0  0
   -1.8875   -0.0071   -1.7213 C   0  0  0  0  0  0  0  0  0  0  0  0
   -0.9141   -1.4434   -1.8741 S   0  0  0  0  0  6  0  0  0  0  0  0
   -0.8092   -1.7788   -3.3288 O   0  0  0  0  0  0  0  0  0  0  0  0
   -1.6391   -2.5852   -1.1993 O   0  0  0  0  0  0  0  0  0  0  0  0
    0.6441   -1.2588   -1.1180 C   0  0  0  0  0  0  0  0  0  0  0  0
    1.6630   -0.7613   -1.9245 C   0  0  0  0  0  0  0  0  0  0  0  0
    2.9389   -0.5737   -1.4316 C   0  0  0  0  0  0  0  0  0  0  0  0
    3.1550   -0.9007   -0.1098 C   0  0  0  0  0  0  0  0  0  0  0  0
    2.1690   -1.3955    0.7169 C   0  0  0  0  0  0  0  0  0  0  0  0
    0.9069   -1.5671    0.1811 C   0  0  0  0  0  0  0  0  0  0  0  0
    2.6872   -1.6296    1.9883 O   0  0  0  0  0  0  0  0  0  0  0  0
    3.7950   -0.7285    2.1139 C   0  0  1  0  0  0  0  0  0  0  0  0
    4.8019   -1.1906    3.1126 C   0  0  0  0  0  0  0  0  0  0  0  0
    6.1697   -1.0864    2.5939 N   0  0  0  0  0  0  0  0  0  0  0  0
    6.3850   -1.9786    1.4899 C   0  0  0  0  0  0  0  0  0  0  0  0
    5.1519   -2.1332    0.6305 C   0  0  0  0  0  0  0  0  0  0  0  0
    4.3807   -0.8223    0.7148 C   0  0  1  0  0  0  0  0  0  0  0  0
   -1.8586    1.0007   -2.6588 C   0  0  0  0  0  0  0  0  0  0  0  0
   -3.1926    4.6706   -2.2374 H   0  0  0  0  0  0  0  0  0  0  0  0
   -4.5082    4.0274   -3.2639 H   0  0  0  0  0  0  0  0  0  0  0  0
   -3.1774    5.0992   -3.9548 H   0  0  0  0  0  0  0  0  0  0  0  0
   -4.1160    3.1437   -1.2498 H   0  0  0  0  0  0  0  0  0  0  0  0
   -3.9363   -0.3804    1.6164 H   0  0  0  0  0  0  0  0  0  0  0  0
   -4.6574    0.5251    3.7905 H   0  0  0  0  0  0  0  0  0  0  0  0
   -4.6146    2.1661    3.1211 H   0  0  0  0  0  0  0  0  0  0  0  0
   -3.0878    1.1206    3.1994 H   0  0  0  0  0  0  0  0  0  0  0  0
   -6.5712    0.8828    2.2400 H   0  0  0  0  0  0  0  0  0  0  0  0
   -6.3685   -0.2995    0.8299 H   0  0  0  0  0  0  0  0  0  0  0  0
   -5.9748   -0.7764    2.4978 H   0  0  0  0  0  0  0  0  0  0  0  0
   -2.7391   -0.6721    0.1187 H   0  0  0  0  0  0  0  0  0  0  0  0
    1.4951   -0.5043   -2.9619 H   0  0  0  0  0  0  0  0  0  0  0  0
    3.7491   -0.1943   -2.0174 H   0  0  0  0  0  0  0  0  0  0  0  0
    0.0995   -1.9513    0.7858 H   0  0  0  0  0  0  0  0  0  0  0  0
    3.4436    0.2997    2.2616 H   0  0  0  0  0  0  0  0  0  0  0  0
    4.5992   -2.1929    3.5373 H   0  0  0  0  0  0  0  0  0  0  0  0
    4.7699   -0.4738    3.9755 H   0  0  0  0  0  0  0  0  0  0  0  0
    6.8196   -1.2883    3.3655 H   0  0  0  0  0  0  0  0  0  0  0  0
    6.7910   -2.9633    1.8006 H   0  0  0  0  0  0  0  0  0  0  0  0
    7.1738   -1.5177    0.8288 H   0  0  0  0  0  0  0  0  0  0  0  0
    5.4567   -2.2597   -0.4383 H   0  0  0  0  0  0  0  0  0  0  0  0
    4.5135   -2.9755    0.9504 H   0  0  0  0  0  0  0  0  0  0  0  0
    5.0355    0.0154    0.4728 H   0  0  0  0  0  0  0  0  0  0  0  0
   -1.2354    0.9643   -3.5408 H   0  0  0  0  0  0  0  0  0  0  0  0
  1  2  1  0
  2  3  1  0
  3  4  2  0
  4  5  1  0
  5  6  1  0
  6  7  1  0
  7  8  1  0
  7  9  1  0
  5 10  2  0
 10 11  1  0
 11 12  1  0
 12 13  2  0
 12 14  2  0
 12 15  1  0
 15 16  2  0
 16 17  1  0
 17 18  2  0
 18 19  1  0
 19 20  2  0
 19 21  1  0
 21 22  1  0
 22 23  1  0
 23 24  1  0
 24 25  1  0
 25 26  1  0
 26 27  1  0
 11 28  2  0
 28  3  1  0
 20 15  1  0
 27 22  1  0
 27 18  1  0
  1 29  1  0
  1 30  1  0
  1 31  1  0
  4 32  1  0
  7 33  1  0
  8 34  1  0
  8 35  1  0
  8 36  1  0
  9 37  1  0
  9 38  1  0
  9 39  1  0
 10 40  1  0
 16 41  1  0
 17 42  1  0
 20 43  1  0
 22 44  1  1
 23 45  1  0
 23 46  1  0
 24 47  1  0
 25 48  1  0
 25 49  1  0
 26 50  1  0
 26 51  1  0
 27 52  1  6
 28 53  1  0
M  END
$$$$
