@<TRIPOS>MOLECULE
*****
 53 56 0 0 0
SMALL
GASTEIGER

@<TRIPOS>ATOM
      1 C          -3.4282    4.2860   -3.2732 C.3     1  UNL1        0.0788
      2 O          -2.6204    3.1422   -3.4428 O.3     1  UNL1       -0.4949
      3 C          -2.6624    2.1210   -2.4743 C.ar    1  UNL1        0.1254
      4 C          -3.4846    2.2502   -1.3826 C.ar    1  UNL1        0.0219
      5 C          -3.5195    1.2251   -0.4210 C.ar    1  UNL1        0.1262
      6 O          -4.3721    1.4494    0.6308 O.3     1  UNL1       -0.4892
      7 C          -4.5351    0.5435    1.6742 C.3     1  UNL1        0.0946
      8 C          -4.1778    1.1608    3.0227 C.3     1  UNL1       -0.0281
      9 C          -5.9848    0.0667    1.7877 C.3     1  UNL1       -0.0281
     10 C          -2.7222    0.1301   -0.6183 C.ar    1  UNL1        0.0055
     11 C          -1.8875   -0.0071   -1.7213 C.ar    1  UNL1        0.1005
     12 S          -0.9141   -1.4434   -1.8741 S.O2    1  UNL1        0.0254
     13 O          -0.8092   -1.7788   -3.3288 O.2     1  UNL1       -0.1643
     14 O          -1.6391   -2.5852   -1.1993 O.2     1  UNL1       -0.1643
     15 C           0.6441   -1.2588   -1.1180 C.ar    1  UNL1        0.0970
     16 C           1.6630   -0.7613   -1.9245 C.ar    1  UNL1       -0.0360
     17 C           2.9389   -0.5737   -1.4316 C.ar    1  UNL1       -0.0529
     18 C           3.1550   -0.9007   -0.1098 C.ar    1  UNL1        0.0011
     19 C           2.1690   -1.3955    0.7169 C.ar    1  UNL1        0.1264
     20 C           0.9069   -1.5671    0.1811 C.ar    1  UNL1        0.0056
     21 O           2.6872   -1.6296    1.9883 O.3     1  UNL1       -0.4866
     22 C           3.7950   -0.7285    2.1139 C.3     1  UNL1        0.1195
     23 C           4.8019   -1.1906    3.1126 C.3     1  UNL1        0.0336
     24 N           6.1697   -1.0864    2.5939 N.3     1  UNL1       -0.3125
     25 C           6.3850   -1.9786    1.4899 C.3     1  UNL1       -0.0033
     26 C           5.1519   -2.1332    0.6305 C.3     1  UNL1       -0.0301
     27 C           4.3807   -0.8223    0.7148 C.3     1  UNL1        0.0270
     28 C          -1.8586    1.0007   -2.6588 C.ar    1  UNL1        0.0055
     29 H          -3.1926    4.6706   -2.2374 H       1  UNL1        0.0660
     30 H          -4.5082    4.0274   -3.2639 H       1  UNL1        0.0660
     31 H          -3.1774    5.0992   -3.9548 H       1  UNL1        0.0660
     32 H          -4.1160    3.1437   -1.2498 H       1  UNL1        0.0691
     33 H          -3.9363   -0.3804    1.6164 H       1  UNL1        0.0727
     34 H          -4.6574    0.5251    3.7905 H       1  UNL1        0.0265
     35 H          -4.6146    2.1661    3.1211 H       1  UNL1        0.0265
     36 H          -3.0878    1.1206    3.1994 H       1  UNL1        0.0265
     37 H          -6.5712    0.8828    2.2400 H       1  UNL1        0.0265
     38 H          -6.3685   -0.2995    0.8299 H       1  UNL1        0.0265
     39 H          -5.9748   -0.7764    2.4978 H       1  UNL1        0.0265
     40 H          -2.7391   -0.6721    0.1187 H       1  UNL1        0.0673
     41 H           1.4951   -0.5043   -2.9619 H       1  UNL1        0.0637
     42 H           3.7491   -0.1943   -2.0174 H       1  UNL1        0.0622
     43 H           0.0995   -1.9513    0.7858 H       1  UNL1        0.0673
     44 H           3.4436    0.2997    2.2616 H       1  UNL1        0.0752
     45 H           4.5992   -2.1929    3.5373 H       1  UNL1        0.0460
     46 H           4.7699   -0.4738    3.9755 H       1  UNL1        0.0460
     47 H           6.8196   -1.2883    3.3655 H       1  UNL1        0.1221
     48 H           6.7910   -2.9633    1.8006 H       1  UNL1        0.0424
     49 H           7.1738   -1.5177    0.8288 H       1  UNL1        0.0424
     50 H           5.4567   -2.2597   -0.4383 H       1  UNL1        0.0284
     51 H           4.5135   -2.9755    0.9504 H       1  UNL1        0.0284
     52 H           5.0355    0.0154    0.4728 H       1  UNL1        0.0387
     53 H          -1.2354    0.9643   -3.5408 H       1  UNL1        0.0673
@<TRIPOS>BOND
     1     1     2    1
     2     2     3    1
     3     3     4   ar
     4     4     5   ar
     5     5     6    1
     6     6     7    1
     7     7     8    1
     8     7     9    1
     9     5    10   ar
    10    10    11   ar
    11    11    12    1
    12    12    13    2
    13    12    14    2
    14    12    15    1
    15    15    16   ar
    16    16    17   ar
    17    17    18   ar
    18    18    19   ar
    19    19    20   ar
    20    19    21    1
    21    21    22    1
    22    22    23    1
    23    23    24    1
    24    24    25    1
    25    25    26    1
    26    26    27    1
    27    11    28   ar
    28    28     3   ar
    29    20    15   ar
    30    27    22    1
    31    27    18    1
    32     1    29    1
    33     1    30    1
    34     1    31    1
    35     4    32    1
    36     7    33    1
    37     8    34    1
    38     8    35    1
    39     8    36    1
    40     9    37    1
    41     9    38    1
    42     9    39    1
    43    10    40    1
    44    16    41    1
    45    17    42    1
    46    20    43    1
    47    22    44    1
    48    23    45    1
    49    23    46    1
    50    24    47    1
    51    25    48    1
    52    25    49    1
    53    26    50    1
    54    26    51    1
    55    27    52    1
    56    28    53    1
