@<TRIPOS>MOLECULE
*****
 53 57 0 0 0
SMALL
GASTEIGER

@<TRIPOS>ATOM
      1 O           0.8089    1.9962    1.3019 O.2     1  UNL1       -0.2262
      2 C           0.3958    1.1232    0.4681 C.2     1  UNL1        0.4039
      3 O           1.1961    0.1494   -0.0688 O.3     1  UNL1       -0.4454
      4 C           2.5585    0.0611    0.2846 C.3     1  UNL1        0.1201
      5 C           2.9208   -1.2517    0.9459 C.3     1  UNL1        0.0364
      6 N           4.3469   -1.4794    0.7399 N.3     1  UNL1       -0.2988
      7 C           4.5933   -1.9828   -0.6097 C.3     1  UNL1       -0.0006
      8 C           3.6719   -1.1845   -1.5338 C.3     1  UNL1       -0.0339
      9 C           3.4548    0.2022   -0.9162 C.3     1  UNL1       -0.0002
     10 C           4.8176    0.6676   -0.3850 C.3     1  UNL1       -0.0339
     11 C           5.0778   -0.2083    0.8366 C.3     1  UNL1       -0.0006
     12 N          -0.9832    1.4108    0.2705 N.am    1  UNL1       -0.2560
     13 C          -1.4863    2.5412    1.0264 C.3     1  UNL1        0.0227
     14 C          -2.4819    3.2781    0.1347 C.3     1  UNL1       -0.0114
     15 C          -3.6159    2.3561   -0.1184 C.ar    1  UNL1       -0.0406
     16 C          -4.9286    2.7233   -0.0073 C.ar    1  UNL1       -0.0582
     17 C          -5.8767    1.7557   -0.2744 C.ar    1  UNL1       -0.0615
     18 C          -5.5130    0.4768   -0.6368 C.ar    1  UNL1       -0.0614
     19 C          -4.1827    0.1233   -0.7442 C.ar    1  UNL1       -0.0562
     20 C          -3.2219    1.0842   -0.4791 C.ar    1  UNL1       -0.0193
     21 C          -1.8122    0.6360   -0.6137 C.3     1  UNL1        0.0798
     22 C          -1.7124   -0.7981   -0.2065 C.ar    1  UNL1       -0.0225
     23 C          -1.5422   -1.8147   -1.1204 C.ar    1  UNL1       -0.0565
     24 C          -1.4462   -3.1485   -0.7813 C.ar    1  UNL1       -0.0614
     25 C          -1.5287   -3.4566    0.5621 C.ar    1  UNL1       -0.0617
     26 C          -1.6987   -2.5011    1.5420 C.ar    1  UNL1       -0.0614
     27 C          -1.7849   -1.1889    1.1079 C.ar    1  UNL1       -0.0565
     28 H           2.8519    0.8515    1.0144 H       1  UNL1        0.0750
     29 H           2.7650   -1.1886    2.0411 H       1  UNL1        0.0463
     30 H           2.3802   -2.1091    0.5199 H       1  UNL1        0.0463
     31 H           4.4197   -3.0762   -0.6851 H       1  UNL1        0.0427
     32 H           5.6307   -1.6926   -0.8697 H       1  UNL1        0.0427
     33 H           4.1423   -1.0822   -2.5218 H       1  UNL1        0.0281
     34 H           2.7182   -1.7107   -1.6219 H       1  UNL1        0.0281
     35 H           3.0635    0.8445   -1.7086 H       1  UNL1        0.0338
     36 H           5.6049    0.5761   -1.1320 H       1  UNL1        0.0281
     37 H           4.6498    1.6966    0.0067 H       1  UNL1        0.0281
     38 H           6.1527   -0.4824    0.8176 H       1  UNL1        0.0427
     39 H           4.8575    0.3073    1.7744 H       1  UNL1        0.0427
     40 H          -0.6922    3.2656    1.2858 H       1  UNL1        0.0469
     41 H          -2.0331    2.2266    1.9390 H       1  UNL1        0.0469
     42 H          -1.9574    3.5671   -0.7985 H       1  UNL1        0.0328
     43 H          -2.7816    4.1842    0.7003 H       1  UNL1        0.0328
     44 H          -5.0955    3.7481    0.2824 H       1  UNL1        0.0620
     45 H          -6.9146    2.0975   -0.1720 H       1  UNL1        0.0618
     46 H          -6.3892   -0.1585   -0.8107 H       1  UNL1        0.0618
     47 H          -4.0399   -0.8934   -1.0315 H       1  UNL1        0.0621
     48 H          -1.4492    0.7351   -1.6639 H       1  UNL1        0.0602
     49 H          -1.4759   -1.5785   -2.1872 H       1  UNL1        0.0621
     50 H          -1.3116   -3.9338   -1.5250 H       1  UNL1        0.0618
     51 H          -1.4504   -4.5198    0.8117 H       1  UNL1        0.0618
     52 H          -1.7554   -2.8057    2.5693 H       1  UNL1        0.0618
     53 H          -1.9175   -0.4393    1.8677 H       1  UNL1        0.0621
@<TRIPOS>BOND
     1     1     2    2
     2     2     3    1
     3     3     4    1
     4     4     5    1
     5     5     6    1
     6     6     7    1
     7     7     8    1
     8     8     9    1
     9     9    10    1
    10    10    11    1
    11     2    12   am
    12    12    13    1
    13    13    14    1
    14    14    15    1
    15    15    16   ar
    16    16    17   ar
    17    17    18   ar
    18    18    19   ar
    19    19    20   ar
    20    20    21    1
    21    21    22    1
    22    22    23   ar
    23    23    24   ar
    24    24    25   ar
    25    25    26   ar
    26    26    27   ar
    27     9     4    1
    28    21    12    1
    29    27    22   ar
    30    11     6    1
    31    20    15   ar
    32     4    28    1
    33     5    29    1
    34     5    30    1
    35     7    31    1
    36     7    32    1
    37     8    33    1
    38     8    34    1
    39     9    35    1
    40    10    36    1
    41    10    37    1
    42    11    38    1
    43    11    39    1
    44    13    40    1
    45    13    41    1
    46    14    42    1
    47    14    43    1
    48    16    44    1
    49    17    45    1
    50    18    46    1
    51    19    47    1
    52    21    48    1
    53    23    49    1
    54    24    50    1
    55    25    51    1
    56    26    52    1
    57    27    53    1
