
     RDKit          3D

 53 57  0  0  0  0  0  0  0  0999 V2000
    0.8089    1.9962    1.3019 O   0  0  0  0  0  0  0  0  0  0  0  0
    0.3958    1.1232    0.4681 C   0  0  0  0  0  0  0  0  0  0  0  0
    1.1961    0.1494   -0.0688 O   0  0  0  0  0  0  0  0  0  0  0  0
    2.5585    0.0611    0.2846 C   0  0  1  0  0  0  0  0  0  0  0  0
    2.9208   -1.2517    0.9459 C   0  0  0  0  0  0  0  0  0  0  0  0
    4.3469   -1.4794    0.7399 N   0  0  0  0  0  0  0  0  0  0  0  0
    4.5933   -1.9828   -0.6097 C   0  0  0  0  0  0  0  0  0  0  0  0
    3.6719   -1.1845   -1.5338 C   0  0  0  0  0  0  0  0  0  0  0  0
    3.4548    0.2022   -0.9162 C   0  0  0  0  0  0  0  0  0  0  0  0
    4.8176    0.6676   -0.3850 C   0  0  0  0  0  0  0  0  0  0  0  0
    5.0778   -0.2083    0.8366 C   0  0  0  0  0  0  0  0  0  0  0  0
   -0.9832    1.4108    0.2705 N   0  0  0  0  0  0  0  0  0  0  0  0
   -1.4863    2.5412    1.0264 C   0  0  0  0  0  0  0  0  0  0  0  0
   -2.4819    3.2781    0.1347 C   0  0  0  0  0  0  0  0  0  0  0  0
   -3.6159    2.3561   -0.1184 C   0  0  0  0  0  0  0  0  0  0  0  0
   -4.9286    2.7233   -0.0073 C   0  0  0  0  0  0  0  0  0  0  0  0
   -5.8767    1.7557   -0.2744 C   0  0  0  0  0  0  0  0  0  0  0  0
   -5.5130    0.4768   -0.6368 C   0  0  0  0  0  0  0  0  0  0  0  0
   -4.1827    0.1233   -0.7442 C   0  0  0  0  0  0  0  0  0  0  0  0
   -3.2219    1.0842   -0.4791 C   0  0  0  0  0  0  0  0  0  0  0  0
   -1.8122    0.6360   -0.6137 C   0  0  2  0  0  0  0  0  0  0  0  0
   -1.7124   -0.7981   -0.2065 C   0  0  0  0  0  0  0  0  0  0  0  0
   -1.5422   -1.8147   -1.1204 C   0  0  0  0  0  0  0  0  0  0  0  0
   -1.4462   -3.1485   -0.7813 C   0  0  0  0  0  0  0  0  0  0  0  0
   -1.5287   -3.4566    0.5621 C   0  0  0  0  0  0  0  0  0  0  0  0
   -1.6987   -2.5011    1.5420 C   0  0  0  0  0  0  0  0  0  0  0  0
   -1.7849   -1.1889    1.1079 C   0  0  0  0  0  0  0  0  0  0  0  0
    2.8519    0.8515    1.0144 H   0  0  0  0  0  0  0  0  0  0  0  0
    2.7650   -1.1886    2.0411 H   0  0  0  0  0  0  0  0  0  0  0  0
    2.3802   -2.1091    0.5199 H   0  0  0  0  0  0  0  0  0  0  0  0
    4.4197   -3.0762   -0.6851 H   0  0  0  0  0  0  0  0  0  0  0  0
    5.6307   -1.6926   -0.8697 H   0  0  0  0  0  0  0  0  0  0  0  0
    4.1423   -1.0822   -2.5218 H   0  0  0  0  0  0  0  0  0  0  0  0
    2.7182   -1.7107   -1.6219 H   0  0  0  0  0  0  0  0  0  0  0  0
    3.0635    0.8445   -1.7086 H   0  0  0  0  0  0  0  0  0  0  0  0
    5.6049    0.5761   -1.1320 H   0  0  0  0  0  0  0  0  0  0  0  0
    4.6498    1.6966    0.0067 H   0  0  0  0  0  0  0  0  0  0  0  0
    6.1527   -0.4824    0.8176 H   0  0  0  0  0  0  0  0  0  0  0  0
    4.8575    0.3073    1.7744 H   0  0  0  0  0  0  0  0  0  0  0  0
   -0.6922    3.2656    1.2858 H   0  0  0  0  0  0  0  0  0  0  0  0
   -2.0331    2.2266    1.9390 H   0  0  0  0  0  0  0  0  0  0  0  0
   -1.9574    3.5671   -0.7985 H   0  0  0  0  0  0  0  0  0  0  0  0
   -2.7816    4.1842    0.7003 H   0  0  0  0  0  0  0  0  0  0  0  0
   -5.0955    3.7481    0.2824 H   0  0  0  0  0  0  0  0  0  0  0  0
   -6.9146    2.0975   -0.1720 H   0  0  0  0  0  0  0  0  0  0  0  0
   -6.3892   -0.1585   -0.8107 H   0  0  0  0  0  0  0  0  0  0  0  0
   -4.0399   -0.8934   -1.0315 H   0  0  0  0  0  0  0  0  0  0  0  0
   -1.4492    0.7351   -1.6639 H   0  0  0  0  0  0  0  0  0  0  0  0
   -1.4759   -1.5785   -2.1872 H   0  0  0  0  0  0  0  0  0  0  0  0
   -1.3116   -3.9338   -1.5250 H   0  0  0  0  0  0  0  0  0  0  0  0
   -1.4504   -4.5198    0.8117 H   0  0  0  0  0  0  0  0  0  0  0  0
   -1.7554   -2.8057    2.5693 H   0  0  0  0  0  0  0  0  0  0  0  0
   -1.9175   -0.4393    1.8677 H   0  0  0  0  0  0  0  0  0  0  0  0
  1  2  2  0
  2  3  1  0
  3  4  1  0
  4  5  1  0
  5  6  1  0
  6  7  1  0
  7  8  1  0
  8  9  1  0
  9 10  1  0
 10 11  1  0
  2 12  1  0
 12 13  1  0
 13 14  1  0
 14 15  1  0
 15 16  2  0
 16 17  1  0
 17 18  2  0
 18 19  1  0
 19 20  2  0
 20 21  1  0
 21 22  1  0
 22 23  2  0
 23 24  1  0
 24 25  2  0
 25 26  1  0
 26 27  2  0
  9  4  1  0
 21 12  1  0
 27 22  1  0
 11  6  1  0
 20 15  1  0
  4 28  1  1
  5 29  1  0
  5 30  1  0
  7 31  1  0
  7 32  1  0
  8 33  1  0
  8 34  1  0
  9 35  1  0
 10 36  1  0
 10 37  1  0
 11 38  1  0
 11 39  1  0
 13 40  1  0
 13 41  1  0
 14 42  1  0
 14 43  1  0
 16 44  1  0
 17 45  1  0
 18 46  1  0
 19 47  1  0
 21 48  1  6
 23 49  1  0
 24 50  1  0
 25 51  1  0
 26 52  1  0
 27 53  1  0
M  END
$$$$
