@<TRIPOS>MOLECULE
*****
 44 46 0 0 0
SMALL
GASTEIGER

@<TRIPOS>ATOM
      1 C          -4.1120    2.3597    0.9037 C.3     1  UNL1       -0.0478
      2 C          -3.7168    1.4330   -0.2445 C.3     1  UNL1        0.0291
      3 C          -4.8634    0.5327   -0.5604 C.3     1  UNL1       -0.0359
      4 C          -4.7794   -0.8110    0.0863 C.3     1  UNL1       -0.0504
      5 C          -3.8611   -0.8665    1.2584 C.3     1  UNL1       -0.0385
      6 C          -2.5203   -0.2348    1.0316 C.3     1  UNL1        0.0208
      7 N          -2.4891    0.7783    0.0415 N.3     1  UNL1       -0.1738
      8 S          -1.5961    0.3032   -1.3251 S.O2    1  UNL1        0.0611
      9 O          -2.2076   -0.9779   -1.8671 O.2     1  UNL1       -0.1528
     10 O          -1.6476    1.2985   -2.4381 O.2     1  UNL1       -0.1528
     11 C           0.0776   -0.0282   -0.9471 C.ar    1  UNL1        0.1056
     12 C           0.9721    1.0155   -1.0131 C.ar    1  UNL1       -0.0336
     13 C           2.3104    0.7775   -0.7180 C.ar    1  UNL1       -0.0384
     14 C           2.7991   -0.4582   -0.3589 C.ar    1  UNL1        0.0364
     15 N           4.1812   -0.6303   -0.0684 N.am    1  UNL1       -0.2714
     16 C           5.1833    0.4269   -0.0995 C.3     1  UNL1        0.0202
     17 C           5.9854    0.0998    1.1460 C.3     1  UNL1       -0.0285
     18 C           6.1578   -1.3971    1.0231 C.3     1  UNL1        0.0259
     19 C           4.8999   -1.7936    0.3048 C.2     1  UNL1        0.2198
     20 O           4.5072   -2.9677    0.0524 O.2     1  UNL1       -0.2753
     21 C           1.8911   -1.4936   -0.2973 C.ar    1  UNL1       -0.0384
     22 C           0.5428   -1.2730   -0.5904 C.ar    1  UNL1       -0.0336
     23 H          -3.5017    3.2980    0.8723 H       1  UNL1        0.0245
     24 H          -4.0039    1.8864    1.8834 H       1  UNL1        0.0245
     25 H          -5.1722    2.6884    0.7960 H       1  UNL1        0.0245
     26 H          -3.5510    2.1045   -1.1188 H       1  UNL1        0.0477
     27 H          -4.9845    0.3642   -1.6662 H       1  UNL1        0.0281
     28 H          -5.8037    1.0868   -0.2696 H       1  UNL1        0.0281
     29 H          -4.5828   -1.6420   -0.6523 H       1  UNL1        0.0266
     30 H          -5.8149   -1.0477    0.4723 H       1  UNL1        0.0266
     31 H          -3.6799   -1.9477    1.4906 H       1  UNL1        0.0278
     32 H          -4.3646   -0.4673    2.1808 H       1  UNL1        0.0278
     33 H          -1.7354   -0.9997    0.8624 H       1  UNL1        0.0444
     34 H          -2.2333    0.2483    2.0122 H       1  UNL1        0.0444
     35 H           0.6332    2.0204   -1.2945 H       1  UNL1        0.0638
     36 H           2.9473    1.6601   -0.7962 H       1  UNL1        0.0637
     37 H           5.7890    0.3452   -1.0176 H       1  UNL1        0.0469
     38 H           4.7687    1.4307    0.0610 H       1  UNL1        0.0469
     39 H           6.9317    0.6411    1.2096 H       1  UNL1        0.0285
     40 H           5.3110    0.3142    2.0134 H       1  UNL1        0.0285
     41 H           7.0568   -1.5777    0.4186 H       1  UNL1        0.0359
     42 H           6.1665   -1.9133    2.0019 H       1  UNL1        0.0359
     43 H           2.2390   -2.4847   -0.0166 H       1  UNL1        0.0637
     44 H          -0.1299   -2.1011   -0.5322 H       1  UNL1        0.0638
@<TRIPOS>BOND
     1     1     2    1
     2     2     3    1
     3     3     4    1
     4     4     5    1
     5     5     6    1
     6     6     7    1
     7     7     8    1
     8     8     9    2
     9     8    10    2
    10     8    11    1
    11    11    12   ar
    12    12    13   ar
    13    13    14   ar
    14    14    15    1
    15    15    16    1
    16    16    17    1
    17    17    18    1
    18    18    19    1
    19    19    20    2
    20    14    21   ar
    21    21    22   ar
    22     7     2    1
    23    22    11   ar
    24    19    15   am
    25     1    23    1
    26     1    24    1
    27     1    25    1
    28     2    26    1
    29     3    27    1
    30     3    28    1
    31     4    29    1
    32     4    30    1
    33     5    31    1
    34     5    32    1
    35     6    33    1
    36     6    34    1
    37    12    35    1
    38    13    36    1
    39    16    37    1
    40    16    38    1
    41    17    39    1
    42    17    40    1
    43    18    41    1
    44    18    42    1
    45    21    43    1
    46    22    44    1
