@<TRIPOS>MOLECULE
*****
 82 87 0 0 0
SMALL
GASTEIGER

@<TRIPOS>ATOM
      1 C         -12.7243    3.9922   -0.8485 C.3     1  UNL1       -0.0397
      2 C         -11.4569    3.3302   -0.4149 C.ar    1  UNL1       -0.0503
      3 C         -10.2253    3.9621   -0.4914 C.ar    1  UNL1       -0.0570
      4 C          -9.0593    3.3284   -0.0840 C.ar    1  UNL1       -0.0341
      5 C          -9.0848    2.0442    0.4128 C.ar    1  UNL1        0.1171
      6 S          -7.6006    1.2568    0.9196 S.O2    1  UNL1        0.1121
      7 O          -6.6016    2.2551    1.4455 O.2     1  UNL1       -0.1419
      8 O          -7.9325    0.2354    1.9688 O.2     1  UNL1       -0.1419
      9 O          -7.0169    0.4469   -0.4323 O.3     1  UNL1       -0.2309
     10 C          -6.3954   -0.7347    0.0445 C.3     1  UNL1        0.1109
     11 C          -5.9675   -1.5910   -1.0998 C.3     1  UNL1        0.1151
     12 O          -5.3414   -2.7722   -0.7719 O.3     1  UNL1       -0.4896
     13 C          -4.1240   -2.8843   -0.1527 C.ar    1  UNL1        0.1206
     14 C          -3.6325   -4.1712    0.1567 C.ar    1  UNL1       -0.0196
     15 C          -2.4320   -4.3945    0.7674 C.ar    1  UNL1       -0.0536
     16 C          -1.6333   -3.3092    1.1124 C.ar    1  UNL1       -0.0295
     17 C          -0.3299   -3.5942    1.7663 C.3     1  UNL1        0.0452
     18 N           0.6348   -3.7203    0.6801 N.am    1  UNL1       -0.2598
     19 C           0.9249   -4.9216   -0.0106 C.2     1  UNL1        0.2915
     20 O           0.4473   -6.0695    0.1525 O.2     1  UNL1       -0.2661
     21 C           1.9291   -4.6145   -1.0095 C.2     1  UNL1        0.2496
     22 O           2.4936   -5.3507   -1.8545 O.2     1  UNL1       -0.2817
     23 C           2.2076   -3.1951   -0.8703 C.ar    1  UNL1        0.0502
     24 C           3.0695   -2.3425   -1.5400 C.ar    1  UNL1       -0.0226
     25 C           3.1734   -1.0096   -1.2322 C.ar    1  UNL1        0.1063
     26 S           4.2482    0.0096   -2.0929 S.O2    1  UNL1        0.0612
     27 O           3.7084    1.4337   -2.0469 O.2     1  UNL1       -0.1528
     28 O           4.2997   -0.3348   -3.5758 O.2     1  UNL1       -0.1528
     29 N           5.8393    0.0505   -1.5195 N.3     1  UNL1       -0.1703
     30 C           6.5203   -1.2186   -1.5654 C.3     1  UNL1        0.0210
     31 C           6.9843   -1.5521   -0.1859 C.3     1  UNL1       -0.0370
     32 C           6.3778   -0.5017    0.7197 C.3     1  UNL1       -0.0313
     33 C           6.0459    0.6235   -0.2356 C.3     1  UNL1        0.0659
     34 C           7.2601    1.5460   -0.3477 C.3     1  UNL1        0.1067
     35 O           7.5673    2.1674    0.8613 O.3     1  UNL1       -0.4904
     36 C           8.6339    3.0278    0.9351 C.ar    1  UNL1        0.1206
     37 C           9.4107    3.2932   -0.1623 C.ar    1  UNL1       -0.0199
     38 C          10.4890    4.1774   -0.0403 C.ar    1  UNL1       -0.0583
     39 C          10.7778    4.7818    1.1631 C.ar    1  UNL1       -0.0615
     40 C           9.9981    4.5149    2.2638 C.ar    1  UNL1       -0.0583
     41 C           8.9374    3.6385    2.1239 C.ar    1  UNL1       -0.0199
     42 C           2.3834   -0.5259   -0.2186 C.ar    1  UNL1       -0.0335
     43 C           1.5040   -1.3189    0.4885 C.ar    1  UNL1       -0.0377
     44 C           1.4268   -2.6719    0.1448 C.ar    1  UNL1        0.0481
     45 C          -2.0797   -2.0449    0.8268 C.ar    1  UNL1       -0.0536
     46 C          -3.3149   -1.8414    0.1992 C.ar    1  UNL1       -0.0196
     47 C         -10.3078    1.4110    0.4910 C.ar    1  UNL1       -0.0341
     48 C         -11.4614    2.0410    0.0867 C.ar    1  UNL1       -0.0570
     49 H         -13.5590    3.4011   -0.4125 H       1  UNL1        0.0278
     50 H         -12.8003    4.0506   -1.9545 H       1  UNL1        0.0278
     51 H         -12.7546    4.9847   -0.3673 H       1  UNL1        0.0278
     52 H         -10.2058    4.9726   -0.8821 H       1  UNL1        0.0621
     53 H          -8.1137    3.8870   -0.1731 H       1  UNL1        0.0637
     54 H          -5.6514   -0.4392    0.7751 H       1  UNL1        0.0618
     55 H          -7.1819   -1.3370    0.6145 H       1  UNL1        0.0618
     56 H          -6.9075   -1.8611   -1.6768 H       1  UNL1        0.0720
     57 H          -5.3052   -1.0228   -1.8103 H       1  UNL1        0.0720
     58 H          -4.2598   -5.0200   -0.1142 H       1  UNL1        0.0654
     59 H          -2.0673   -5.4026    1.0013 H       1  UNL1        0.0622
     60 H          -0.3434   -4.5207    2.3446 H       1  UNL1        0.0518
     61 H          -0.0593   -2.7579    2.4478 H       1  UNL1        0.0518
     62 H           3.6841   -2.7282   -2.3329 H       1  UNL1        0.0645
     63 H           5.9618   -2.0073   -2.0696 H       1  UNL1        0.0444
     64 H           7.4492   -1.0512   -2.1865 H       1  UNL1        0.0444
     65 H           8.0782   -1.5327   -0.0637 H       1  UNL1        0.0279
     66 H           6.6412   -2.5720    0.1535 H       1  UNL1        0.0279
     67 H           7.1017   -0.1952    1.4898 H       1  UNL1        0.0282
     68 H           5.4534   -0.8968    1.1787 H       1  UNL1        0.0282
     69 H           5.2076    1.1729    0.1872 H       1  UNL1        0.0513
     70 H           8.1109    1.0327   -0.8221 H       1  UNL1        0.0713
     71 H           6.9771    2.3675   -1.0694 H       1  UNL1        0.0713
     72 H           9.2357    2.8506   -1.1374 H       1  UNL1        0.0654
     73 H          11.0958    4.3826   -0.9031 H       1  UNL1        0.0619
     74 H          11.6178    5.4740    1.2746 H       1  UNL1        0.0618
     75 H          10.2090    4.9804    3.2201 H       1  UNL1        0.0619
     76 H           8.3245    3.4244    2.9807 H       1  UNL1        0.0654
     77 H           2.4058    0.5297    0.0912 H       1  UNL1        0.0638
     78 H           0.8838   -0.9397    1.2863 H       1  UNL1        0.0637
     79 H          -1.4741   -1.1980    1.0894 H       1  UNL1        0.0622
     80 H          -3.6095   -0.8254   -0.0281 H       1  UNL1        0.0654
     81 H         -10.3068    0.3916    0.8857 H       1  UNL1        0.0637
     82 H         -12.4087    1.5235    0.1573 H       1  UNL1        0.0621
@<TRIPOS>BOND
     1     1     2    1
     2     2     3   ar
     3     3     4   ar
     4     4     5   ar
     5     5     6    1
     6     6     7    2
     7     6     8    2
     8     6     9    1
     9     9    10    1
    10    10    11    1
    11    11    12    1
    12    12    13    1
    13    13    14   ar
    14    14    15   ar
    15    15    16   ar
    16    16    17    1
    17    17    18    1
    18    18    19   am
    19    19    20    2
    20    19    21    1
    21    21    22    2
    22    21    23    1
    23    23    24   ar
    24    24    25   ar
    25    25    26    1
    26    26    27    2
    27    26    28    2
    28    26    29    1
    29    29    30    1
    30    30    31    1
    31    31    32    1
    32    32    33    1
    33    33    34    1
    34    34    35    1
    35    35    36    1
    36    36    37   ar
    37    37    38   ar
    38    38    39   ar
    39    39    40   ar
    40    40    41   ar
    41    25    42   ar
    42    42    43   ar
    43    43    44   ar
    44    16    45   ar
    45    45    46   ar
    46     5    47   ar
    47    47    48   ar
    48    48     2   ar
    49    46    13   ar
    50    44    18    1
    51    44    23   ar
    52    33    29    1
    53    41    36   ar
    54     1    49    1
    55     1    50    1
    56     1    51    1
    57     3    52    1
    58     4    53    1
    59    10    54    1
    60    10    55    1
    61    11    56    1
    62    11    57    1
    63    14    58    1
    64    15    59    1
    65    17    60    1
    66    17    61    1
    67    24    62    1
    68    30    63    1
    69    30    64    1
    70    31    65    1
    71    31    66    1
    72    32    67    1
    73    32    68    1
    74    33    69    1
    75    34    70    1
    76    34    71    1
    77    37    72    1
    78    38    73    1
    79    39    74    1
    80    40    75    1
    81    41    76    1
    82    42    77    1
    83    43    78    1
    84    45    79    1
    85    46    80    1
    86    47    81    1
    87    48    82    1
