
     RDKit          3D

 82 87  0  0  0  0  0  0  0  0999 V2000
  -12.7243    3.9922   -0.8485 C   0  0  0  0  0  0  0  0  0  0  0  0
  -11.4569    3.3302   -0.4149 C   0  0  0  0  0  0  0  0  0  0  0  0
  -10.2253    3.9621   -0.4914 C   0  0  0  0  0  0  0  0  0  0  0  0
   -9.0593    3.3284   -0.0840 C   0  0  0  0  0  0  0  0  0  0  0  0
   -9.0848    2.0442    0.4128 C   0  0  0  0  0  0  0  0  0  0  0  0
   -7.6006    1.2568    0.9196 S   0  0  0  0  0  6  0  0  0  0  0  0
   -6.6016    2.2551    1.4455 O   0  0  0  0  0  0  0  0  0  0  0  0
   -7.9325    0.2354    1.9688 O   0  0  0  0  0  0  0  0  0  0  0  0
   -7.0169    0.4469   -0.4323 O   0  0  0  0  0  0  0  0  0  0  0  0
   -6.3954   -0.7347    0.0445 C   0  0  0  0  0  0  0  0  0  0  0  0
   -5.9675   -1.5910   -1.0998 C   0  0  0  0  0  0  0  0  0  0  0  0
   -5.3414   -2.7722   -0.7719 O   0  0  0  0  0  0  0  0  0  0  0  0
   -4.1240   -2.8843   -0.1527 C   0  0  0  0  0  0  0  0  0  0  0  0
   -3.6325   -4.1712    0.1567 C   0  0  0  0  0  0  0  0  0  0  0  0
   -2.4320   -4.3945    0.7674 C   0  0  0  0  0  0  0  0  0  0  0  0
   -1.6333   -3.3092    1.1124 C   0  0  0  0  0  0  0  0  0  0  0  0
   -0.3299   -3.5942    1.7663 C   0  0  0  0  0  0  0  0  0  0  0  0
    0.6348   -3.7203    0.6801 N   0  0  0  0  0  0  0  0  0  0  0  0
    0.9249   -4.9216   -0.0106 C   0  0  0  0  0  0  0  0  0  0  0  0
    0.4473   -6.0695    0.1525 O   0  0  0  0  0  0  0  0  0  0  0  0
    1.9291   -4.6145   -1.0095 C   0  0  0  0  0  0  0  0  0  0  0  0
    2.4936   -5.3507   -1.8545 O   0  0  0  0  0  0  0  0  0  0  0  0
    2.2076   -3.1951   -0.8703 C   0  0  0  0  0  0  0  0  0  0  0  0
    3.0695   -2.3425   -1.5400 C   0  0  0  0  0  0  0  0  0  0  0  0
    3.1734   -1.0096   -1.2322 C   0  0  0  0  0  0  0  0  0  0  0  0
    4.2482    0.0096   -2.0929 S   0  0  0  0  0  6  0  0  0  0  0  0
    3.7084    1.4337   -2.0469 O   0  0  0  0  0  0  0  0  0  0  0  0
    4.2997   -0.3348   -3.5758 O   0  0  0  0  0  0  0  0  0  0  0  0
    5.8393    0.0505   -1.5195 N   0  0  0  0  0  0  0  0  0  0  0  0
    6.5203   -1.2186   -1.5654 C   0  0  0  0  0  0  0  0  0  0  0  0
    6.9843   -1.5521   -0.1859 C   0  0  0  0  0  0  0  0  0  0  0  0
    6.3778   -0.5017    0.7197 C   0  0  0  0  0  0  0  0  0  0  0  0
    6.0459    0.6235   -0.2356 C   0  0  1  0  0  0  0  0  0  0  0  0
    7.2601    1.5460   -0.3477 C   0  0  0  0  0  0  0  0  0  0  0  0
    7.5673    2.1674    0.8613 O   0  0  0  0  0  0  0  0  0  0  0  0
    8.6339    3.0278    0.9351 C   0  0  0  0  0  0  0  0  0  0  0  0
    9.4107    3.2932   -0.1623 C   0  0  0  0  0  0  0  0  0  0  0  0
   10.4890    4.1774   -0.0403 C   0  0  0  0  0  0  0  0  0  0  0  0
   10.7778    4.7818    1.1631 C   0  0  0  0  0  0  0  0  0  0  0  0
    9.9981    4.5149    2.2638 C   0  0  0  0  0  0  0  0  0  0  0  0
    8.9374    3.6385    2.1239 C   0  0  0  0  0  0  0  0  0  0  0  0
    2.3834   -0.5259   -0.2186 C   0  0  0  0  0  0  0  0  0  0  0  0
    1.5040   -1.3189    0.4885 C   0  0  0  0  0  0  0  0  0  0  0  0
    1.4268   -2.6719    0.1448 C   0  0  0  0  0  0  0  0  0  0  0  0
   -2.0797   -2.0449    0.8268 C   0  0  0  0  0  0  0  0  0  0  0  0
   -3.3149   -1.8414    0.1992 C   0  0  0  0  0  0  0  0  0  0  0  0
  -10.3078    1.4110    0.4910 C   0  0  0  0  0  0  0  0  0  0  0  0
  -11.4614    2.0410    0.0867 C   0  0  0  0  0  0  0  0  0  0  0  0
  -13.5590    3.4011   -0.4125 H   0  0  0  0  0  0  0  0  0  0  0  0
  -12.8003    4.0506   -1.9545 H   0  0  0  0  0  0  0  0  0  0  0  0
  -12.7546    4.9847   -0.3673 H   0  0  0  0  0  0  0  0  0  0  0  0
  -10.2058    4.9726   -0.8821 H   0  0  0  0  0  0  0  0  0  0  0  0
   -8.1137    3.8870   -0.1731 H   0  0  0  0  0  0  0  0  0  0  0  0
   -5.6514   -0.4392    0.7751 H   0  0  0  0  0  0  0  0  0  0  0  0
   -7.1819   -1.3370    0.6145 H   0  0  0  0  0  0  0  0  0  0  0  0
   -6.9075   -1.8611   -1.6768 H   0  0  0  0  0  0  0  0  0  0  0  0
   -5.3052   -1.0228   -1.8103 H   0  0  0  0  0  0  0  0  0  0  0  0
   -4.2598   -5.0200   -0.1142 H   0  0  0  0  0  0  0  0  0  0  0  0
   -2.0673   -5.4026    1.0013 H   0  0  0  0  0  0  0  0  0  0  0  0
   -0.3434   -4.5207    2.3446 H   0  0  0  0  0  0  0  0  0  0  0  0
   -0.0593   -2.7579    2.4478 H   0  0  0  0  0  0  0  0  0  0  0  0
    3.6841   -2.7282   -2.3329 H   0  0  0  0  0  0  0  0  0  0  0  0
    5.9618   -2.0073   -2.0696 H   0  0  0  0  0  0  0  0  0  0  0  0
    7.4492   -1.0512   -2.1865 H   0  0  0  0  0  0  0  0  0  0  0  0
    8.0782   -1.5327   -0.0637 H   0  0  0  0  0  0  0  0  0  0  0  0
    6.6412   -2.5720    0.1535 H   0  0  0  0  0  0  0  0  0  0  0  0
    7.1017   -0.1952    1.4898 H   0  0  0  0  0  0  0  0  0  0  0  0
    5.4534   -0.8968    1.1787 H   0  0  0  0  0  0  0  0  0  0  0  0
    5.2076    1.1729    0.1872 H   0  0  0  0  0  0  0  0  0  0  0  0
    8.1109    1.0327   -0.8221 H   0  0  0  0  0  0  0  0  0  0  0  0
    6.9771    2.3675   -1.0694 H   0  0  0  0  0  0  0  0  0  0  0  0
    9.2357    2.8506   -1.1374 H   0  0  0  0  0  0  0  0  0  0  0  0
   11.0958    4.3826   -0.9031 H   0  0  0  0  0  0  0  0  0  0  0  0
   11.6178    5.4740    1.2746 H   0  0  0  0  0  0  0  0  0  0  0  0
   10.2090    4.9804    3.2201 H   0  0  0  0  0  0  0  0  0  0  0  0
    8.3245    3.4244    2.9807 H   0  0  0  0  0  0  0  0  0  0  0  0
    2.4058    0.5297    0.0912 H   0  0  0  0  0  0  0  0  0  0  0  0
    0.8838   -0.9397    1.2863 H   0  0  0  0  0  0  0  0  0  0  0  0
   -1.4741   -1.1980    1.0894 H   0  0  0  0  0  0  0  0  0  0  0  0
   -3.6095   -0.8254   -0.0281 H   0  0  0  0  0  0  0  0  0  0  0  0
  -10.3068    0.3916    0.8857 H   0  0  0  0  0  0  0  0  0  0  0  0
  -12.4087    1.5235    0.1573 H   0  0  0  0  0  0  0  0  0  0  0  0
  1  2  1  0
  2  3  2  0
  3  4  1  0
  4  5  2  0
  5  6  1  0
  6  7  2  0
  6  8  2  0
  6  9  1  0
  9 10  1  0
 10 11  1  0
 11 12  1  0
 12 13  1  0
 13 14  2  0
 14 15  1  0
 15 16  2  0
 16 17  1  0
 17 18  1  0
 18 19  1  0
 19 20  2  0
 19 21  1  0
 21 22  2  0
 21 23  1  0
 23 24  2  0
 24 25  1  0
 25 26  1  0
 26 27  2  0
 26 28  2  0
 26 29  1  0
 29 30  1  0
 30 31  1  0
 31 32  1  0
 32 33  1  0
 33 34  1  0
 34 35  1  0
 35 36  1  0
 36 37  2  0
 37 38  1  0
 38 39  2  0
 39 40  1  0
 40 41  2  0
 25 42  2  0
 42 43  1  0
 43 44  2  0
 16 45  1  0
 45 46  2  0
  5 47  1  0
 47 48  2  0
 48  2  1  0
 46 13  1  0
 44 18  1  0
 44 23  1  0
 33 29  1  0
 41 36  1  0
  1 49  1  0
  1 50  1  0
  1 51  1  0
  3 52  1  0
  4 53  1  0
 10 54  1  0
 10 55  1  0
 11 56  1  0
 11 57  1  0
 14 58  1  0
 15 59  1  0
 17 60  1  0
 17 61  1  0
 24 62  1  0
 30 63  1  0
 30 64  1  0
 31 65  1  0
 31 66  1  0
 32 67  1  0
 32 68  1  0
 33 69  1  1
 34 70  1  0
 34 71  1  0
 37 72  1  0
 38 73  1  0
 39 74  1  0
 40 75  1  0
 41 76  1  0
 42 77  1  0
 43 78  1  0
 45 79  1  0
 46 80  1  0
 47 81  1  0
 48 82  1  0
M  END
$$$$
