@<TRIPOS>MOLECULE
*****
 45 48 0 0 0
SMALL
GASTEIGER

@<TRIPOS>ATOM
      1 O          -5.8794   -0.6735    3.5191 O.2     1  UNL1       -0.2265
      2 C          -5.1118   -0.8484    2.5145 C.2     1  UNL1        0.4010
      3 N          -5.4208   -1.4457    1.2717 N.am    1  UNL1       -0.2773
      4 C          -4.4299   -1.0813    0.3031 C.3     1  UNL1        0.0548
      5 C          -3.3041   -0.4927    1.1273 C.3     1  UNL1        0.1334
      6 C          -3.0553    0.9105    0.6137 C.3     1  UNL1        0.0046
      7 C          -2.2702    0.7556   -0.6955 C.3     1  UNL1        0.0185
      8 N          -0.9168    0.3676   -0.2846 N.pl3   1  UNL1       -0.2993
      9 C           0.2011    0.8362   -1.0295 C.ar    1  UNL1        0.2214
     10 N           1.4393    0.4779   -0.6491 N.ar    1  UNL1       -0.1790
     11 C           2.5243    0.8973   -1.3234 C.ar    1  UNL1        0.2254
     12 O           3.8166    0.5593   -0.9757 O.3     1  UNL1       -0.4378
     13 C           4.1728   -0.2303    0.0772 C.ar    1  UNL1        0.1331
     14 C           4.4153    0.3379    1.3093 C.ar    1  UNL1       -0.0191
     15 C           4.7815   -0.4569    2.3999 C.ar    1  UNL1       -0.0556
     16 C           4.9065   -1.8227    2.2626 C.ar    1  UNL1       -0.0262
     17 C           4.6674   -2.3940    1.0427 C.ar    1  UNL1        0.1269
     18 F           4.7934   -3.7383    0.9197 F       1  UNL1       -0.2054
     19 C           4.3029   -1.5947   -0.0389 C.ar    1  UNL1        0.0160
     20 C           2.3200    1.7084   -2.4197 C.ar    1  UNL1        0.0305
     21 C           1.0507    2.0957   -2.8373 C.ar    1  UNL1        0.1522
     22 C           0.8365    2.9713   -4.0212 C.3     1  UNL1        0.4345
     23 F           1.6119    2.4155   -5.0475 F       1  UNL1       -0.1644
     24 F           1.2581    4.2587   -3.8140 F       1  UNL1       -0.1644
     25 F          -0.4990    2.8864   -4.3605 F       1  UNL1       -0.1644
     26 N           0.0136    1.6264   -2.0986 N.ar    1  UNL1       -0.2101
     27 C          -0.8086   -0.4773    0.8667 C.3     1  UNL1        0.0185
     28 C          -2.0696   -1.3377    0.9836 C.3     1  UNL1        0.0046
     29 O          -3.7862   -0.4703    2.4578 O.3     1  UNL1       -0.4421
     30 H          -6.2678   -2.0604    1.1307 H       1  UNL1        0.1521
     31 H          -4.0909   -1.9486   -0.3077 H       1  UNL1        0.0502
     32 H          -4.8627   -0.3469   -0.4015 H       1  UNL1        0.0502
     33 H          -4.0157    1.3855    0.3936 H       1  UNL1        0.0319
     34 H          -2.4402    1.4679    1.3614 H       1  UNL1        0.0319
     35 H          -2.6913   -0.1238   -1.2122 H       1  UNL1        0.0466
     36 H          -2.2716    1.6779   -1.2849 H       1  UNL1        0.0466
     37 H           4.3161    1.4050    1.4102 H       1  UNL1        0.0654
     38 H           4.9561    0.0566    3.3353 H       1  UNL1        0.0620
     39 H           5.1951   -2.4043    3.1428 H       1  UNL1        0.0646
     40 H           4.1185   -2.0618   -0.9921 H       1  UNL1        0.0683
     41 H           3.1789    2.0650   -2.9873 H       1  UNL1        0.0692
     42 H           0.0302   -1.2216    0.7574 H       1  UNL1        0.0466
     43 H          -0.6325    0.0487    1.8116 H       1  UNL1        0.0466
     44 H          -1.9489   -2.0915    1.7660 H       1  UNL1        0.0319
     45 H          -2.1334   -1.8884    0.0030 H       1  UNL1        0.0319
@<TRIPOS>BOND
     1     1     2    2
     2     2     3   am
     3     3     4    1
     4     4     5    1
     5     5     6    1
     6     6     7    1
     7     7     8    1
     8     8     9    1
     9     9    10   ar
    10    10    11   ar
    11    11    12    1
    12    12    13    1
    13    13    14   ar
    14    14    15   ar
    15    15    16   ar
    16    16    17   ar
    17    17    18    1
    18    17    19   ar
    19    11    20   ar
    20    20    21   ar
    21    21    22    1
    22    22    23    1
    23    22    24    1
    24    22    25    1
    25    21    26   ar
    26     8    27    1
    27    27    28    1
    28     5    29    1
    29    29     2    1
    30    28     5    1
    31    26     9   ar
    32    19    13   ar
    33     3    30    1
    34     4    31    1
    35     4    32    1
    36     6    33    1
    37     6    34    1
    38     7    35    1
    39     7    36    1
    40    14    37    1
    41    15    38    1
    42    16    39    1
    43    19    40    1
    44    20    41    1
    45    27    42    1
    46    27    43    1
    47    28    44    1
    48    28    45    1
