
     RDKit          3D

 45 48  0  0  0  0  0  0  0  0999 V2000
   -5.8794   -0.6735    3.5191 O   0  0  0  0  0  0  0  0  0  0  0  0
   -5.1118   -0.8484    2.5145 C   0  0  0  0  0  0  0  0  0  0  0  0
   -5.4208   -1.4457    1.2717 N   0  0  0  0  0  0  0  0  0  0  0  0
   -4.4299   -1.0813    0.3031 C   0  0  0  0  0  0  0  0  0  0  0  0
   -3.3041   -0.4927    1.1273 C   0  0  0  0  0  0  0  0  0  0  0  0
   -3.0553    0.9105    0.6137 C   0  0  0  0  0  0  0  0  0  0  0  0
   -2.2702    0.7556   -0.6955 C   0  0  0  0  0  0  0  0  0  0  0  0
   -0.9168    0.3676   -0.2846 N   0  0  0  0  0  0  0  0  0  0  0  0
    0.2011    0.8362   -1.0295 C   0  0  0  0  0  0  0  0  0  0  0  0
    1.4393    0.4779   -0.6491 N   0  0  0  0  0  0  0  0  0  0  0  0
    2.5243    0.8973   -1.3234 C   0  0  0  0  0  0  0  0  0  0  0  0
    3.8166    0.5593   -0.9757 O   0  0  0  0  0  0  0  0  0  0  0  0
    4.1728   -0.2303    0.0772 C   0  0  0  0  0  0  0  0  0  0  0  0
    4.4153    0.3379    1.3093 C   0  0  0  0  0  0  0  0  0  0  0  0
    4.7815   -0.4569    2.3999 C   0  0  0  0  0  0  0  0  0  0  0  0
    4.9065   -1.8227    2.2626 C   0  0  0  0  0  0  0  0  0  0  0  0
    4.6674   -2.3940    1.0427 C   0  0  0  0  0  0  0  0  0  0  0  0
    4.7934   -3.7383    0.9197 F   0  0  0  0  0  0  0  0  0  0  0  0
    4.3029   -1.5947   -0.0389 C   0  0  0  0  0  0  0  0  0  0  0  0
    2.3200    1.7084   -2.4197 C   0  0  0  0  0  0  0  0  0  0  0  0
    1.0507    2.0957   -2.8373 C   0  0  0  0  0  0  0  0  0  0  0  0
    0.8365    2.9713   -4.0212 C   0  0  0  0  0  0  0  0  0  0  0  0
    1.6119    2.4155   -5.0475 F   0  0  0  0  0  0  0  0  0  0  0  0
    1.2581    4.2587   -3.8140 F   0  0  0  0  0  0  0  0  0  0  0  0
   -0.4990    2.8864   -4.3605 F   0  0  0  0  0  0  0  0  0  0  0  0
    0.0136    1.6264   -2.0986 N   0  0  0  0  0  0  0  0  0  0  0  0
   -0.8086   -0.4773    0.8667 C   0  0  0  0  0  0  0  0  0  0  0  0
   -2.0696   -1.3377    0.9836 C   0  0  0  0  0  0  0  0  0  0  0  0
   -3.7862   -0.4703    2.4578 O   0  0  0  0  0  0  0  0  0  0  0  0
   -6.2678   -2.0604    1.1307 H   0  0  0  0  0  0  0  0  0  0  0  0
   -4.0909   -1.9486   -0.3077 H   0  0  0  0  0  0  0  0  0  0  0  0
   -4.8627   -0.3469   -0.4015 H   0  0  0  0  0  0  0  0  0  0  0  0
   -4.0157    1.3855    0.3936 H   0  0  0  0  0  0  0  0  0  0  0  0
   -2.4402    1.4679    1.3614 H   0  0  0  0  0  0  0  0  0  0  0  0
   -2.6913   -0.1238   -1.2122 H   0  0  0  0  0  0  0  0  0  0  0  0
   -2.2716    1.6779   -1.2849 H   0  0  0  0  0  0  0  0  0  0  0  0
    4.3161    1.4050    1.4102 H   0  0  0  0  0  0  0  0  0  0  0  0
    4.9561    0.0566    3.3353 H   0  0  0  0  0  0  0  0  0  0  0  0
    5.1951   -2.4043    3.1428 H   0  0  0  0  0  0  0  0  0  0  0  0
    4.1185   -2.0618   -0.9921 H   0  0  0  0  0  0  0  0  0  0  0  0
    3.1789    2.0650   -2.9873 H   0  0  0  0  0  0  0  0  0  0  0  0
    0.0302   -1.2216    0.7574 H   0  0  0  0  0  0  0  0  0  0  0  0
   -0.6325    0.0487    1.8116 H   0  0  0  0  0  0  0  0  0  0  0  0
   -1.9489   -2.0915    1.7660 H   0  0  0  0  0  0  0  0  0  0  0  0
   -2.1334   -1.8884    0.0030 H   0  0  0  0  0  0  0  0  0  0  0  0
  1  2  2  0
  2  3  1  0
  3  4  1  0
  4  5  1  0
  5  6  1  0
  6  7  1  0
  7  8  1  0
  8  9  1  0
  9 10  2  0
 10 11  1  0
 11 12  1  0
 12 13  1  0
 13 14  2  0
 14 15  1  0
 15 16  2  0
 16 17  1  0
 17 18  1  0
 17 19  2  0
 11 20  2  0
 20 21  1  0
 21 22  1  0
 22 23  1  0
 22 24  1  0
 22 25  1  0
 21 26  2  0
  8 27  1  0
 27 28  1  0
  5 29  1  0
 29  2  1  0
 28  5  1  0
 26  9  1  0
 19 13  1  0
  3 30  1  0
  4 31  1  0
  4 32  1  0
  6 33  1  0
  6 34  1  0
  7 35  1  0
  7 36  1  0
 14 37  1  0
 15 38  1  0
 16 39  1  0
 19 40  1  0
 20 41  1  0
 27 42  1  0
 27 43  1  0
 28 44  1  0
 28 45  1  0
M  END
$$$$
