
     RDKit          3D

 42 45  0  0  0  0  0  0  0  0999 V2000
   -1.5363   -1.2490    0.7214 C   0  0  1  0  0  0  0  0  0  0  0  0
   -2.3339   -2.2211   -0.0865 C   0  0  0  0  0  0  0  0  0  0  0  0
   -1.4217   -3.3459   -0.5215 C   0  0  1  0  0  0  0  0  0  0  0  0
   -2.2346   -4.3297   -1.0791 O   0  0  0  0  0  0  0  0  0  0  0  0
   -0.5117   -2.7486   -1.5490 C   0  0  0  0  0  0  0  0  0  0  0  0
    0.0337   -1.6144   -1.1233 C   0  0  0  0  0  0  0  0  0  0  0  0
   -0.1694   -0.9448    0.1838 C   0  0  2  0  0  0  0  0  0  0  0  0
    0.8537   -1.3907    1.1980 C   0  0  0  0  0  0  0  0  0  0  0  0
    2.1211   -0.6030    1.1547 C   0  0  0  0  0  0  0  0  0  0  0  0
    2.6330   -0.3233   -0.1333 N   0  0  0  0  0  0  0  0  0  0  0  0
    4.0845   -0.3532   -0.0754 C   0  0  0  0  0  0  0  0  0  0  0  0
    2.2923    0.9501   -0.7033 C   0  0  0  0  0  0  0  0  0  0  0  0
    0.9007    1.2794   -0.3121 C   0  0  0  0  0  0  0  0  0  0  0  0
   -0.1915    0.5388    0.0749 C   0  0  0  0  0  0  0  0  0  0  0  0
   -1.4387    0.9990    0.4157 C   0  0  0  0  0  0  0  0  0  0  0  0
   -2.2814   -0.0481    0.7520 O   0  0  0  0  0  0  0  0  0  0  0  0
   -1.5978    2.3823    0.3560 C   0  0  0  0  0  0  0  0  0  0  0  0
   -2.8397    2.8949    0.6909 O   0  0  0  0  0  0  0  0  0  0  0  0
   -3.0928    4.2887    0.6588 C   0  0  0  0  0  0  0  0  0  0  0  0
   -0.5281    3.1948   -0.0300 C   0  0  0  0  0  0  0  0  0  0  0  0
    0.7153    2.6601   -0.3636 C   0  0  0  0  0  0  0  0  0  0  0  0
   -1.4899   -1.6572    1.7710 H   0  0  0  0  0  0  0  0  0  0  0  0
   -2.7887   -1.7616   -0.9910 H   0  0  0  0  0  0  0  0  0  0  0  0
   -3.1044   -2.6712    0.5708 H   0  0  0  0  0  0  0  0  0  0  0  0
   -0.8740   -3.7109    0.3621 H   0  0  0  0  0  0  0  0  0  0  0  0
   -1.8343   -4.8266   -1.8137 H   0  0  0  0  0  0  0  0  0  0  0  0
   -0.2074   -3.0340   -2.5434 H   0  0  0  0  0  0  0  0  0  0  0  0
    0.7319   -1.0291   -1.7415 H   0  0  0  0  0  0  0  0  0  0  0  0
    1.0552   -2.4658    1.0228 H   0  0  0  0  0  0  0  0  0  0  0  0
    0.3845   -1.3102    2.1981 H   0  0  0  0  0  0  0  0  0  0  0  0
    2.8801   -1.1562    1.7451 H   0  0  0  0  0  0  0  0  0  0  0  0
    1.9794    0.3630    1.7036 H   0  0  0  0  0  0  0  0  0  0  0  0
    4.3856    0.3831    0.7228 H   0  0  0  0  0  0  0  0  0  0  0  0
    4.5693   -0.0531   -1.0255 H   0  0  0  0  0  0  0  0  0  0  0  0
    4.4489   -1.3419    0.2911 H   0  0  0  0  0  0  0  0  0  0  0  0
    2.9656    1.7690   -0.3775 H   0  0  0  0  0  0  0  0  0  0  0  0
    2.3407    0.8593   -1.8131 H   0  0  0  0  0  0  0  0  0  0  0  0
   -2.6555    4.8256    1.5182 H   0  0  0  0  0  0  0  0  0  0  0  0
   -4.1822    4.4468    0.7033 H   0  0  0  0  0  0  0  0  0  0  0  0
   -2.7548    4.7237   -0.2998 H   0  0  0  0  0  0  0  0  0  0  0  0
   -0.7742    4.2552   -0.0383 H   0  0  0  0  0  0  0  0  0  0  0  0
    1.4672    3.3760   -0.6461 H   0  0  0  0  0  0  0  0  0  0  0  0
  1  2  1  0
  2  3  1  0
  3  4  1  0
  3  5  1  0
  5  6  2  0
  6  7  1  0
  7  8  1  1
  8  9  1  0
  9 10  1  0
 10 11  1  0
 10 12  1  0
 12 13  1  0
 13 14  1  0
 14 15  2  0
 15 16  1  0
 15 17  1  0
 17 18  1  0
 18 19  1  0
 17 20  2  0
 20 21  1  0
  7  1  1  0
 14  7  1  0
 16  1  1  0
 21 13  2  0
  1 22  1  1
  2 23  1  0
  2 24  1  0
  3 25  1  1
  4 26  1  0
  5 27  1  0
  6 28  1  0
  8 29  1  0
  8 30  1  0
  9 31  1  0
  9 32  1  0
 11 33  1  0
 11 34  1  0
 11 35  1  0
 12 36  1  0
 12 37  1  0
 19 38  1  0
 19 39  1  0
 19 40  1  0
 20 41  1  0
 21 42  1  0
M  END
$$$$
