@<TRIPOS>MOLECULE
*****
 42 45 0 0 0
SMALL
GASTEIGER

@<TRIPOS>ATOM
      1 C          -1.5363   -1.2490    0.7214 C.3     1  UNL1        0.1161
      2 C          -2.3339   -2.2211   -0.0865 C.3     1  UNL1        0.0151
      3 C          -1.4217   -3.3459   -0.5215 C.3     1  UNL1        0.0768
      4 O          -2.2346   -4.3297   -1.0791 O.3     1  UNL1       -0.3876
      5 C          -0.5117   -2.7486   -1.5490 C.2     1  UNL1       -0.0588
      6 C           0.0337   -1.6144   -1.1233 C.2     1  UNL1       -0.0715
      7 C          -0.1694   -0.9448    0.1838 C.3     1  UNL1        0.0558
      8 C           0.8537   -1.3907    1.1980 C.3     1  UNL1       -0.0235
      9 C           2.1211   -0.6030    1.1547 C.3     1  UNL1        0.0001
     10 N           2.6330   -0.3233   -0.1333 N.3     1  UNL1       -0.3011
     11 C           4.0845   -0.3532   -0.0754 C.3     1  UNL1       -0.0124
     12 C           2.2923    0.9501   -0.7033 C.3     1  UNL1        0.0242
     13 C           0.9007    1.2794   -0.3121 C.ar    1  UNL1       -0.0255
     14 C          -0.1915    0.5388    0.0749 C.ar    1  UNL1        0.0158
     15 C          -1.4387    0.9990    0.4157 C.ar    1  UNL1        0.1667
     16 O          -2.2814   -0.0481    0.7520 O.3     1  UNL1       -0.4836
     17 C          -1.5978    2.3823    0.3560 C.ar    1  UNL1        0.1618
     18 O          -2.8397    2.8949    0.6909 O.3     1  UNL1       -0.4914
     19 C          -3.0928    4.2887    0.6588 C.3     1  UNL1        0.0790
     20 C          -0.5281    3.1948   -0.0300 C.ar    1  UNL1       -0.0160
     21 C           0.7153    2.6601   -0.3636 C.ar    1  UNL1       -0.0534
     22 H          -1.4899   -1.6572    1.7710 H       1  UNL1        0.0746
     23 H          -2.7887   -1.7616   -0.9910 H       1  UNL1        0.0329
     24 H          -3.1044   -2.6712    0.5708 H       1  UNL1        0.0329
     25 H          -0.8740   -3.7109    0.3621 H       1  UNL1        0.0639
     26 H          -1.8343   -4.8266   -1.8137 H       1  UNL1        0.2102
     27 H          -0.2074   -3.0340   -2.5434 H       1  UNL1        0.0595
     28 H           0.7319   -1.0291   -1.7415 H       1  UNL1        0.0580
     29 H           1.0552   -2.4658    1.0228 H       1  UNL1        0.0290
     30 H           0.3845   -1.3102    2.1981 H       1  UNL1        0.0290
     31 H           2.8801   -1.1562    1.7451 H       1  UNL1        0.0427
     32 H           1.9794    0.3630    1.7036 H       1  UNL1        0.0427
     33 H           4.3856    0.3831    0.7228 H       1  UNL1        0.0391
     34 H           4.5693   -0.0531   -1.0255 H       1  UNL1        0.0391
     35 H           4.4489   -1.3419    0.2911 H       1  UNL1        0.0391
     36 H           2.9656    1.7690   -0.3775 H       1  UNL1        0.0476
     37 H           2.3407    0.8593   -1.8131 H       1  UNL1        0.0476
     38 H          -2.6555    4.8256    1.5182 H       1  UNL1        0.0660
     39 H          -4.1822    4.4468    0.7033 H       1  UNL1        0.0660
     40 H          -2.7548    4.7237   -0.2998 H       1  UNL1        0.0660
     41 H          -0.7742    4.2552   -0.0383 H       1  UNL1        0.0655
     42 H           1.4672    3.3760   -0.6461 H       1  UNL1        0.0622
@<TRIPOS>BOND
     1     1     2    1
     2     2     3    1
     3     3     4    1
     4     3     5    1
     5     5     6    2
     6     6     7    1
     7     7     8    1
     8     8     9    1
     9     9    10    1
    10    10    11    1
    11    10    12    1
    12    12    13    1
    13    13    14   ar
    14    14    15   ar
    15    15    16    1
    16    15    17   ar
    17    17    18    1
    18    18    19    1
    19    17    20   ar
    20    20    21   ar
    21     7     1    1
    22    14     7    1
    23    16     1    1
    24    21    13   ar
    25     1    22    1
    26     2    23    1
    27     2    24    1
    28     3    25    1
    29     4    26    1
    30     5    27    1
    31     6    28    1
    32     8    29    1
    33     8    30    1
    34     9    31    1
    35     9    32    1
    36    11    33    1
    37    11    34    1
    38    11    35    1
    39    12    36    1
    40    12    37    1
    41    19    38    1
    42    19    39    1
    43    19    40    1
    44    20    41    1
    45    21    42    1
