@<TRIPOS>MOLECULE
*****
 41 43 0 0 0
SMALL
GASTEIGER

@<TRIPOS>ATOM
      1 N          -6.1044   -1.5277    0.2238 N.3     1  UNL1       -0.2035
      2 S          -5.0501   -0.7321    1.3233 S.O2    1  UNL1        0.0566
      3 O          -4.7301   -1.7598    2.3820 O.2     1  UNL1       -0.1532
      4 O          -5.7509    0.3730    2.0725 O.2     1  UNL1       -0.1532
      5 C          -3.5565   -0.2203    0.6275 C.ar    1  UNL1        0.1186
      6 C          -2.3153   -0.6763    1.0895 C.ar    1  UNL1       -0.0066
      7 C          -1.1110   -0.3215    0.5967 C.ar    1  UNL1        0.1279
      8 C          -1.0261    0.5535   -0.4414 C.ar    1  UNL1        0.0556
      9 N           0.2145    0.9276   -0.9593 N.pl3   1  UNL1       -0.3256
     10 C           1.4707    0.3469   -0.6682 C.3     1  UNL1        0.0953
     11 C           2.4696    1.3687   -0.1085 C.3     1  UNL1        0.0056
     12 C           3.7379    0.6401    0.1538 C.ar    1  UNL1       -0.0443
     13 C           4.6846    0.5638   -0.8604 C.ar    1  UNL1       -0.0585
     14 C           5.8907   -0.0860   -0.7223 C.ar    1  UNL1       -0.0615
     15 C           6.1941   -0.7023    0.4840 C.ar    1  UNL1       -0.0617
     16 C           5.2762   -0.6387    1.4944 C.ar    1  UNL1       -0.0615
     17 C           4.0864    0.0107    1.3365 C.ar    1  UNL1       -0.0585
     18 N           1.5216   -0.8311    0.1051 N.3     1  UNL1       -0.1696
     19 S           0.3297   -1.0017    1.3110 S.O2    1  UNL1        0.0618
     20 O           0.1480   -2.4432    1.6662 O.2     1  UNL1       -0.1529
     21 O           0.6503   -0.1583    2.5036 O.2     1  UNL1       -0.1529
     22 C          -2.2186    1.0401   -0.9426 C.ar    1  UNL1       -0.0254
     23 C          -3.4694    0.6753   -0.4350 C.ar    1  UNL1        0.0829
     24 C          -4.6916    1.2263   -1.0103 C.3     1  UNL1        0.4193
     25 F          -5.5794    0.3592   -1.5347 F       1  UNL1       -0.1658
     26 F          -5.3993    1.9605   -0.0462 F       1  UNL1       -0.1658
     27 F          -4.3587    2.1839   -1.9733 F       1  UNL1       -0.1658
     28 H          -6.9789   -1.7326    0.7401 H       1  UNL1        0.1442
     29 H          -5.6008   -2.4090   -0.0744 H       1  UNL1        0.1442
     30 H          -2.3688   -1.3828    1.9267 H       1  UNL1        0.0657
     31 H           0.2492    1.7226   -1.6405 H       1  UNL1        0.1477
     32 H           1.9273    0.0830   -1.6692 H       1  UNL1        0.0685
     33 H           2.1126    1.8234    0.8169 H       1  UNL1        0.0345
     34 H           2.6846    2.1459   -0.8922 H       1  UNL1        0.0345
     35 H           4.5565    1.0090   -1.8484 H       1  UNL1        0.0620
     36 H           6.6326   -0.1505   -1.5050 H       1  UNL1        0.0618
     37 H           7.1089   -1.2377    0.6990 H       1  UNL1        0.0618
     38 H           5.4529   -1.1000    2.4620 H       1  UNL1        0.0618
     39 H           3.3663    0.0593    2.1324 H       1  UNL1        0.0620
     40 H           1.7147   -1.7083   -0.3977 H       1  UNL1        0.1501
     41 H          -2.1703    1.7472   -1.7803 H       1  UNL1        0.0643
@<TRIPOS>BOND
     1     1     2    1
     2     2     3    2
     3     2     4    2
     4     2     5    1
     5     5     6   ar
     6     6     7   ar
     7     7     8   ar
     8     8     9    1
     9     9    10    1
    10    10    11    1
    11    11    12    1
    12    12    13   ar
    13    13    14   ar
    14    14    15   ar
    15    15    16   ar
    16    16    17   ar
    17    10    18    1
    18    18    19    1
    19    19    20    2
    20    19    21    2
    21     8    22   ar
    22    22    23   ar
    23    23    24    1
    24    24    25    1
    25    24    26    1
    26    24    27    1
    27    23     5   ar
    28    19     7    1
    29    17    12   ar
    30     1    28    1
    31     1    29    1
    32     6    30    1
    33     9    31    1
    34    10    32    1
    35    11    33    1
    36    11    34    1
    37    13    35    1
    38    14    36    1
    39    15    37    1
    40    16    38    1
    41    17    39    1
    42    18    40    1
    43    22    41    1
