@<TRIPOS>MOLECULE
*****
 46 48 0 0 0
SMALL
GASTEIGER

@<TRIPOS>ATOM
      1 C          -6.3371    1.6772    0.5782 C.3     1  UNL1        0.0790
      2 O          -5.2396    1.1731   -0.1286 O.3     1  UNL1       -0.4915
      3 C          -3.9184    1.4936    0.1170 C.ar    1  UNL1        0.1615
      4 C          -3.0321    0.8547   -0.7247 C.ar    1  UNL1        0.1618
      5 O          -3.4071   -0.0346   -1.7305 O.3     1  UNL1       -0.4914
      6 C          -2.4686   -0.6642   -2.5373 C.3     1  UNL1        0.0790
      7 C          -1.6797    1.0767   -0.5992 C.ar    1  UNL1       -0.0128
      8 C          -1.0826    1.8988    0.3083 C.ar    1  UNL1       -0.0379
      9 C           0.2840    2.3212    0.6180 C.3     1  UNL1        0.0155
     10 C           1.0613    1.4312    1.4764 C.ar    1  UNL1        0.0534
     11 N           1.0744    1.7574    2.8098 N.ar    1  UNL1       -0.2589
     12 C           1.7420    0.9918    3.6880 C.ar    1  UNL1        0.0285
     13 C           2.4483   -0.1407    3.3715 C.ar    1  UNL1       -0.0357
     14 C           2.4542   -0.4960    2.0308 C.ar    1  UNL1       -0.0110
     15 C           3.1581   -1.6259    1.5800 C.ar    1  UNL1       -0.0085
     16 C           3.1401   -1.9173    0.2278 C.ar    1  UNL1        0.1621
     17 O           3.8046   -2.9566   -0.0830 O.3     1  UNL1       -0.4914
     18 C           4.4923   -4.0316   -0.4022 C.3     1  UNL1        0.0790
     19 C           2.4435   -1.1258   -0.7165 C.ar    1  UNL1        0.1621
     20 O           2.5826   -1.6163   -1.9048 O.3     1  UNL1       -0.4914
     21 C           2.2284   -1.4702   -3.2127 C.3     1  UNL1        0.0790
     22 C           1.7606   -0.0111   -0.2076 C.ar    1  UNL1       -0.0069
     23 C           1.7731    0.2825    1.1233 C.ar    1  UNL1        0.0074
     24 C          -2.0202    2.5221    1.1382 C.ar    1  UNL1       -0.0545
     25 C          -3.3764    2.3414    1.0626 C.ar    1  UNL1       -0.0160
     26 H          -6.1531    1.6257    1.6656 H       1  UNL1        0.0660
     27 H          -7.1987    1.0022    0.3783 H       1  UNL1        0.0660
     28 H          -6.6526    2.6836    0.2293 H       1  UNL1        0.0660
     29 H          -1.9649    0.0721   -3.1782 H       1  UNL1        0.0660
     30 H          -1.6801   -1.1653   -1.8945 H       1  UNL1        0.0660
     31 H          -2.9247   -1.4990   -3.1394 H       1  UNL1        0.0660
     32 H          -0.9761    0.5932   -1.2544 H       1  UNL1        0.0658
     33 H           0.3315    3.3561    1.0380 H       1  UNL1        0.0377
     34 H           0.8328    2.3878   -0.3724 H       1  UNL1        0.0377
     35 H           1.7748    1.2236    4.7609 H       1  UNL1        0.0830
     36 H           2.9987   -0.7851    4.0360 H       1  UNL1        0.0639
     37 H           3.6661   -2.1902    2.3475 H       1  UNL1        0.0661
     38 H           3.9383   -4.8073   -1.0349 H       1  UNL1        0.0660
     39 H           5.4345   -3.8663   -1.0254 H       1  UNL1        0.0660
     40 H           4.8790   -4.6742    0.4470 H       1  UNL1        0.0660
     41 H           1.7101   -2.3760   -3.6463 H       1  UNL1        0.0660
     42 H           1.5894   -0.5801   -3.4335 H       1  UNL1        0.0660
     43 H           3.1249   -1.3253   -3.8821 H       1  UNL1        0.0660
     44 H           1.2734    0.5496   -0.9780 H       1  UNL1        0.0662
     45 H          -1.7741    3.2286    1.9466 H       1  UNL1        0.0622
     46 H          -4.1146    2.8146    1.6938 H       1  UNL1        0.0655
@<TRIPOS>BOND
     1     1     2    1
     2     2     3    1
     3     3     4   ar
     4     4     5    1
     5     5     6    1
     6     4     7   ar
     7     7     8   ar
     8     8     9    1
     9     9    10    1
    10    10    11   ar
    11    11    12   ar
    12    12    13   ar
    13    13    14   ar
    14    14    15   ar
    15    15    16   ar
    16    16    17    1
    17    17    18    1
    18    16    19   ar
    19    19    20    1
    20    20    21    1
    21    19    22   ar
    22    22    23   ar
    23     8    24   ar
    24    24    25   ar
    25    25     3   ar
    26    23    10   ar
    27    23    14   ar
    28     1    26    1
    29     1    27    1
    30     1    28    1
    31     6    29    1
    32     6    30    1
    33     6    31    1
    34     7    32    1
    35     9    33    1
    36     9    34    1
    37    12    35    1
    38    13    36    1
    39    15    37    1
    40    18    38    1
    41    18    39    1
    42    18    40    1
    43    21    41    1
    44    21    42    1
    45    21    43    1
    46    22    44    1
    47    24    45    1
    48    25    46    1
