@<TRIPOS>MOLECULE
*****
 48 51 0 0 0
SMALL
GASTEIGER

@<TRIPOS>ATOM
      1 C          -2.7011   -0.6635    1.7199 C.3     1  UNL1       -0.0295
      2 C          -1.8393   -0.0500    0.6684 C.3     1  UNL1        0.1580
      3 C          -0.6624    0.6699    1.1746 C.ar    1  UNL1        0.0226
      4 C           0.6373    0.3008    0.8041 C.ar    1  UNL1       -0.0321
      5 C           1.7521    0.9550    1.2449 C.ar    1  UNL1        0.0342
      6 N           3.0808    0.6398    0.9146 N.am    1  UNL1       -0.2802
      7 C           3.5434   -0.3909    0.0806 C.2     1  UNL1        0.2666
      8 O           2.7330   -1.1561   -0.4653 O.2     1  UNL1       -0.2682
      9 C           4.9738   -0.6151   -0.1852 C.ar    1  UNL1        0.1257
     10 C           5.4049   -1.6333   -1.0071 C.ar    1  UNL1       -0.0298
     11 C           6.7482   -1.8535   -1.2641 C.ar    1  UNL1       -0.0397
     12 C           7.7014   -1.0402   -0.6899 C.ar    1  UNL1        0.0591
     13 CL          9.4197   -1.2472   -0.9603 Cl      1  UNL1       -0.0820
     14 C           7.2386   -0.0228    0.1335 C.ar    1  UNL1        0.0467
     15 N           5.9105    0.1727    0.3702 N.ar    1  UNL1       -0.2489
     16 C           1.5196    2.0296    2.0993 C.ar    1  UNL1       -0.0377
     17 C           0.2871    2.4418    2.4996 C.ar    1  UNL1       -0.0243
     18 C          -0.8211    1.7384    2.0202 C.ar    1  UNL1        0.1292
     19 F          -2.0164    2.1910    2.4675 F       1  UNL1       -0.2051
     20 N          -1.3607   -1.1551   -0.1954 N.2     1  UNL1       -0.2196
     21 C          -2.2966   -1.7295   -0.8943 C.2     1  UNL1        0.2768
     22 N          -1.9249   -2.7994   -1.7499 N.pl3   1  UNL1       -0.3133
     23 O          -3.5917   -1.2606   -0.7583 O.2     1  UNL1       -0.4532
     24 C          -3.8777    0.1156   -0.7235 C.3     1  UNL1        0.1786
     25 C          -4.4546    0.6721   -2.0067 C.3     1  UNL1       -0.0068
     26 C          -5.7418    1.0640   -1.3113 C.3     1  UNL1       -0.0454
     27 C          -5.1266    0.5291   -0.0119 C.3     1  UNL1       -0.0068
     28 C          -2.6205    0.8315   -0.3085 C.3     1  UNL1        0.3159
     29 F          -2.8033    2.1036    0.1060 F       1  UNL1       -0.1983
     30 F          -1.8210    0.8990   -1.4593 F       1  UNL1       -0.1983
     31 H          -2.9858   -1.7255    1.4620 H       1  UNL1        0.0258
     32 H          -3.6323   -0.1399    1.9327 H       1  UNL1        0.0258
     33 H          -2.1662   -0.7615    2.7077 H       1  UNL1        0.0258
     34 H           0.7277   -0.5368    0.1439 H       1  UNL1        0.0640
     35 H           3.8662    1.2374    1.3312 H       1  UNL1        0.1552
     36 H           4.6457   -2.2663   -1.4531 H       1  UNL1        0.0641
     37 H           7.0925   -2.6486   -1.9064 H       1  UNL1        0.0633
     38 H           8.0012    0.6072    0.5767 H       1  UNL1        0.0844
     39 H           2.3918    2.5806    2.4746 H       1  UNL1        0.0637
     40 H           0.1860    3.2819    3.1624 H       1  UNL1        0.0647
     41 H          -2.0468   -3.7766   -1.4689 H       1  UNL1        0.1466
     42 H          -1.5200   -2.5756   -2.6818 H       1  UNL1        0.1466
     43 H          -4.6206   -0.0961   -2.7941 H       1  UNL1        0.0306
     44 H          -3.9325    1.5604   -2.4112 H       1  UNL1        0.0306
     45 H          -6.6085    0.4243   -1.6213 H       1  UNL1        0.0268
     46 H          -5.9700    2.1381   -1.3024 H       1  UNL1        0.0268
     47 H          -5.6600   -0.3884    0.3722 H       1  UNL1        0.0306
     48 H          -5.0593    1.3484    0.7076 H       1  UNL1        0.0306
@<TRIPOS>BOND
     1     1     2    1
     2     2     3    1
     3     3     4   ar
     4     4     5   ar
     5     5     6    1
     6     6     7   am
     7     7     8    2
     8     7     9    1
     9     9    10   ar
    10    10    11   ar
    11    11    12   ar
    12    12    13    1
    13    12    14   ar
    14    14    15   ar
    15     5    16   ar
    16    16    17   ar
    17    17    18   ar
    18    18    19    1
    19     2    20    1
    20    20    21    2
    21    21    22    1
    22    21    23    1
    23    23    24    1
    24    24    25    1
    25    25    26    1
    26    26    27    1
    27    24    28    1
    28    28    29    1
    29    28    30    1
    30    28     2    1
    31    18     3   ar
    32    27    24    1
    33    15     9   ar
    34     1    31    1
    35     1    32    1
    36     1    33    1
    37     4    34    1
    38     6    35    1
    39    10    36    1
    40    11    37    1
    41    14    38    1
    42    16    39    1
    43    17    40    1
    44    22    41    1
    45    22    42    1
    46    25    43    1
    47    25    44    1
    48    26    45    1
    49    26    46    1
    50    27    47    1
    51    27    48    1
