@<TRIPOS>MOLECULE
*****
 55 57 0 0 0
SMALL
GASTEIGER

@<TRIPOS>ATOM
      1 C          -1.7878    0.6399    2.1960 C.3     1  UNL1        0.0370
      2 O          -1.8400   -0.4957    1.4404 O.3     1  UNL1       -0.3756
      3 C          -1.1700   -0.4807    0.2506 C.3     1  UNL1        0.1034
      4 C          -0.1138   -1.4881    0.0571 C.3     1  UNL1        0.0512
      5 C           1.2479   -0.8099   -0.0800 C.3     1  UNL1        0.1015
      6 C           1.4429    0.1629   -1.2128 C.3     1  UNL1       -0.0329
      7 O           1.6844   -0.1788    1.1948 O.3     1  UNL1       -0.3642
      8 C           2.3485   -1.3138    0.6972 C.3     1  UNL1        0.0920
      9 C           3.7887   -1.0947    0.4306 C.3     1  UNL1       -0.0054
     10 C           4.2352    0.2906    0.4276 C.2     1  UNL1       -0.0828
     11 C           5.1513    0.6965    1.2827 C.2     1  UNL1       -0.0795
     12 C           5.6597    2.0934    1.3431 C.3     1  UNL1       -0.0440
     13 C           5.7312   -0.2813    2.2618 C.3     1  UNL1       -0.0440
     14 C          -0.3329   -2.5204   -0.9885 C.3     1  UNL1        0.1009
     15 C          -1.7252   -2.8084   -1.3930 C.3     1  UNL1       -0.0177
     16 C          -2.7691   -1.9203   -0.8308 C.3     1  UNL1       -0.0104
     17 C          -2.2041   -0.4994   -0.8552 C.3     1  UNL1        0.1312
     18 O          -3.2667    0.3379   -0.4332 O.3     1  UNL1       -0.4442
     19 C          -3.7762    1.3863   -1.1797 C.2     1  UNL1        0.4070
     20 O          -3.2764    1.6227   -2.3050 O.2     1  UNL1       -0.2260
     21 N          -4.8571    2.1916   -0.6803 N.am    1  UNL1       -0.2206
     22 C          -5.4001    3.2696   -1.4289 C.2     1  UNL1        0.2364
     23 O          -4.9011    3.5048   -2.5545 O.2     1  UNL1       -0.2740
     24 C          -6.5156    4.1049   -0.9261 C.3     1  UNL1        0.0993
     25 CL         -7.0510    3.5947    0.6691 Cl      1  UNL1       -0.1156
     26 C           0.7592   -3.5241   -1.3055 C.3     1  UNL1        0.0779
     27 O           0.5533   -2.4308   -2.1317 O.3     1  UNL1       -0.3678
     28 H          -2.2268    1.4842    1.6025 H       1  UNL1        0.0524
     29 H          -2.4587    0.5043    3.0690 H       1  UNL1        0.0524
     30 H          -0.8062    0.9105    2.5818 H       1  UNL1        0.0524
     31 H          -0.7026    0.5473    0.1775 H       1  UNL1        0.0637
     32 H          -0.0440   -2.0602    1.0337 H       1  UNL1        0.0385
     33 H           1.5187    1.2192   -0.8832 H       1  UNL1        0.0258
     34 H           2.3499   -0.0336   -1.8220 H       1  UNL1        0.0258
     35 H           0.5637    0.1405   -1.9225 H       1  UNL1        0.0258
     36 H           2.1274   -2.2152    1.3371 H       1  UNL1        0.0628
     37 H           4.3947   -1.7494    1.1196 H       1  UNL1        0.0333
     38 H           4.0338   -1.5228   -0.5888 H       1  UNL1        0.0333
     39 H           3.8360    1.0072   -0.2607 H       1  UNL1        0.0572
     40 H           5.0232    2.8014    0.7861 H       1  UNL1        0.0274
     41 H           5.6619    2.4072    2.4082 H       1  UNL1        0.0274
     42 H           6.7312    2.1260    1.0183 H       1  UNL1        0.0274
     43 H           6.4189    0.2155    2.9671 H       1  UNL1        0.0274
     44 H           4.8743   -0.7239    2.8163 H       1  UNL1        0.0274
     45 H           6.2663   -1.0786    1.7045 H       1  UNL1        0.0274
     46 H          -1.8824   -2.8408   -2.5121 H       1  UNL1        0.0295
     47 H          -1.9697   -3.8621   -1.0614 H       1  UNL1        0.0295
     48 H          -3.6912   -2.0049   -1.4246 H       1  UNL1        0.0303
     49 H          -2.9006   -2.1709    0.2407 H       1  UNL1        0.0303
     50 H          -1.8128   -0.2352   -1.8401 H       1  UNL1        0.0761
     51 H          -5.2566    1.9721    0.2665 H       1  UNL1        0.1609
     52 H          -7.3803    4.0168   -1.6452 H       1  UNL1        0.0525
     53 H          -6.2234    5.1667   -0.9214 H       1  UNL1        0.0525
     54 H           1.5892   -3.5504   -0.5844 H       1  UNL1        0.0589
     55 H           0.3509   -4.5201   -1.6080 H       1  UNL1        0.0589
@<TRIPOS>BOND
     1     1     2    1
     2     2     3    1
     3     3     4    1
     4     4     5    1
     5     5     6    1
     6     5     7    1
     7     7     8    1
     8     8     9    1
     9     9    10    1
    10    10    11    2
    11    11    12    1
    12    11    13    1
    13     4    14    1
    14    14    15    1
    15    15    16    1
    16    16    17    1
    17    17    18    1
    18    18    19    1
    19    19    20    2
    20    19    21   am
    21    21    22   am
    22    22    23    2
    23    22    24    1
    24    24    25    1
    25    14    26    1
    26    26    27    1
    27    17     3    1
    28     8     5    1
    29    14    27    1
    30     1    28    1
    31     1    29    1
    32     1    30    1
    33     3    31    1
    34     4    32    1
    35     6    33    1
    36     6    34    1
    37     6    35    1
    38     8    36    1
    39     9    37    1
    40     9    38    1
    41    10    39    1
    42    12    40    1
    43    12    41    1
    44    12    42    1
    45    13    43    1
    46    13    44    1
    47    13    45    1
    48    15    46    1
    49    15    47    1
    50    16    48    1
    51    16    49    1
    52    17    50    1
    53    21    51    1
    54    24    52    1
    55    24    53    1
    56    26    54    1
    57    26    55    1
