
     RDKit          3D

 55 57  0  0  0  0  0  0  0  0999 V2000
   -1.7878    0.6399    2.1960 C   0  0  0  0  0  0  0  0  0  0  0  0
   -1.8400   -0.4957    1.4404 O   0  0  0  0  0  0  0  0  0  0  0  0
   -1.1700   -0.4807    0.2506 C   0  0  1  0  0  0  0  0  0  0  0  0
   -0.1138   -1.4881    0.0571 C   0  0  2  0  0  0  0  0  0  0  0  0
    1.2479   -0.8099   -0.0800 C   0  0  1  0  0  0  0  0  0  0  0  0
    1.4429    0.1629   -1.2128 C   0  0  0  0  0  0  0  0  0  0  0  0
    1.6844   -0.1788    1.1948 O   0  0  0  0  0  0  0  0  0  0  0  0
    2.3485   -1.3138    0.6972 C   0  0  2  0  0  0  0  0  0  0  0  0
    3.7887   -1.0947    0.4306 C   0  0  0  0  0  0  0  0  0  0  0  0
    4.2352    0.2906    0.4276 C   0  0  0  0  0  0  0  0  0  0  0  0
    5.1513    0.6965    1.2827 C   0  0  0  0  0  0  0  0  0  0  0  0
    5.6597    2.0934    1.3431 C   0  0  0  0  0  0  0  0  0  0  0  0
    5.7312   -0.2813    2.2618 C   0  0  0  0  0  0  0  0  0  0  0  0
   -0.3329   -2.5204   -0.9885 C   0  0  2  0  0  0  0  0  0  0  0  0
   -1.7252   -2.8084   -1.3930 C   0  0  0  0  0  0  0  0  0  0  0  0
   -2.7691   -1.9203   -0.8308 C   0  0  0  0  0  0  0  0  0  0  0  0
   -2.2041   -0.4994   -0.8552 C   0  0  1  0  0  0  0  0  0  0  0  0
   -3.2667    0.3379   -0.4332 O   0  0  0  0  0  0  0  0  0  0  0  0
   -3.7762    1.3863   -1.1797 C   0  0  0  0  0  0  0  0  0  0  0  0
   -3.2764    1.6227   -2.3050 O   0  0  0  0  0  0  0  0  0  0  0  0
   -4.8571    2.1916   -0.6803 N   0  0  0  0  0  0  0  0  0  0  0  0
   -5.4001    3.2696   -1.4289 C   0  0  0  0  0  0  0  0  0  0  0  0
   -4.9011    3.5048   -2.5545 O   0  0  0  0  0  0  0  0  0  0  0  0
   -6.5156    4.1049   -0.9261 C   0  0  0  0  0  0  0  0  0  0  0  0
   -7.0510    3.5947    0.6691 Cl  0  0  0  0  0  0  0  0  0  0  0  0
    0.7592   -3.5241   -1.3055 C   0  0  0  0  0  0  0  0  0  0  0  0
    0.5533   -2.4308   -2.1317 O   0  0  0  0  0  0  0  0  0  0  0  0
   -2.2268    1.4842    1.6025 H   0  0  0  0  0  0  0  0  0  0  0  0
   -2.4587    0.5043    3.0690 H   0  0  0  0  0  0  0  0  0  0  0  0
   -0.8062    0.9105    2.5818 H   0  0  0  0  0  0  0  0  0  0  0  0
   -0.7026    0.5473    0.1775 H   0  0  0  0  0  0  0  0  0  0  0  0
   -0.0440   -2.0602    1.0337 H   0  0  0  0  0  0  0  0  0  0  0  0
    1.5187    1.2192   -0.8832 H   0  0  0  0  0  0  0  0  0  0  0  0
    2.3499   -0.0336   -1.8220 H   0  0  0  0  0  0  0  0  0  0  0  0
    0.5637    0.1405   -1.9225 H   0  0  0  0  0  0  0  0  0  0  0  0
    2.1274   -2.2152    1.3371 H   0  0  0  0  0  0  0  0  0  0  0  0
    4.3947   -1.7494    1.1196 H   0  0  0  0  0  0  0  0  0  0  0  0
    4.0338   -1.5228   -0.5888 H   0  0  0  0  0  0  0  0  0  0  0  0
    3.8360    1.0072   -0.2607 H   0  0  0  0  0  0  0  0  0  0  0  0
    5.0232    2.8014    0.7861 H   0  0  0  0  0  0  0  0  0  0  0  0
    5.6619    2.4072    2.4082 H   0  0  0  0  0  0  0  0  0  0  0  0
    6.7312    2.1260    1.0183 H   0  0  0  0  0  0  0  0  0  0  0  0
    6.4189    0.2155    2.9671 H   0  0  0  0  0  0  0  0  0  0  0  0
    4.8743   -0.7239    2.8163 H   0  0  0  0  0  0  0  0  0  0  0  0
    6.2663   -1.0786    1.7045 H   0  0  0  0  0  0  0  0  0  0  0  0
   -1.8824   -2.8408   -2.5121 H   0  0  0  0  0  0  0  0  0  0  0  0
   -1.9697   -3.8621   -1.0614 H   0  0  0  0  0  0  0  0  0  0  0  0
   -3.6912   -2.0049   -1.4246 H   0  0  0  0  0  0  0  0  0  0  0  0
   -2.9006   -2.1709    0.2407 H   0  0  0  0  0  0  0  0  0  0  0  0
   -1.8128   -0.2352   -1.8401 H   0  0  0  0  0  0  0  0  0  0  0  0
   -5.2566    1.9721    0.2665 H   0  0  0  0  0  0  0  0  0  0  0  0
   -7.3803    4.0168   -1.6452 H   0  0  0  0  0  0  0  0  0  0  0  0
   -6.2234    5.1667   -0.9214 H   0  0  0  0  0  0  0  0  0  0  0  0
    1.5892   -3.5504   -0.5844 H   0  0  0  0  0  0  0  0  0  0  0  0
    0.3509   -4.5201   -1.6080 H   0  0  0  0  0  0  0  0  0  0  0  0
  1  2  1  0
  2  3  1  0
  3  4  1  0
  4  5  1  0
  5  6  1  6
  5  7  1  0
  7  8  1  0
  8  9  1  0
  9 10  1  0
 10 11  2  3
 11 12  1  0
 11 13  1  0
  4 14  1  0
 14 15  1  0
 15 16  1  0
 16 17  1  0
 17 18  1  0
 18 19  1  0
 19 20  2  0
 19 21  1  0
 21 22  1  0
 22 23  2  0
 22 24  1  0
 24 25  1  0
 14 26  1  0
 26 27  1  0
 17  3  1  0
  8  5  1  0
 14 27  1  6
  1 28  1  0
  1 29  1  0
  1 30  1  0
  3 31  1  1
  4 32  1  1
  6 33  1  0
  6 34  1  0
  6 35  1  0
  8 36  1  1
  9 37  1  0
  9 38  1  0
 10 39  1  0
 12 40  1  0
 12 41  1  0
 12 42  1  0
 13 43  1  0
 13 44  1  0
 13 45  1  0
 15 46  1  0
 15 47  1  0
 16 48  1  0
 16 49  1  0
 17 50  1  6
 21 51  1  0
 24 52  1  0
 24 53  1  0
 26 54  1  0
 26 55  1  0
M  END
$$$$
