@<TRIPOS>MOLECULE
*****
 114 121 0 0 0
SMALL
GASTEIGER

@<TRIPOS>ATOM
      1 C         -10.8933   -3.0509   -0.6571 C.3     1  UNL1       -0.0437
      2 C         -10.1650   -1.8216   -1.1161 C.2     1  UNL1       -0.0739
      3 C         -10.7557   -1.0016   -1.9695 C.2     1  UNL1       -0.0812
      4 C         -10.3713    0.4367   -1.9004 C.3     1  UNL1       -0.0122
      5 C         -11.0416    1.0121   -0.6877 C.3     1  UNL1       -0.0055
      6 C         -10.1690    1.0335    0.4965 C.ar    1  UNL1        0.0248
      7 N         -10.6652    1.6405    1.5974 N.ar    1  UNL1       -0.3259
      8 C          -9.9985    1.7557    2.7499 C.ar    1  UNL1        0.2489
      9 O         -10.5394    2.3442    3.7436 O.2     1  UNL1       -0.2679
     10 C          -8.7383    1.2328    2.8330 C.ar    1  UNL1        0.0031
     11 C          -8.1930    0.5975    1.7130 C.ar    1  UNL1       -0.0498
     12 C          -8.9124    0.5030    0.5552 C.ar    1  UNL1       -0.0039
     13 C          -8.3379   -0.1717   -0.6251 C.3     1  UNL1        0.0711
     14 C          -8.7973   -1.6125   -0.5705 C.3     1  UNL1       -0.0059
     15 C          -8.8762    0.5233   -1.8585 C.3     1  UNL1       -0.0083
     16 C          -8.4853    1.9537   -1.8177 C.3     1  UNL1       -0.0460
     17 C          -7.0168    2.1977   -1.7421 C.3     1  UNL1       -0.0368
     18 C          -6.1995    1.0692   -1.2808 C.3     1  UNL1        0.0156
     19 N          -6.8902   -0.0430   -0.6682 N.am    1  UNL1       -0.2900
     20 C          -6.0810   -1.0357   -0.0973 C.2     1  UNL1        0.2303
     21 O          -6.5689   -2.0328    0.4583 O.2     1  UNL1       -0.2742
     22 C          -4.6101   -0.9345   -0.1362 C.3     1  UNL1        0.0757
     23 N          -3.9476   -2.0431    0.4637 N.3     1  UNL1       -0.2971
     24 C          -4.0719   -3.2845   -0.2298 C.3     1  UNL1       -0.0123
     25 C          -2.6601   -1.7536    0.9974 C.3     1  UNL1       -0.0009
     26 C          -1.6396   -1.4121   -0.0661 C.3     1  UNL1       -0.0402
     27 C          -0.2838   -1.1477    0.4992 C.3     1  UNL1       -0.0519
     28 C          -0.1975   -0.0317    1.4866 C.3     1  UNL1       -0.0519
     29 C           1.2293    0.0790    1.9628 C.3     1  UNL1       -0.0402
     30 C           2.2270    0.3861    0.9052 C.3     1  UNL1       -0.0009
     31 N           3.5833    0.4333    1.4945 N.3     1  UNL1       -0.2971
     32 C           3.6033    1.6045    2.3594 C.3     1  UNL1       -0.0123
     33 C           4.5576    0.5614    0.4218 C.3     1  UNL1        0.0757
     34 C           5.9630    0.4906    0.9148 C.2     1  UNL1        0.2303
     35 O           6.1009    0.3258    2.1403 O.2     1  UNL1       -0.2742
     36 N           7.0180    0.6087   -0.0059 N.am    1  UNL1       -0.2900
     37 C           6.6904    0.8173   -1.4190 C.3     1  UNL1        0.0156
     38 C           7.7038    1.6649   -2.1165 C.3     1  UNL1       -0.0368
     39 C           8.5187    2.5271   -1.2150 C.3     1  UNL1       -0.0460
     40 C           9.0337    1.8891    0.0229 C.3     1  UNL1       -0.0083
     41 C          10.5468    1.8263    0.0731 C.3     1  UNL1       -0.0122
     42 C          10.9315    1.2003    1.3670 C.2     1  UNL1       -0.0812
     43 C          10.2298    0.2328    1.9272 C.2     1  UNL1       -0.0739
     44 C          10.8959   -0.7547    2.8003 C.3     1  UNL1       -0.0437
     45 C           8.7505    0.1012    1.7013 C.3     1  UNL1       -0.0059
     46 C           8.4170    0.5316    0.2894 C.3     1  UNL1        0.0711
     47 C           9.0484   -0.4894   -0.6007 C.ar    1  UNL1       -0.0039
     48 C           8.3625   -1.6602   -0.8123 C.ar    1  UNL1       -0.0498
     49 C           8.8841   -2.6470   -1.6285 C.ar    1  UNL1        0.0031
     50 C          10.1107   -2.4047   -2.2137 C.ar    1  UNL1        0.2489
     51 O          10.6178   -3.2825   -2.9661 O.2     1  UNL1       -0.2679
     52 N          10.7451   -1.2554   -1.9828 N.ar    1  UNL1       -0.3259
     53 C          10.2490   -0.2712   -1.1828 C.ar    1  UNL1        0.0248
     54 C          11.0916    0.9450   -1.0343 C.3     1  UNL1       -0.0055
     55 H         -10.3904   -3.9162   -1.1604 H       1  UNL1        0.0274
     56 H         -11.9696   -2.9843   -0.8831 H       1  UNL1        0.0274
     57 H         -10.7739   -3.1561    0.4354 H       1  UNL1        0.0274
     58 H         -11.4876   -1.3680   -2.6847 H       1  UNL1        0.0575
     59 H         -10.7277    0.9986   -2.8006 H       1  UNL1        0.0350
     60 H         -11.3900    2.0566   -0.9080 H       1  UNL1        0.0333
     61 H         -11.9638    0.4363   -0.4723 H       1  UNL1        0.0333
     62 H         -11.6397    2.0639    1.5872 H       1  UNL1        0.1686
     63 H          -8.1924    1.3202    3.7568 H       1  UNL1        0.0672
     64 H          -7.1941    0.2141    1.8591 H       1  UNL1        0.0623
     65 H          -8.1502   -2.3158   -1.1116 H       1  UNL1        0.0334
     66 H          -8.8418   -1.9248    0.4887 H       1  UNL1        0.0334
     67 H          -8.4912    0.0669   -2.7924 H       1  UNL1        0.0331
     68 H          -8.9178    2.4259   -2.7534 H       1  UNL1        0.0269
     69 H          -8.9639    2.5194   -0.9963 H       1  UNL1        0.0269
     70 H          -6.8028    3.1314   -1.1427 H       1  UNL1        0.0280
     71 H          -6.6692    2.4741   -2.7824 H       1  UNL1        0.0280
     72 H          -5.5289    0.6516   -2.0864 H       1  UNL1        0.0465
     73 H          -5.4715    1.4370   -0.4982 H       1  UNL1        0.0465
     74 H          -4.3302   -0.9285   -1.2264 H       1  UNL1        0.0522
     75 H          -4.2393    0.0202    0.2717 H       1  UNL1        0.0522
     76 H          -5.0077   -3.7834    0.0880 H       1  UNL1        0.0391
     77 H          -3.2483   -3.9586    0.1498 H       1  UNL1        0.0391
     78 H          -3.9342   -3.2186   -1.3184 H       1  UNL1        0.0391
     79 H          -2.2941   -2.6488    1.5417 H       1  UNL1        0.0427
     80 H          -2.7608   -0.9431    1.7499 H       1  UNL1        0.0427
     81 H          -1.9516   -0.5698   -0.7015 H       1  UNL1        0.0278
     82 H          -1.5513   -2.2887   -0.7389 H       1  UNL1        0.0278
     83 H           0.1761   -2.0529    0.9638 H       1  UNL1        0.0266
     84 H           0.3938   -0.9078   -0.3656 H       1  UNL1        0.0266
     85 H          -0.7869   -0.3496    2.3973 H       1  UNL1        0.0266
     86 H          -0.5894    0.9275    1.0971 H       1  UNL1        0.0266
     87 H           1.4441   -0.8904    2.4960 H       1  UNL1        0.0278
     88 H           1.2222    0.8672    2.7572 H       1  UNL1        0.0278
     89 H           2.2114   -0.2305    0.0146 H       1  UNL1        0.0427
     90 H           2.0446    1.4514    0.5780 H       1  UNL1        0.0427
     91 H           3.1829    1.3732    3.3574 H       1  UNL1        0.0391
     92 H           4.5889    2.0648    2.4108 H       1  UNL1        0.0391
     93 H           2.9263    2.3560    1.9049 H       1  UNL1        0.0391
     94 H           4.3694   -0.2525   -0.3032 H       1  UNL1        0.0522
     95 H           4.3564    1.5641   -0.0293 H       1  UNL1        0.0522
     96 H           5.6625    1.2086   -1.5356 H       1  UNL1        0.0465
     97 H           6.6980   -0.1818   -1.8946 H       1  UNL1        0.0465
     98 H           8.3175    1.0697   -2.8550 H       1  UNL1        0.0280
     99 H           7.1279    2.3619   -2.7981 H       1  UNL1        0.0280
    100 H           9.3807    2.9047   -1.8228 H       1  UNL1        0.0269
    101 H           7.9124    3.4563   -0.9976 H       1  UNL1        0.0269
    102 H           8.7426    2.5537    0.8905 H       1  UNL1        0.0331
    103 H          10.9308    2.8557   -0.0321 H       1  UNL1        0.0350
    104 H          11.8218    1.5441    1.8805 H       1  UNL1        0.0575
    105 H          10.1798   -1.2617    3.4954 H       1  UNL1        0.0274
    106 H          11.7071   -0.3418    3.4045 H       1  UNL1        0.0274
    107 H          11.3356   -1.5699    2.1601 H       1  UNL1        0.0274
    108 H           8.2843    0.6876    2.4895 H       1  UNL1        0.0334
    109 H           8.4955   -0.9603    1.8388 H       1  UNL1        0.0334
    110 H           7.3918   -1.8558   -0.3467 H       1  UNL1        0.0623
    111 H           8.3623   -3.5731   -1.8099 H       1  UNL1        0.0672
    112 H          11.6789   -1.1257   -2.4574 H       1  UNL1        0.1686
    113 H          11.2120    1.5060   -1.9685 H       1  UNL1        0.0333
    114 H          12.0995    0.6069   -0.7144 H       1  UNL1        0.0333
@<TRIPOS>BOND
     1     1     2    1
     2     2     3    2
     3     3     4    1
     4     4     5    1
     5     5     6    1
     6     6     7   ar
     7     7     8   ar
     8     8     9    2
     9     8    10   ar
    10    10    11   ar
    11    11    12   ar
    12    12    13    1
    13    13    14    1
    14    13    15    1
    15    15    16    1
    16    16    17    1
    17    17    18    1
    18    18    19    1
    19    19    20   am
    20    20    21    2
    21    20    22    1
    22    22    23    1
    23    23    24    1
    24    23    25    1
    25    25    26    1
    26    26    27    1
    27    27    28    1
    28    28    29    1
    29    29    30    1
    30    30    31    1
    31    31    32    1
    32    31    33    1
    33    33    34    1
    34    34    35    2
    35    34    36   am
    36    36    37    1
    37    37    38    1
    38    38    39    1
    39    39    40    1
    40    40    41    1
    41    41    42    1
    42    42    43    2
    43    43    44    1
    44    43    45    1
    45    45    46    1
    46    46    47    1
    47    47    48   ar
    48    48    49   ar
    49    49    50   ar
    50    50    51    2
    51    50    52   ar
    52    52    53   ar
    53    53    54    1
    54    14     2    1
    55    46    36    1
    56    53    47   ar
    57    15     4    1
    58    46    40    1
    59    12     6   ar
    60    13    19    1
    61    54    41    1
    62     1    55    1
    63     1    56    1
    64     1    57    1
    65     3    58    1
    66     4    59    1
    67     5    60    1
    68     5    61    1
    69     7    62    1
    70    10    63    1
    71    11    64    1
    72    14    65    1
    73    14    66    1
    74    15    67    1
    75    16    68    1
    76    16    69    1
    77    17    70    1
    78    17    71    1
    79    18    72    1
    80    18    73    1
    81    22    74    1
    82    22    75    1
    83    24    76    1
    84    24    77    1
    85    24    78    1
    86    25    79    1
    87    25    80    1
    88    26    81    1
    89    26    82    1
    90    27    83    1
    91    27    84    1
    92    28    85    1
    93    28    86    1
    94    29    87    1
    95    29    88    1
    96    30    89    1
    97    30    90    1
    98    32    91    1
    99    32    92    1
   100    32    93    1
   101    33    94    1
   102    33    95    1
   103    37    96    1
   104    37    97    1
   105    38    98    1
   106    38    99    1
   107    39   100    1
   108    39   101    1
   109    40   102    1
   110    41   103    1
   111    42   104    1
   112    44   105    1
   113    44   106    1
   114    44   107    1
   115    45   108    1
   116    45   109    1
   117    48   110    1
   118    49   111    1
   119    52   112    1
   120    54   113    1
   121    54   114    1
