
     RDKit          3D

114121  0  0  0  0  0  0  0  0999 V2000
  -10.8933   -3.0509   -0.6571 C   0  0  0  0  0  0  0  0  0  0  0  0
  -10.1650   -1.8216   -1.1161 C   0  0  0  0  0  0  0  0  0  0  0  0
  -10.7557   -1.0016   -1.9695 C   0  0  0  0  0  0  0  0  0  0  0  0
  -10.3713    0.4367   -1.9004 C   0  0  0  0  0  0  0  0  0  0  0  0
  -11.0416    1.0121   -0.6877 C   0  0  0  0  0  0  0  0  0  0  0  0
  -10.1690    1.0335    0.4965 C   0  0  0  0  0  0  0  0  0  0  0  0
  -10.6652    1.6405    1.5974 N   0  0  0  0  0  0  0  0  0  0  0  0
   -9.9985    1.7557    2.7499 C   0  0  0  0  0  0  0  0  0  0  0  0
  -10.5394    2.3442    3.7436 O   0  0  0  0  0  0  0  0  0  0  0  0
   -8.7383    1.2328    2.8330 C   0  0  0  0  0  0  0  0  0  0  0  0
   -8.1930    0.5975    1.7130 C   0  0  0  0  0  0  0  0  0  0  0  0
   -8.9124    0.5030    0.5552 C   0  0  0  0  0  0  0  0  0  0  0  0
   -8.3379   -0.1717   -0.6251 C   0  0  1  0  0  0  0  0  0  0  0  0
   -8.7973   -1.6125   -0.5705 C   0  0  0  0  0  0  0  0  0  0  0  0
   -8.8762    0.5233   -1.8585 C   0  0  2  0  0  0  0  0  0  0  0  0
   -8.4853    1.9537   -1.8177 C   0  0  0  0  0  0  0  0  0  0  0  0
   -7.0168    2.1977   -1.7421 C   0  0  0  0  0  0  0  0  0  0  0  0
   -6.1995    1.0692   -1.2808 C   0  0  0  0  0  0  0  0  0  0  0  0
   -6.8902   -0.0430   -0.6682 N   0  0  0  0  0  0  0  0  0  0  0  0
   -6.0810   -1.0357   -0.0973 C   0  0  0  0  0  0  0  0  0  0  0  0
   -6.5689   -2.0328    0.4583 O   0  0  0  0  0  0  0  0  0  0  0  0
   -4.6101   -0.9345   -0.1362 C   0  0  0  0  0  0  0  0  0  0  0  0
   -3.9476   -2.0431    0.4637 N   0  0  0  0  0  0  0  0  0  0  0  0
   -4.0719   -3.2845   -0.2298 C   0  0  0  0  0  0  0  0  0  0  0  0
   -2.6601   -1.7536    0.9974 C   0  0  0  0  0  0  0  0  0  0  0  0
   -1.6396   -1.4121   -0.0661 C   0  0  0  0  0  0  0  0  0  0  0  0
   -0.2838   -1.1477    0.4992 C   0  0  0  0  0  0  0  0  0  0  0  0
   -0.1975   -0.0317    1.4866 C   0  0  0  0  0  0  0  0  0  0  0  0
    1.2293    0.0790    1.9628 C   0  0  0  0  0  0  0  0  0  0  0  0
    2.2270    0.3861    0.9052 C   0  0  0  0  0  0  0  0  0  0  0  0
    3.5833    0.4333    1.4945 N   0  0  0  0  0  0  0  0  0  0  0  0
    3.6033    1.6045    2.3594 C   0  0  0  0  0  0  0  0  0  0  0  0
    4.5576    0.5614    0.4218 C   0  0  0  0  0  0  0  0  0  0  0  0
    5.9630    0.4906    0.9148 C   0  0  0  0  0  0  0  0  0  0  0  0
    6.1009    0.3258    2.1403 O   0  0  0  0  0  0  0  0  0  0  0  0
    7.0180    0.6087   -0.0059 N   0  0  0  0  0  0  0  0  0  0  0  0
    6.6904    0.8173   -1.4190 C   0  0  0  0  0  0  0  0  0  0  0  0
    7.7038    1.6649   -2.1165 C   0  0  0  0  0  0  0  0  0  0  0  0
    8.5187    2.5271   -1.2150 C   0  0  0  0  0  0  0  0  0  0  0  0
    9.0337    1.8891    0.0229 C   0  0  2  0  0  0  0  0  0  0  0  0
   10.5468    1.8263    0.0731 C   0  0  0  0  0  0  0  0  0  0  0  0
   10.9315    1.2003    1.3670 C   0  0  0  0  0  0  0  0  0  0  0  0
   10.2298    0.2328    1.9272 C   0  0  0  0  0  0  0  0  0  0  0  0
   10.8959   -0.7547    2.8003 C   0  0  0  0  0  0  0  0  0  0  0  0
    8.7505    0.1012    1.7013 C   0  0  0  0  0  0  0  0  0  0  0  0
    8.4170    0.5316    0.2894 C   0  0  1  0  0  0  0  0  0  0  0  0
    9.0484   -0.4894   -0.6007 C   0  0  0  0  0  0  0  0  0  0  0  0
    8.3625   -1.6602   -0.8123 C   0  0  0  0  0  0  0  0  0  0  0  0
    8.8841   -2.6470   -1.6285 C   0  0  0  0  0  0  0  0  0  0  0  0
   10.1107   -2.4047   -2.2137 C   0  0  0  0  0  0  0  0  0  0  0  0
   10.6178   -3.2825   -2.9661 O   0  0  0  0  0  0  0  0  0  0  0  0
   10.7451   -1.2554   -1.9828 N   0  0  0  0  0  0  0  0  0  0  0  0
   10.2490   -0.2712   -1.1828 C   0  0  0  0  0  0  0  0  0  0  0  0
   11.0916    0.9450   -1.0343 C   0  0  0  0  0  0  0  0  0  0  0  0
  -10.3904   -3.9162   -1.1604 H   0  0  0  0  0  0  0  0  0  0  0  0
  -11.9696   -2.9843   -0.8831 H   0  0  0  0  0  0  0  0  0  0  0  0
  -10.7739   -3.1561    0.4354 H   0  0  0  0  0  0  0  0  0  0  0  0
  -11.4876   -1.3680   -2.6847 H   0  0  0  0  0  0  0  0  0  0  0  0
  -10.7277    0.9986   -2.8006 H   0  0  0  0  0  0  0  0  0  0  0  0
  -11.3900    2.0566   -0.9080 H   0  0  0  0  0  0  0  0  0  0  0  0
  -11.9638    0.4363   -0.4723 H   0  0  0  0  0  0  0  0  0  0  0  0
  -11.6397    2.0639    1.5872 H   0  0  0  0  0  0  0  0  0  0  0  0
   -8.1924    1.3202    3.7568 H   0  0  0  0  0  0  0  0  0  0  0  0
   -7.1941    0.2141    1.8591 H   0  0  0  0  0  0  0  0  0  0  0  0
   -8.1502   -2.3158   -1.1116 H   0  0  0  0  0  0  0  0  0  0  0  0
   -8.8418   -1.9248    0.4887 H   0  0  0  0  0  0  0  0  0  0  0  0
   -8.4912    0.0669   -2.7924 H   0  0  0  0  0  0  0  0  0  0  0  0
   -8.9178    2.4259   -2.7534 H   0  0  0  0  0  0  0  0  0  0  0  0
   -8.9639    2.5194   -0.9963 H   0  0  0  0  0  0  0  0  0  0  0  0
   -6.8028    3.1314   -1.1427 H   0  0  0  0  0  0  0  0  0  0  0  0
   -6.6692    2.4741   -2.7824 H   0  0  0  0  0  0  0  0  0  0  0  0
   -5.5289    0.6516   -2.0864 H   0  0  0  0  0  0  0  0  0  0  0  0
   -5.4715    1.4370   -0.4982 H   0  0  0  0  0  0  0  0  0  0  0  0
   -4.3302   -0.9285   -1.2264 H   0  0  0  0  0  0  0  0  0  0  0  0
   -4.2393    0.0202    0.2717 H   0  0  0  0  0  0  0  0  0  0  0  0
   -5.0077   -3.7834    0.0880 H   0  0  0  0  0  0  0  0  0  0  0  0
   -3.2483   -3.9586    0.1498 H   0  0  0  0  0  0  0  0  0  0  0  0
   -3.9342   -3.2186   -1.3184 H   0  0  0  0  0  0  0  0  0  0  0  0
   -2.2941   -2.6488    1.5417 H   0  0  0  0  0  0  0  0  0  0  0  0
   -2.7608   -0.9431    1.7499 H   0  0  0  0  0  0  0  0  0  0  0  0
   -1.9516   -0.5698   -0.7015 H   0  0  0  0  0  0  0  0  0  0  0  0
   -1.5513   -2.2887   -0.7389 H   0  0  0  0  0  0  0  0  0  0  0  0
    0.1761   -2.0529    0.9638 H   0  0  0  0  0  0  0  0  0  0  0  0
    0.3938   -0.9078   -0.3656 H   0  0  0  0  0  0  0  0  0  0  0  0
   -0.7869   -0.3496    2.3973 H   0  0  0  0  0  0  0  0  0  0  0  0
   -0.5894    0.9275    1.0971 H   0  0  0  0  0  0  0  0  0  0  0  0
    1.4441   -0.8904    2.4960 H   0  0  0  0  0  0  0  0  0  0  0  0
    1.2222    0.8672    2.7572 H   0  0  0  0  0  0  0  0  0  0  0  0
    2.2114   -0.2305    0.0146 H   0  0  0  0  0  0  0  0  0  0  0  0
    2.0446    1.4514    0.5780 H   0  0  0  0  0  0  0  0  0  0  0  0
    3.1829    1.3732    3.3574 H   0  0  0  0  0  0  0  0  0  0  0  0
    4.5889    2.0648    2.4108 H   0  0  0  0  0  0  0  0  0  0  0  0
    2.9263    2.3560    1.9049 H   0  0  0  0  0  0  0  0  0  0  0  0
    4.3694   -0.2525   -0.3032 H   0  0  0  0  0  0  0  0  0  0  0  0
    4.3564    1.5641   -0.0293 H   0  0  0  0  0  0  0  0  0  0  0  0
    5.6625    1.2086   -1.5356 H   0  0  0  0  0  0  0  0  0  0  0  0
    6.6980   -0.1818   -1.8946 H   0  0  0  0  0  0  0  0  0  0  0  0
    8.3175    1.0697   -2.8550 H   0  0  0  0  0  0  0  0  0  0  0  0
    7.1279    2.3619   -2.7981 H   0  0  0  0  0  0  0  0  0  0  0  0
    9.3807    2.9047   -1.8228 H   0  0  0  0  0  0  0  0  0  0  0  0
    7.9124    3.4563   -0.9976 H   0  0  0  0  0  0  0  0  0  0  0  0
    8.7426    2.5537    0.8905 H   0  0  0  0  0  0  0  0  0  0  0  0
   10.9308    2.8557   -0.0321 H   0  0  0  0  0  0  0  0  0  0  0  0
   11.8218    1.5441    1.8805 H   0  0  0  0  0  0  0  0  0  0  0  0
   10.1798   -1.2617    3.4954 H   0  0  0  0  0  0  0  0  0  0  0  0
   11.7071   -0.3418    3.4045 H   0  0  0  0  0  0  0  0  0  0  0  0
   11.3356   -1.5699    2.1601 H   0  0  0  0  0  0  0  0  0  0  0  0
    8.2843    0.6876    2.4895 H   0  0  0  0  0  0  0  0  0  0  0  0
    8.4955   -0.9603    1.8388 H   0  0  0  0  0  0  0  0  0  0  0  0
    7.3918   -1.8558   -0.3467 H   0  0  0  0  0  0  0  0  0  0  0  0
    8.3623   -3.5731   -1.8099 H   0  0  0  0  0  0  0  0  0  0  0  0
   11.6789   -1.1257   -2.4574 H   0  0  0  0  0  0  0  0  0  0  0  0
   11.2120    1.5060   -1.9685 H   0  0  0  0  0  0  0  0  0  0  0  0
   12.0995    0.6069   -0.7144 H   0  0  0  0  0  0  0  0  0  0  0  0
  1  2  1  0
  2  3  2  0
  3  4  1  0
  4  5  1  0
  5  6  1  0
  6  7  1  0
  7  8  1  0
  8  9  2  0
  8 10  1  0
 10 11  2  0
 11 12  1  0
 12 13  1  0
 13 14  1  0
 13 15  1  0
 15 16  1  0
 16 17  1  0
 17 18  1  0
 18 19  1  0
 19 20  1  0
 20 21  2  0
 20 22  1  0
 22 23  1  0
 23 24  1  0
 23 25  1  0
 25 26  1  0
 26 27  1  0
 27 28  1  0
 28 29  1  0
 29 30  1  0
 30 31  1  0
 31 32  1  0
 31 33  1  0
 33 34  1  0
 34 35  2  0
 34 36  1  0
 36 37  1  0
 37 38  1  0
 38 39  1  0
 39 40  1  0
 40 41  1  0
 41 42  1  0
 42 43  2  0
 43 44  1  0
 43 45  1  0
 45 46  1  0
 46 47  1  0
 47 48  1  0
 48 49  2  0
 49 50  1  0
 50 51  2  0
 50 52  1  0
 52 53  1  0
 53 54  1  0
 14  2  1  0
 46 36  1  1
 53 47  2  0
 15  4  1  0
 46 40  1  0
 12  6  2  0
 13 19  1  1
 54 41  1  0
  1 55  1  0
  1 56  1  0
  1 57  1  0
  3 58  1  0
  4 59  1  0
  5 60  1  0
  5 61  1  0
  7 62  1  0
 10 63  1  0
 11 64  1  0
 14 65  1  0
 14 66  1  0
 15 67  1  6
 16 68  1  0
 16 69  1  0
 17 70  1  0
 17 71  1  0
 18 72  1  0
 18 73  1  0
 22 74  1  0
 22 75  1  0
 24 76  1  0
 24 77  1  0
 24 78  1  0
 25 79  1  0
 25 80  1  0
 26 81  1  0
 26 82  1  0
 27 83  1  0
 27 84  1  0
 28 85  1  0
 28 86  1  0
 29 87  1  0
 29 88  1  0
 30 89  1  0
 30 90  1  0
 32 91  1  0
 32 92  1  0
 32 93  1  0
 33 94  1  0
 33 95  1  0
 37 96  1  0
 37 97  1  0
 38 98  1  0
 38 99  1  0
 39100  1  0
 39101  1  0
 40102  1  1
 41103  1  0
 42104  1  0
 44105  1  0
 44106  1  0
 44107  1  0
 45108  1  0
 45109  1  0
 48110  1  0
 49111  1  0
 52112  1  0
 54113  1  0
 54114  1  0
M  END
$$$$
