
     RDKit          3D

 32 34  0  0  0  0  0  0  0  0999 V2000
    5.4258    0.4581    1.9448 O   0  0  0  0  0  0  0  0  0  0  0  0
    4.1298    0.3236    1.5129 C   0  0  0  0  0  0  0  0  0  0  0  0
    3.3723    0.3081    2.5231 O   0  0  0  0  0  0  0  0  0  0  0  0
    3.7224    0.2176    0.1062 C   0  0  0  0  0  0  0  0  0  0  0  0
    2.3054    0.0887   -0.0107 N   0  0  0  0  0  0  0  0  0  0  0  0
    1.2460    1.0294   -0.1423 C   0  0  0  0  0  0  0  0  0  0  0  0
    1.5872    2.2419   -0.1645 O   0  0  0  0  0  0  0  0  0  0  0  0
   -0.0682    0.4667   -0.2318 C   0  0  0  0  0  0  0  0  0  0  0  0
   -0.1010   -0.9097   -0.1759 C   0  0  0  0  0  0  0  0  0  0  0  0
   -1.2586   -1.6566   -0.2440 C   0  0  0  0  0  0  0  0  0  0  0  0
   -2.4741   -1.0165   -0.3763 C   0  0  0  0  0  0  0  0  0  0  0  0
   -2.4213    0.3599   -0.4304 C   0  0  0  0  0  0  0  0  0  0  0  0
   -3.6681    0.9826   -0.5646 C   0  0  0  0  0  0  0  0  0  0  0  0
   -3.8097    2.3523   -0.6352 C   0  0  0  0  0  0  0  0  0  0  0  0
   -2.6577    3.1067   -0.5679 C   0  0  0  0  0  0  0  0  0  0  0  0
   -1.4387    2.4778   -0.4359 C   0  0  0  0  0  0  0  0  0  0  0  0
   -1.2756    1.1238   -0.3641 C   0  0  0  0  0  0  0  0  0  0  0  0
   -1.1916   -3.1041   -0.1765 C   0  0  0  0  0  0  0  0  0  0  0  0
   -2.3528   -3.8486   -0.2451 O   0  0  0  0  0  0  0  0  0  0  0  0
   -0.1017   -3.6958   -0.0572 O   0  0  0  0  0  0  0  0  0  0  0  0
    1.5717   -1.4758   -0.0073 S   0  0  0  0  0  0  0  0  0  0  0  0
    1.7073   -2.1414    1.3231 O   0  0  0  0  0  0  0  0  0  0  0  0
    2.0029   -2.3149   -1.1460 O   0  0  0  0  0  0  0  0  0  0  0  0
    5.8723   -0.0762    2.6781 H   0  0  0  0  0  0  0  0  0  0  0  0
    3.9896    1.1732   -0.4309 H   0  0  0  0  0  0  0  0  0  0  0  0
    4.2854   -0.5615   -0.4685 H   0  0  0  0  0  0  0  0  0  0  0  0
   -3.4002   -1.5665   -0.4328 H   0  0  0  0  0  0  0  0  0  0  0  0
   -4.5830    0.4156   -0.6194 H   0  0  0  0  0  0  0  0  0  0  0  0
   -4.7852    2.8060   -0.7388 H   0  0  0  0  0  0  0  0  0  0  0  0
   -2.6990    4.1848   -0.6175 H   0  0  0  0  0  0  0  0  0  0  0  0
   -0.5684    3.1027   -0.3874 H   0  0  0  0  0  0  0  0  0  0  0  0
   -2.3634   -4.8520   -0.4171 H   0  0  0  0  0  0  0  0  0  0  0  0
  1  2  1  0
  2  3  2  0
  2  4  1  0
  4  5  1  0
  5  6  1  0
  6  7  2  0
  6  8  1  0
  8  9  2  0
  9 10  1  0
 10 11  2  0
 11 12  1  0
 12 13  2  0
 13 14  1  0
 14 15  2  0
 15 16  1  0
 16 17  2  0
 10 18  1  0
 18 19  1  0
 18 20  2  0
  9 21  1  0
 21 22  2  0
 21 23  2  0
 21  5  1  0
 17  8  1  0
 17 12  1  0
  1 24  1  0
  4 25  1  0
  4 26  1  0
 11 27  1  0
 13 28  1  0
 14 29  1  0
 15 30  1  0
 16 31  1  0
 19 32  1  0
M  END
$$$$
