@<TRIPOS>MOLECULE
*****
 52 54 0 0 0
SMALL
GASTEIGER

@<TRIPOS>ATOM
      1 C          -2.7261   -3.5667    0.4325 C.3     1  UNL1       -0.0652
      2 C          -3.6770   -2.4413    0.6532 C.3     1  UNL1       -0.0543
      3 C          -3.7718   -1.4977   -0.5103 C.3     1  UNL1       -0.0351
      4 C          -2.5345   -0.7610   -0.8802 C.3     1  UNL1        0.0263
      5 N          -2.0090    0.1287    0.1231 N.ar    1  UNL1       -0.3121
      6 C          -1.1236    0.1730    1.0921 C.ar    1  UNL1        0.1164
      7 C          -0.1866   -0.9112    1.4149 C.3     1  UNL1        0.0325
      8 C           1.1316   -0.6878    0.7388 C.ar    1  UNL1       -0.0146
      9 C           1.4516   -1.4273   -0.3808 C.ar    1  UNL1       -0.0111
     10 C           2.6641   -1.2610   -1.0505 C.ar    1  UNL1        0.1655
     11 O           3.0946   -1.9289   -2.1639 O.3     1  UNL1       -0.4913
     12 C           2.3994   -2.9241   -2.8637 C.3     1  UNL1        0.0790
     13 C           3.5693   -0.3136   -0.5596 C.ar    1  UNL1        0.2050
     14 O           4.8036   -0.0657   -1.1465 O.3     1  UNL1       -0.4885
     15 C           5.0306    0.8777   -2.1484 C.3     1  UNL1        0.0791
     16 C           3.2166    0.4169    0.5727 C.ar    1  UNL1        0.1838
     17 O           4.1215    1.3552    1.0533 O.3     1  UNL1       -0.4900
     18 C           4.0238    2.6736    0.5467 C.3     1  UNL1        0.0790
     19 C           2.0090    0.2697    1.2617 C.ar    1  UNL1        0.0900
     20 CL          1.6265    1.2073    2.6658 Cl      1  UNL1       -0.0793
     21 N          -1.1135    1.3337    1.7643 N.ar    1  UNL1       -0.2268
     22 C          -2.0551    2.1120    1.2020 C.ar    1  UNL1        0.1475
     23 C          -2.3923    3.3962    1.5735 C.ar    1  UNL1        0.1472
     24 N          -1.7419    4.0621    2.6474 N.pl3   1  UNL1       -0.3413
     25 N          -3.3878    3.9735    0.8393 N.ar    1  UNL1       -0.2188
     26 C          -3.9609    3.2855   -0.1645 C.ar    1  UNL1        0.1205
     27 N          -3.5826    2.0377   -0.4712 N.ar    1  UNL1       -0.2160
     28 C          -2.6033    1.3614    0.1892 C.ar    1  UNL1        0.1655
     29 H          -2.0209   -3.7634    1.2629 H       1  UNL1        0.0230
     30 H          -2.2492   -3.4313   -0.5558 H       1  UNL1        0.0230
     31 H          -3.3210   -4.5226    0.3581 H       1  UNL1        0.0230
     32 H          -4.7085   -2.8469    0.8814 H       1  UNL1        0.0263
     33 H          -3.3861   -1.9301    1.5968 H       1  UNL1        0.0263
     34 H          -4.6505   -0.7928   -0.3719 H       1  UNL1        0.0282
     35 H          -4.1390   -2.1427   -1.3683 H       1  UNL1        0.0282
     36 H          -1.7311   -1.4907   -1.2242 H       1  UNL1        0.0493
     37 H          -2.7697   -0.2173   -1.8442 H       1  UNL1        0.0493
     38 H          -0.6017   -1.8671    1.0645 H       1  UNL1        0.0392
     39 H           0.0507   -0.9586    2.5080 H       1  UNL1        0.0392
     40 H           0.7873   -2.1757   -0.8051 H       1  UNL1        0.0659
     41 H           3.0787   -3.6885   -3.3076 H       1  UNL1        0.0660
     42 H           1.6692   -3.4792   -2.2276 H       1  UNL1        0.0660
     43 H           1.8732   -2.4620   -3.7330 H       1  UNL1        0.0660
     44 H           5.5727    0.3668   -2.9839 H       1  UNL1        0.0660
     45 H           4.1349    1.4321   -2.4709 H       1  UNL1        0.0660
     46 H           5.7425    1.6442   -1.7318 H       1  UNL1        0.0660
     47 H           3.4807    2.6734   -0.4430 H       1  UNL1        0.0660
     48 H           5.0751    3.0289    0.3398 H       1  UNL1        0.0660
     49 H           3.4677    3.3660    1.1874 H       1  UNL1        0.0660
     50 H          -1.9153    4.1351    3.6775 H       1  UNL1        0.1438
     51 H          -0.9498    4.5270    2.1332 H       1  UNL1        0.1438
     52 H          -4.7659    3.7176   -0.7781 H       1  UNL1        0.1048
@<TRIPOS>BOND
     1     1     2    1
     2     2     3    1
     3     3     4    1
     4     4     5    1
     5     5     6   ar
     6     6     7    1
     7     7     8    1
     8     8     9   ar
     9     9    10   ar
    10    10    11    1
    11    11    12    1
    12    10    13   ar
    13    13    14    1
    14    14    15    1
    15    13    16   ar
    16    16    17    1
    17    17    18    1
    18    16    19   ar
    19    19    20    1
    20     6    21   ar
    21    21    22   ar
    22    22    23   ar
    23    23    24    1
    24    23    25   ar
    25    25    26   ar
    26    26    27   ar
    27    27    28   ar
    28    28     5   ar
    29    19     8   ar
    30    28    22   ar
    31     1    29    1
    32     1    30    1
    33     1    31    1
    34     2    32    1
    35     2    33    1
    36     3    34    1
    37     3    35    1
    38     4    36    1
    39     4    37    1
    40     7    38    1
    41     7    39    1
    42     9    40    1
    43    12    41    1
    44    12    42    1
    45    12    43    1
    46    15    44    1
    47    15    45    1
    48    15    46    1
    49    18    47    1
    50    18    48    1
    51    18    49    1
    52    24    50    1
    53    24    51    1
    54    26    52    1
