
     RDKit          3D

 52 54  0  0  0  0  0  0  0  0999 V2000
   -2.7261   -3.5667    0.4325 C   0  0  0  0  0  0  0  0  0  0  0  0
   -3.6770   -2.4413    0.6532 C   0  0  0  0  0  0  0  0  0  0  0  0
   -3.7718   -1.4977   -0.5103 C   0  0  0  0  0  0  0  0  0  0  0  0
   -2.5345   -0.7610   -0.8802 C   0  0  0  0  0  0  0  0  0  0  0  0
   -2.0090    0.1287    0.1231 N   0  0  0  0  0  0  0  0  0  0  0  0
   -1.1236    0.1730    1.0921 C   0  0  0  0  0  0  0  0  0  0  0  0
   -0.1866   -0.9112    1.4149 C   0  0  0  0  0  0  0  0  0  0  0  0
    1.1316   -0.6878    0.7388 C   0  0  0  0  0  0  0  0  0  0  0  0
    1.4516   -1.4273   -0.3808 C   0  0  0  0  0  0  0  0  0  0  0  0
    2.6641   -1.2610   -1.0505 C   0  0  0  0  0  0  0  0  0  0  0  0
    3.0946   -1.9289   -2.1639 O   0  0  0  0  0  0  0  0  0  0  0  0
    2.3994   -2.9241   -2.8637 C   0  0  0  0  0  0  0  0  0  0  0  0
    3.5693   -0.3136   -0.5596 C   0  0  0  0  0  0  0  0  0  0  0  0
    4.8036   -0.0657   -1.1465 O   0  0  0  0  0  0  0  0  0  0  0  0
    5.0306    0.8777   -2.1484 C   0  0  0  0  0  0  0  0  0  0  0  0
    3.2166    0.4169    0.5727 C   0  0  0  0  0  0  0  0  0  0  0  0
    4.1215    1.3552    1.0533 O   0  0  0  0  0  0  0  0  0  0  0  0
    4.0238    2.6736    0.5467 C   0  0  0  0  0  0  0  0  0  0  0  0
    2.0090    0.2697    1.2617 C   0  0  0  0  0  0  0  0  0  0  0  0
    1.6265    1.2073    2.6658 Cl  0  0  0  0  0  0  0  0  0  0  0  0
   -1.1135    1.3337    1.7643 N   0  0  0  0  0  0  0  0  0  0  0  0
   -2.0551    2.1120    1.2020 C   0  0  0  0  0  0  0  0  0  0  0  0
   -2.3923    3.3962    1.5735 C   0  0  0  0  0  0  0  0  0  0  0  0
   -1.7419    4.0621    2.6474 N   0  0  0  0  0  0  0  0  0  0  0  0
   -3.3878    3.9735    0.8393 N   0  0  0  0  0  0  0  0  0  0  0  0
   -3.9609    3.2855   -0.1645 C   0  0  0  0  0  0  0  0  0  0  0  0
   -3.5826    2.0377   -0.4712 N   0  0  0  0  0  0  0  0  0  0  0  0
   -2.6033    1.3614    0.1892 C   0  0  0  0  0  0  0  0  0  0  0  0
   -2.0209   -3.7634    1.2629 H   0  0  0  0  0  0  0  0  0  0  0  0
   -2.2492   -3.4313   -0.5558 H   0  0  0  0  0  0  0  0  0  0  0  0
   -3.3210   -4.5226    0.3581 H   0  0  0  0  0  0  0  0  0  0  0  0
   -4.7085   -2.8469    0.8814 H   0  0  0  0  0  0  0  0  0  0  0  0
   -3.3861   -1.9301    1.5968 H   0  0  0  0  0  0  0  0  0  0  0  0
   -4.6505   -0.7928   -0.3719 H   0  0  0  0  0  0  0  0  0  0  0  0
   -4.1390   -2.1427   -1.3683 H   0  0  0  0  0  0  0  0  0  0  0  0
   -1.7311   -1.4907   -1.2242 H   0  0  0  0  0  0  0  0  0  0  0  0
   -2.7697   -0.2173   -1.8442 H   0  0  0  0  0  0  0  0  0  0  0  0
   -0.6017   -1.8671    1.0645 H   0  0  0  0  0  0  0  0  0  0  0  0
    0.0507   -0.9586    2.5080 H   0  0  0  0  0  0  0  0  0  0  0  0
    0.7873   -2.1757   -0.8051 H   0  0  0  0  0  0  0  0  0  0  0  0
    3.0787   -3.6885   -3.3076 H   0  0  0  0  0  0  0  0  0  0  0  0
    1.6692   -3.4792   -2.2276 H   0  0  0  0  0  0  0  0  0  0  0  0
    1.8732   -2.4620   -3.7330 H   0  0  0  0  0  0  0  0  0  0  0  0
    5.5727    0.3668   -2.9839 H   0  0  0  0  0  0  0  0  0  0  0  0
    4.1349    1.4321   -2.4709 H   0  0  0  0  0  0  0  0  0  0  0  0
    5.7425    1.6442   -1.7318 H   0  0  0  0  0  0  0  0  0  0  0  0
    3.4807    2.6734   -0.4430 H   0  0  0  0  0  0  0  0  0  0  0  0
    5.0751    3.0289    0.3398 H   0  0  0  0  0  0  0  0  0  0  0  0
    3.4677    3.3660    1.1874 H   0  0  0  0  0  0  0  0  0  0  0  0
   -1.9153    4.1351    3.6775 H   0  0  0  0  0  0  0  0  0  0  0  0
   -0.9498    4.5270    2.1332 H   0  0  0  0  0  0  0  0  0  0  0  0
   -4.7659    3.7176   -0.7781 H   0  0  0  0  0  0  0  0  0  0  0  0
  1  2  1  0
  2  3  1  0
  3  4  1  0
  4  5  1  0
  5  6  1  0
  6  7  1  0
  7  8  1  0
  8  9  2  0
  9 10  1  0
 10 11  1  0
 11 12  1  0
 10 13  2  0
 13 14  1  0
 14 15  1  0
 13 16  1  0
 16 17  1  0
 17 18  1  0
 16 19  2  0
 19 20  1  0
  6 21  2  0
 21 22  1  0
 22 23  2  0
 23 24  1  0
 23 25  1  0
 25 26  2  0
 26 27  1  0
 27 28  2  0
 28  5  1  0
 19  8  1  0
 28 22  1  0
  1 29  1  0
  1 30  1  0
  1 31  1  0
  2 32  1  0
  2 33  1  0
  3 34  1  0
  3 35  1  0
  4 36  1  0
  4 37  1  0
  7 38  1  0
  7 39  1  0
  9 40  1  0
 12 41  1  0
 12 42  1  0
 12 43  1  0
 15 44  1  0
 15 45  1  0
 15 46  1  0
 18 47  1  0
 18 48  1  0
 18 49  1  0
 24 50  1  0
 24 51  1  0
 26 52  1  0
M  END
$$$$
