@<TRIPOS>MOLECULE
*****
 42 44 0 0 0
SMALL
GASTEIGER

@<TRIPOS>ATOM
      1 C          -4.3415    1.5347   -0.1543 C.3     1  UNL1       -0.0432
      2 C          -2.8407    1.4067   -0.0921 C.2     1  UNL1       -0.0674
      3 C          -2.0604    2.6598   -0.1835 C.3     1  UNL1       -0.0432
      4 C          -2.2613    0.2319    0.0689 C.2     1  UNL1       -0.0119
      5 C          -3.0941   -0.9506    0.1887 C.ar    1  UNL1       -0.0145
      6 C          -3.7892   -1.4769   -0.9082 C.ar    1  UNL1       -0.0359
      7 C          -4.5999   -2.5787   -0.7302 C.ar    1  UNL1        0.0281
      8 N          -4.7512   -3.1744    0.4667 N.ar    1  UNL1       -0.2632
      9 C          -4.0967   -2.6871    1.5249 C.ar    1  UNL1        0.0281
     10 C          -3.2635   -1.5694    1.3887 C.ar    1  UNL1       -0.0359
     11 C          -0.8045    0.1448    0.0342 C.ar    1  UNL1       -0.0173
     12 C          -0.0953    0.7923   -0.9962 C.ar    1  UNL1       -0.0534
     13 C           1.2788    0.7410   -1.0537 C.ar    1  UNL1       -0.0535
     14 C           2.0263    0.0541   -0.1070 C.ar    1  UNL1       -0.0178
     15 C           3.4830    0.0039   -0.1709 C.ar    1  UNL1       -0.0149
     16 C           4.2388   -0.0831    0.9800 C.ar    1  UNL1       -0.0504
     17 C           5.6258   -0.1291    0.9371 C.ar    1  UNL1       -0.0167
     18 C           6.2667   -0.0876   -0.2753 C.ar    1  UNL1        0.1519
     19 O           7.6599   -0.1362   -0.2716 O.3     1  UNL1       -0.5039
     20 C           5.5490   -0.0018   -1.4313 C.ar    1  UNL1        0.1651
     21 F           6.2242    0.0361   -2.6075 F       1  UNL1       -0.2016
     22 C           4.1561    0.0438   -1.3742 C.ar    1  UNL1       -0.0151
     23 C           1.2952   -0.5621    0.8784 C.ar    1  UNL1       -0.0535
     24 C          -0.0826   -0.5392    0.9786 C.ar    1  UNL1       -0.0534
     25 H          -4.8125    0.7304   -0.7327 H       1  UNL1        0.0275
     26 H          -4.5925    2.4931   -0.6101 H       1  UNL1        0.0275
     27 H          -4.7605    1.5521    0.8782 H       1  UNL1        0.0275
     28 H          -1.0449    2.6050    0.2442 H       1  UNL1        0.0275
     29 H          -2.0632    3.1152   -1.1891 H       1  UNL1        0.0275
     30 H          -2.6015    3.3906    0.5106 H       1  UNL1        0.0275
     31 H          -3.6471   -0.9896   -1.8513 H       1  UNL1        0.0639
     32 H          -5.1346   -2.9728   -1.6040 H       1  UNL1        0.0830
     33 H          -4.2296   -3.1780    2.4820 H       1  UNL1        0.0830
     34 H          -2.8001   -1.2419    2.2878 H       1  UNL1        0.0639
     35 H          -0.6661    1.3310   -1.7568 H       1  UNL1        0.0624
     36 H           1.7545    1.2622   -1.8735 H       1  UNL1        0.0624
     37 H           3.6923   -0.1126    1.9122 H       1  UNL1        0.0625
     38 H           6.1962   -0.1976    1.8536 H       1  UNL1        0.0655
     39 H           8.1507    0.6061    0.2141 H       1  UNL1        0.2923
     40 H           3.6053    0.1113   -2.2827 H       1  UNL1        0.0653
     41 H           1.8203   -1.1212    1.6572 H       1  UNL1        0.0624
     42 H          -0.5896   -1.0561    1.7953 H       1  UNL1        0.0624
@<TRIPOS>BOND
     1     1     2    1
     2     2     3    1
     3     2     4    2
     4     4     5    1
     5     5     6   ar
     6     6     7   ar
     7     7     8   ar
     8     8     9   ar
     9     9    10   ar
    10     4    11    1
    11    11    12   ar
    12    12    13   ar
    13    13    14   ar
    14    14    15    1
    15    15    16   ar
    16    16    17   ar
    17    17    18   ar
    18    18    19    1
    19    18    20   ar
    20    20    21    1
    21    20    22   ar
    22    14    23   ar
    23    23    24   ar
    24    10     5   ar
    25    24    11   ar
    26    22    15   ar
    27     1    25    1
    28     1    26    1
    29     1    27    1
    30     3    28    1
    31     3    29    1
    32     3    30    1
    33     6    31    1
    34     7    32    1
    35     9    33    1
    36    10    34    1
    37    12    35    1
    38    13    36    1
    39    16    37    1
    40    17    38    1
    41    19    39    1
    42    22    40    1
    43    23    41    1
    44    24    42    1
