@<TRIPOS>MOLECULE
*****
 62 64 0 0 0
SMALL
GASTEIGER

@<TRIPOS>ATOM
      1 C           2.1847   -1.2765   -2.9549 C.3     1  UNL1       -0.0492
      2 C           1.6499    0.1077   -3.1270 C.3     1  UNL1        0.0153
      3 N           0.6815    0.4141   -2.0277 N.am    1  UNL1       -0.2634
      4 C          -0.6911    0.0651   -2.2386 C.3     1  UNL1        0.0434
      5 C          -1.0763   -1.3278   -1.9599 C.ar    1  UNL1       -0.0217
      6 C          -1.1251   -2.1770   -3.0970 C.ar    1  UNL1       -0.0449
      7 C          -1.4694   -3.4972   -3.0221 C.ar    1  UNL1        0.0552
      8 C          -1.4973   -4.3263   -4.2711 C.3     1  UNL1        0.4174
      9 F          -2.2459   -3.6689   -5.2183 F       1  UNL1       -0.1659
     10 F          -1.9992   -5.5581   -3.9416 F       1  UNL1       -0.1659
     11 F          -0.1948   -4.4935   -4.6999 F       1  UNL1       -0.1659
     12 C          -1.7887   -4.0495   -1.7883 C.ar    1  UNL1       -0.0495
     13 C          -1.7551   -3.2693   -0.6652 C.ar    1  UNL1       -0.0531
     14 C          -1.3950   -1.9121   -0.7833 C.ar    1  UNL1       -0.0097
     15 C          -1.3825   -1.1744    0.4582 C.ar    1  UNL1        0.0244
     16 C          -0.3635   -1.3273    1.3749 C.ar    1  UNL1       -0.0468
     17 C          -0.4097   -0.6897    2.6002 C.ar    1  UNL1       -0.0360
     18 C           0.6825   -0.8498    3.6079 C.3     1  UNL1        0.0699
     19 C           0.4033   -1.9227    4.5609 C.2     1  UNL1        0.3091
     20 O          -0.6478   -2.5973    4.4788 O.2     1  UNL1       -0.2507
     21 O           1.2980   -2.2119    5.5734 O.3     1  UNL1       -0.4804
     22 C          -1.4723    0.1247    2.9578 C.ar    1  UNL1       -0.0546
     23 C          -2.5029    0.2813    2.0318 C.ar    1  UNL1       -0.0191
     24 C          -2.4379   -0.3654    0.8118 C.ar    1  UNL1        0.1278
     25 O          -3.5249   -0.1424   -0.0501 O.3     1  UNL1       -0.4945
     26 C          -4.6099    0.6695    0.2719 C.3     1  UNL1        0.0788
     27 C           1.2735    0.9844   -0.8721 C.2     1  UNL1        0.4035
     28 O           2.5559    1.1331   -0.8247 O.2     1  UNL1       -0.2262
     29 O           0.6219    1.4235    0.2489 O.3     1  UNL1       -0.4455
     30 C           1.1570    1.9994    1.3875 C.3     1  UNL1        0.1191
     31 C           1.8928    3.2497    1.2301 C.ar    1  UNL1       -0.0103
     32 C           3.2604    3.2474    1.1155 C.ar    1  UNL1       -0.0554
     33 C           3.9860    4.4145    0.9566 C.ar    1  UNL1       -0.0614
     34 C           3.3179    5.6379    0.9106 C.ar    1  UNL1       -0.0617
     35 C           1.9527    5.6385    1.0259 C.ar    1  UNL1       -0.0614
     36 C           1.2419    4.4707    1.1832 C.ar    1  UNL1       -0.0554
     37 H           1.7986   -1.9854   -3.7108 H       1  UNL1        0.0245
     38 H           3.2957   -1.3469   -3.0073 H       1  UNL1        0.0245
     39 H           1.8590   -1.6853   -1.9636 H       1  UNL1        0.0245
     40 H           1.1649    0.2974   -4.1046 H       1  UNL1        0.0463
     41 H           2.4725    0.8304   -3.0206 H       1  UNL1        0.0463
     42 H          -0.9047    0.3266   -3.3195 H       1  UNL1        0.0515
     43 H          -1.2716    0.7825   -1.5831 H       1  UNL1        0.0515
     44 H          -0.8694   -1.7219   -4.0549 H       1  UNL1        0.0626
     45 H          -2.0645   -5.0851   -1.6918 H       1  UNL1        0.0623
     46 H          -2.0019   -3.6914    0.2976 H       1  UNL1        0.0624
     47 H           0.5146   -1.9536    1.1702 H       1  UNL1        0.0628
     48 H           0.9435    0.1092    4.1079 H       1  UNL1        0.0426
     49 H           1.5994   -1.0779    2.9821 H       1  UNL1        0.0426
     50 H           1.0211   -2.7471    6.3900 H       1  UNL1        0.2951
     51 H          -1.4971    0.6241    3.9322 H       1  UNL1        0.0622
     52 H          -3.3258    0.9152    2.3175 H       1  UNL1        0.0654
     53 H          -5.4256    0.4112   -0.4649 H       1  UNL1        0.0660
     54 H          -4.4089    1.7544    0.1455 H       1  UNL1        0.0660
     55 H          -5.0526    0.4458    1.2789 H       1  UNL1        0.0660
     56 H           1.7839    1.1963    1.8819 H       1  UNL1        0.0749
     57 H           0.3306    2.1928    2.1061 H       1  UNL1        0.0749
     58 H           3.8795    2.3387    1.1536 H       1  UNL1        0.0621
     59 H           5.0502    4.3870    0.8688 H       1  UNL1        0.0618
     60 H           3.9299    6.5156    0.7862 H       1  UNL1        0.0618
     61 H           1.4463    6.5942    0.9901 H       1  UNL1        0.0618
     62 H           0.1619    4.5489    1.2679 H       1  UNL1        0.0621
@<TRIPOS>BOND
     1     1     2    1
     2     2     3    1
     3     3     4    1
     4     4     5    1
     5     5     6   ar
     6     6     7   ar
     7     7     8    1
     8     8     9    1
     9     8    10    1
    10     8    11    1
    11     7    12   ar
    12    12    13   ar
    13    13    14   ar
    14    14    15    1
    15    15    16   ar
    16    16    17   ar
    17    17    18    1
    18    18    19    1
    19    19    20    2
    20    19    21    1
    21    17    22   ar
    22    22    23   ar
    23    23    24   ar
    24    24    25    1
    25    25    26    1
    26     3    27   am
    27    27    28    2
    28    27    29    1
    29    29    30    1
    30    30    31    1
    31    31    32   ar
    32    32    33   ar
    33    33    34   ar
    34    34    35   ar
    35    35    36   ar
    36    14     5   ar
    37    24    15   ar
    38    36    31   ar
    39     1    37    1
    40     1    38    1
    41     1    39    1
    42     2    40    1
    43     2    41    1
    44     4    42    1
    45     4    43    1
    46     6    44    1
    47    12    45    1
    48    13    46    1
    49    16    47    1
    50    18    48    1
    51    18    49    1
    52    21    50    1
    53    22    51    1
    54    23    52    1
    55    26    53    1
    56    26    54    1
    57    26    55    1
    58    30    56    1
    59    30    57    1
    60    32    58    1
    61    33    59    1
    62    34    60    1
    63    35    61    1
    64    36    62    1
