
     RDKit          3D

 55 57  0  0  0  0  0  0  0  0999 V2000
   -4.9934   -1.8312   -0.3701 C   0  0  0  0  0  0  0  0  0  0  0  0
   -3.8241   -2.5732    0.2223 C   0  0  0  0  0  0  0  0  0  0  0  0
   -4.2810   -3.4305    1.3766 C   0  0  0  0  0  0  0  0  0  0  0  0
   -2.6556   -1.6993    0.5428 C   0  0  2  0  0  0  0  0  0  0  0  0
   -3.0013   -0.6221    1.5546 C   0  0  0  0  0  0  0  0  0  0  0  0
   -1.9065    0.1969    1.8440 O   0  0  0  0  0  0  0  0  0  0  0  0
   -2.2368   -1.0276   -0.6633 N   0  0  0  0  0  0  0  0  0  0  0  0
   -1.1155   -0.1781   -0.7990 C   0  0  0  0  0  0  0  0  0  0  0  0
    0.0236   -0.7193   -1.2571 N   0  0  0  0  0  0  0  0  0  0  0  0
    1.1690    0.0058   -1.4366 C   0  0  0  0  0  0  0  0  0  0  0  0
    2.3377   -0.6220   -1.9269 N   0  0  0  0  0  0  0  0  0  0  0  0
    3.2783   -1.1462   -1.0036 C   0  0  0  0  0  0  0  0  0  0  0  0
    3.1238   -0.9144    0.3636 C   0  0  0  0  0  0  0  0  0  0  0  0
    4.0434   -1.4372    1.2434 C   0  0  0  0  0  0  0  0  0  0  0  0
    5.1253   -2.1883    0.8475 C   0  0  0  0  0  0  0  0  0  0  0  0
    6.0982   -2.7441    1.7761 C   0  0  0  0  0  0  0  0  0  0  0  0
    5.9996   -2.5161    3.0008 O   0  0  0  0  0  0  0  0  0  0  0  0
    7.1317   -3.5256    1.3005 O   0  0  0  0  0  0  0  0  0  0  0  0
    5.2445   -2.3968   -0.5215 C   0  0  0  0  0  0  0  0  0  0  0  0
    6.5945   -3.3374   -1.0982 Cl  0  0  0  0  0  0  0  0  0  0  0  0
    4.3440   -1.8888   -1.4215 C   0  0  0  0  0  0  0  0  0  0  0  0
    1.1803    1.3561   -1.1407 C   0  0  0  0  0  0  0  0  0  0  0  0
    2.1253    2.3094   -1.2096 N   0  0  0  0  0  0  0  0  0  0  0  0
    1.5290    3.4476   -0.7795 C   0  0  0  0  0  0  0  0  0  0  0  0
    0.2539    3.1984   -0.4558 N   0  0  0  0  0  0  0  0  0  0  0  0
   -0.6838    4.1727    0.0426 C   0  0  0  0  0  0  0  0  0  0  0  0
   -2.0186    4.0758   -0.6818 C   0  0  0  0  0  0  0  0  0  0  0  0
   -0.1642    5.5731   -0.0851 C   0  0  0  0  0  0  0  0  0  0  0  0
    0.0019    1.8957   -0.6706 C   0  0  0  0  0  0  0  0  0  0  0  0
   -1.0989    1.1246   -0.5151 N   0  0  0  0  0  0  0  0  0  0  0  0
   -4.9687   -1.8855   -1.4874 H   0  0  0  0  0  0  0  0  0  0  0  0
   -5.9207   -2.4142   -0.0893 H   0  0  0  0  0  0  0  0  0  0  0  0
   -5.1508   -0.8245    0.0082 H   0  0  0  0  0  0  0  0  0  0  0  0
   -3.4664   -3.2954   -0.5702 H   0  0  0  0  0  0  0  0  0  0  0  0
   -5.3811   -3.5627    1.3290 H   0  0  0  0  0  0  0  0  0  0  0  0
   -4.0190   -3.0034    2.3635 H   0  0  0  0  0  0  0  0  0  0  0  0
   -3.8458   -4.4492    1.3369 H   0  0  0  0  0  0  0  0  0  0  0  0
   -1.8032   -2.3020    0.9191 H   0  0  0  0  0  0  0  0  0  0  0  0
   -3.8085    0.0436    1.2282 H   0  0  0  0  0  0  0  0  0  0  0  0
   -3.2575   -1.1220    2.5184 H   0  0  0  0  0  0  0  0  0  0  0  0
   -2.2744    0.9497    2.3920 H   0  0  0  0  0  0  0  0  0  0  0  0
   -2.8349   -1.1935   -1.5301 H   0  0  0  0  0  0  0  0  0  0  0  0
    2.4883   -0.6897   -2.9484 H   0  0  0  0  0  0  0  0  0  0  0  0
    2.2866   -0.3257    0.7411 H   0  0  0  0  0  0  0  0  0  0  0  0
    3.9185   -1.2515    2.3068 H   0  0  0  0  0  0  0  0  0  0  0  0
    7.9954   -3.6424    1.8088 H   0  0  0  0  0  0  0  0  0  0  0  0
    4.4412   -2.0538   -2.4952 H   0  0  0  0  0  0  0  0  0  0  0  0
    2.0515    4.4025   -0.7240 H   0  0  0  0  0  0  0  0  0  0  0  0
   -0.8090    3.9677    1.1360 H   0  0  0  0  0  0  0  0  0  0  0  0
   -2.6649    4.8855   -0.2467 H   0  0  0  0  0  0  0  0  0  0  0  0
   -2.4936    3.0873   -0.5405 H   0  0  0  0  0  0  0  0  0  0  0  0
   -1.8227    4.2513   -1.7520 H   0  0  0  0  0  0  0  0  0  0  0  0
    0.2354    5.7705   -1.0916 H   0  0  0  0  0  0  0  0  0  0  0  0
    0.5303    5.8452    0.7226 H   0  0  0  0  0  0  0  0  0  0  0  0
   -1.0505    6.2543    0.0359 H   0  0  0  0  0  0  0  0  0  0  0  0
  1  2  1  0
  2  3  1  0
  2  4  1  0
  4  5  1  0
  5  6  1  0
  4  7  1  0
  7  8  1  0
  8  9  2  0
  9 10  1  0
 10 11  1  0
 11 12  1  0
 12 13  2  0
 13 14  1  0
 14 15  2  0
 15 16  1  0
 16 17  2  0
 16 18  1  0
 15 19  1  0
 19 20  1  0
 19 21  2  0
 10 22  2  0
 22 23  1  0
 23 24  2  0
 24 25  1  0
 25 26  1  0
 26 27  1  0
 26 28  1  0
 25 29  1  0
 29 30  2  0
 30  8  1  0
 21 12  1  0
 29 22  1  0
  1 31  1  0
  1 32  1  0
  1 33  1  0
  2 34  1  0
  3 35  1  0
  3 36  1  0
  3 37  1  0
  4 38  1  1
  5 39  1  0
  5 40  1  0
  6 41  1  0
  7 42  1  0
 11 43  1  0
 13 44  1  0
 14 45  1  0
 18 46  1  0
 21 47  1  0
 24 48  1  0
 26 49  1  0
 27 50  1  0
 27 51  1  0
 27 52  1  0
 28 53  1  0
 28 54  1  0
 28 55  1  0
M  END
$$$$
