@<TRIPOS>MOLECULE
*****
 55 57 0 0 0
SMALL
GASTEIGER

@<TRIPOS>ATOM
      1 CG1        -4.9934   -1.8312   -0.3701 C.3     1  VAL1       -0.0609
      2 CB         -3.8241   -2.5732    0.2223 C.3     1  VAL1       -0.0261
      3 CG2        -4.2810   -3.4305    1.3766 C.3     1  VAL1       -0.0609
      4 CA         -2.6556   -1.6993    0.5428 C.3     1  VAL1        0.0487
      5 C          -3.0013   -0.6221    1.5546 C.3     1  VAL1        0.0628
      6 O          -1.9065    0.1969    1.8440 O.3     1  VAL1       -0.3932
      7 N          -2.2368   -1.0276   -0.6633 N.pl3   1  VAL1       -0.3081
      8 C          -1.1155   -0.1781   -0.7990 C.ar    0  UNK0        0.2192
      9 N           0.0236   -0.7193   -1.2571 N.ar    0  UNK0       -0.1971
     10 C           1.1690    0.0058   -1.4366 C.ar    0  UNK0        0.1558
     11 N           2.3377   -0.6220   -1.9269 N.pl3   0  UNK0       -0.2975
     12 C           3.2783   -1.1462   -1.0036 C.ar    0  UNK0        0.0338
     13 C           3.1238   -0.9144    0.3636 C.ar    0  UNK0       -0.0396
     14 C           4.0434   -1.4372    1.2434 C.ar    0  UNK0       -0.0446
     15 C           5.1253   -2.1883    0.8475 C.ar    0  UNK0        0.0772
     16 C           6.0982   -2.7441    1.7761 C.2     0  UNK0        0.3382
     17 O           5.9996   -2.5161    3.0008 O.2     0  UNK0       -0.2451
     18 O           7.1317   -3.5256    1.3005 O.3     0  UNK0       -0.4771
     19 C           5.2445   -2.3968   -0.5215 C.ar    0  UNK0        0.0567
     20 CL          6.5945   -3.3374   -1.0982 Cl      0  UNK0       -0.0826
     21 C           4.3440   -1.8888   -1.4215 C.ar    0  UNK0       -0.0214
     22 C           1.1803    1.3561   -1.1407 C.ar    0  UNK0        0.1479
     23 N           2.1253    2.3094   -1.2096 N.ar    0  UNK0       -0.2306
     24 C           1.5290    3.4476   -0.7795 C.ar    0  UNK0        0.0986
     25 N           0.2539    3.1984   -0.4558 N.ar    0  UNK0       -0.3123
     26 C          -0.6838    4.1727    0.0426 C.3     0  UNK0        0.0317
     27 C          -2.0186    4.0758   -0.6818 C.3     0  UNK0       -0.0444
     28 C          -0.1642    5.5731   -0.0851 C.3     0  UNK0       -0.0444
     29 C           0.0019    1.8957   -0.6706 C.ar    0  UNK0        0.1675
     30 N          -1.0989    1.1246   -0.5151 N.ar    0  UNK0       -0.1947
     31 HG11       -4.9687   -1.8855   -1.4874 H       1  VAL1        0.0233
     32 HG12       -5.9207   -2.4142   -0.0893 H       1  VAL1        0.0233
     33 HG13       -5.1508   -0.8245    0.0082 H       1  VAL1        0.0233
     34 HB         -3.4664   -3.2954   -0.5702 H       1  VAL1        0.0314
     35 HG21       -5.3811   -3.5627    1.3290 H       1  VAL1        0.0233
     36 HG22       -4.0190   -3.0034    2.3635 H       1  VAL1        0.0233
     37 HG23       -3.8458   -4.4492    1.3369 H       1  VAL1        0.0233
     38 HA         -1.8032   -2.3020    0.9191 H       1  VAL1        0.0523
     39 H1         -3.8085    0.0436    1.2282 H       1  VAL1        0.0576
     40 H2         -3.2575   -1.1220    2.5184 H       1  VAL1        0.0576
     41 H          -2.2744    0.9497    2.3920 H       1  VAL1        0.2095
     42 H          -2.8349   -1.1935   -1.5301 H       1  VAL1        0.1493
     43 H           2.4883   -0.6897   -2.9484 H       0  UNK0        0.1536
     44 H           2.2866   -0.3257    0.7411 H       0  UNK0        0.0636
     45 H           3.9185   -1.2515    2.3068 H       0  UNK0        0.0627
     46 H           7.9954   -3.6424    1.8088 H       0  UNK0        0.2954
     47 H           4.4412   -2.0538   -2.4952 H       0  UNK0        0.0651
     48 H           2.0515    4.4025   -0.7240 H       0  UNK0        0.1029
     49 H          -0.8090    3.9677    1.1360 H       0  UNK0        0.0523
     50 H          -2.6649    4.8855   -0.2467 H       0  UNK0        0.0249
     51 H          -2.4936    3.0873   -0.5405 H       0  UNK0        0.0249
     52 H          -1.8227    4.2513   -1.7520 H       0  UNK0        0.0249
     53 H           0.2354    5.7705   -1.0916 H       0  UNK0        0.0249
     54 H           0.5303    5.8452    0.7226 H       0  UNK0        0.0249
     55 H          -1.0505    6.2543    0.0359 H       0  UNK0        0.0249
@<TRIPOS>BOND
     1     1     2    1
     2     2     3    1
     3     2     4    1
     4     4     5    1
     5     5     6    1
     6     4     7    1
     7     7     8    1
     8     8     9   ar
     9     9    10   ar
    10    10    11    1
    11    11    12    1
    12    12    13   ar
    13    13    14   ar
    14    14    15   ar
    15    15    16    1
    16    16    17    2
    17    16    18    1
    18    15    19   ar
    19    19    20    1
    20    19    21   ar
    21    10    22   ar
    22    22    23   ar
    23    23    24   ar
    24    24    25   ar
    25    25    26    1
    26    26    27    1
    27    26    28    1
    28    25    29   ar
    29    29    30   ar
    30    30     8   ar
    31    21    12   ar
    32    29    22   ar
    33     1    31    1
    34     1    32    1
    35     1    33    1
    36     2    34    1
    37     3    35    1
    38     3    36    1
    39     3    37    1
    40     4    38    1
    41     5    39    1
    42     5    40    1
    43     6    41    1
    44     7    42    1
    45    11    43    1
    46    13    44    1
    47    14    45    1
    48    18    46    1
    49    21    47    1
    50    24    48    1
    51    26    49    1
    52    27    50    1
    53    27    51    1
    54    27    52    1
    55    28    53    1
    56    28    54    1
    57    28    55    1
