@<TRIPOS>MOLECULE
*****
 24 26 0 0 0
SMALL
GASTEIGER

@<TRIPOS>ATOM
      1 N          -3.0828    2.3440   -0.6864 N.pl3   1  UNL1       -0.3290
      2 C          -2.3371    1.1485   -0.5945 C.ar    1  UNL1        0.1914
      3 N          -1.0598    1.0606   -0.2060 N.ar    1  UNL1       -0.2126
      4 C          -0.7006   -0.2272   -0.2456 C.ar    1  UNL1        0.1180
      5 C           0.5105   -0.8128    0.0637 C.ar    1  UNL1        0.1145
      6 C           1.6802   -0.0733    0.5160 C.ar    1  UNL1        0.0690
      7 C           2.8986   -0.6329    0.8306 C.ar    1  UNL1       -0.0197
      8 C           3.7344    0.4137    1.2148 C.ar    1  UNL1        0.0502
      9 BR          5.5565    0.3095    1.7715 Br      1  UNL1       -0.0476
     10 C           3.0000    1.5771    1.1224 C.ar    1  UNL1        0.0975
     11 BR          3.5467    3.3618    1.5032 Br      1  UNL1       -0.0296
     12 N           1.7444    1.2542    0.6923 N.ar    1  UNL1       -0.3469
     13 N           0.5731   -2.1698   -0.0766 N.ar    1  UNL1       -0.2512
     14 C          -0.4850   -2.8760   -0.4901 C.ar    1  UNL1        0.0304
     15 C          -1.7011   -2.3057   -0.8027 C.ar    1  UNL1       -0.0180
     16 C          -1.8039   -0.9365   -0.6736 C.ar    1  UNL1        0.0710
     17 N          -2.8212   -0.0913   -0.8917 N.ar    1  UNL1       -0.3261
     18 H          -2.6401    3.2581   -0.4633 H       1  UNL1        0.1451
     19 H          -4.0826    2.3194   -0.9785 H       1  UNL1        0.1451
     20 H           3.2153   -1.6649    0.8080 H       1  UNL1        0.0651
     21 H           0.9830    1.9611    0.5377 H       1  UNL1        0.1664
     22 H          -0.4098   -3.9679   -0.5952 H       1  UNL1        0.0830
     23 H          -2.5237   -2.9277   -1.1328 H       1  UNL1        0.0654
     24 H          -3.7952   -0.3222   -1.2230 H       1  UNL1        0.1686
@<TRIPOS>BOND
     1     1     2    1
     2     2     3   ar
     3     3     4   ar
     4     4     5   ar
     5     5     6    1
     6     6     7   ar
     7     7     8   ar
     8     8     9    1
     9     8    10   ar
    10    10    11    1
    11    10    12   ar
    12     5    13   ar
    13    13    14   ar
    14    14    15   ar
    15    15    16   ar
    16    16    17   ar
    17    17     2   ar
    18    16     4   ar
    19    12     6   ar
    20     1    18    1
    21     1    19    1
    22     7    20    1
    23    12    21    1
    24    14    22    1
    25    15    23    1
    26    17    24    1
