
     RDKit          3D

 24 26  0  0  0  0  0  0  0  0999 V2000
   -3.0828    2.3440   -0.6864 N   0  0  0  0  0  0  0  0  0  0  0  0
   -2.3371    1.1485   -0.5945 C   0  0  0  0  0  0  0  0  0  0  0  0
   -1.0598    1.0606   -0.2060 N   0  0  0  0  0  0  0  0  0  0  0  0
   -0.7006   -0.2272   -0.2456 C   0  0  0  0  0  0  0  0  0  0  0  0
    0.5105   -0.8128    0.0637 C   0  0  0  0  0  0  0  0  0  0  0  0
    1.6802   -0.0733    0.5160 C   0  0  0  0  0  0  0  0  0  0  0  0
    2.8986   -0.6329    0.8306 C   0  0  0  0  0  0  0  0  0  0  0  0
    3.7344    0.4137    1.2148 C   0  0  0  0  0  0  0  0  0  0  0  0
    5.5565    0.3095    1.7715 Br  0  0  0  0  0  0  0  0  0  0  0  0
    3.0000    1.5771    1.1224 C   0  0  0  0  0  0  0  0  0  0  0  0
    3.5467    3.3618    1.5032 Br  0  0  0  0  0  0  0  0  0  0  0  0
    1.7444    1.2542    0.6923 N   0  0  0  0  0  0  0  0  0  0  0  0
    0.5731   -2.1698   -0.0766 N   0  0  0  0  0  0  0  0  0  0  0  0
   -0.4850   -2.8760   -0.4901 C   0  0  0  0  0  0  0  0  0  0  0  0
   -1.7011   -2.3057   -0.8027 C   0  0  0  0  0  0  0  0  0  0  0  0
   -1.8039   -0.9365   -0.6736 C   0  0  0  0  0  0  0  0  0  0  0  0
   -2.8212   -0.0913   -0.8917 N   0  0  0  0  0  0  0  0  0  0  0  0
   -2.6401    3.2581   -0.4633 H   0  0  0  0  0  0  0  0  0  0  0  0
   -4.0826    2.3194   -0.9785 H   0  0  0  0  0  0  0  0  0  0  0  0
    3.2153   -1.6649    0.8080 H   0  0  0  0  0  0  0  0  0  0  0  0
    0.9830    1.9611    0.5377 H   0  0  0  0  0  0  0  0  0  0  0  0
   -0.4098   -3.9679   -0.5952 H   0  0  0  0  0  0  0  0  0  0  0  0
   -2.5237   -2.9277   -1.1328 H   0  0  0  0  0  0  0  0  0  0  0  0
   -3.7952   -0.3222   -1.2230 H   0  0  0  0  0  0  0  0  0  0  0  0
  1  2  1  0
  2  3  2  0
  3  4  1  0
  4  5  2  0
  5  6  1  0
  6  7  2  0
  7  8  1  0
  8  9  1  0
  8 10  2  0
 10 11  1  0
 10 12  1  0
  5 13  1  0
 13 14  2  0
 14 15  1  0
 15 16  2  0
 16 17  1  0
 17  2  1  0
 16  4  1  0
 12  6  1  0
  1 18  1  0
  1 19  1  0
  7 20  1  0
 12 21  1  0
 14 22  1  0
 15 23  1  0
 17 24  1  0
M  END
$$$$
