@<TRIPOS>MOLECULE
*****
 112 120 0 0 0
SMALL
GASTEIGER

@<TRIPOS>ATOM
      1 C           0.5590    5.3647   -3.8925 C.3     1  UNL1       -0.0374
      2 C           0.0544    4.5235   -2.7740 C.2     1  UNL1       -0.0198
      3 C          -1.1162    4.6880   -2.1956 C.2     1  UNL1       -0.0165
      4 C          -2.1807    5.6570   -2.5101 C.3     1  UNL1       -0.0153
      5 C          -2.2636    6.7159   -1.4425 C.3     1  UNL1        0.0488
      6 C          -3.3394    7.6928   -1.7712 C.2     1  UNL1        0.3050
      7 O          -3.5689    8.6422   -1.0103 O.2     1  UNL1       -0.2510
      8 O          -4.0576    7.5046   -2.9356 O.3     1  UNL1       -0.4806
      9 C          -1.1726    3.6283   -1.1475 C.2     1  UNL1        0.0700
     10 C          -2.1258    3.3068   -0.2288 C.2     1  UNL1       -0.0103
     11 C          -2.6545    2.1373    0.2351 C.2     1  UNL1        0.0700
     12 N          -1.9343    1.0693    0.5958 N.2     1  UNL1       -0.2472
     13 C          -2.7119    0.0611    1.0365 C.2     1  UNL1        0.0697
     14 C          -2.1165   -1.1130    1.4490 C.2     1  UNL1       -0.0123
     15 C          -0.8163   -1.5592    1.1316 C.ar    1  UNL1        0.0488
     16 N           0.3184   -0.8535    1.0038 N.ar    1  UNL1       -0.3544
     17 C           1.2574   -1.7056    0.5465 C.ar    1  UNL1        0.0450
     18 C           2.5583   -1.3705    0.0615 C.2     1  UNL1       -0.0143
     19 C           2.8229   -0.1522   -0.6434 C.ar    1  UNL1        0.0487
     20 N           1.9277    0.5709   -1.3467 N.ar    1  UNL1       -0.3544
     21 C           2.5329    1.7115   -1.7117 C.ar    1  UNL1        0.0450
     22 C           2.0230    2.8362   -2.3797 C.2     1  UNL1       -0.0124
     23 C           0.7743    3.4273   -2.1749 C.2     1  UNL1        0.0697
     24 N          -0.0317    2.9342   -1.1993 N.2     1  UNL1       -0.2472
     25 C           3.8544    1.7033   -1.2357 C.ar    1  UNL1       -0.0183
     26 C           4.9175    2.7660   -1.4187 C.3     1  UNL1       -0.0373
     27 C           4.0313    0.5252   -0.5637 C.ar    1  UNL1        0.0242
     28 C           5.3277    0.1185    0.0829 C.3     1  UNL1        0.1644
     29 C           5.4058    0.7427    1.4237 C.3     1  UNL1        0.1339
     30 O           6.6634    0.5676    2.0483 O.3     1  UNL1       -0.4573
     31 C           6.8588    1.0950    3.3040 C.2     1  UNL1        0.3353
     32 O           5.8893    1.7143    3.8395 O.2     1  UNL1       -0.2453
     33 C           8.1435    0.9568    4.0208 C.2     1  UNL1        0.0367
     34 C           8.8315    1.2133    5.1001 C.2     1  UNL1       -0.0692
     35 C           9.5294    0.4600    4.0610 C.3     1  UNL1       -0.0022
     36 O           5.5267   -1.2594    0.0602 O.3     1  UNL1       -0.4498
     37 C           6.4959   -1.9217   -0.6702 C.2     1  UNL1        0.3358
     38 O           7.2574   -1.2279   -1.3757 O.2     1  UNL1       -0.2453
     39 C           6.6404   -3.3647   -0.6349 C.2     1  UNL1        0.0367
     40 C           7.2832   -4.5201   -1.0551 C.2     1  UNL1       -0.0692
     41 C           6.2232   -4.7120   -0.1287 C.3     1  UNL1       -0.0022
     42 C           0.7310   -2.9773    0.3942 C.ar    1  UNL1       -0.0183
     43 C           1.4125   -4.2436   -0.0728 C.3     1  UNL1       -0.0373
     44 C          -0.5930   -2.8950    0.7643 C.ar    1  UNL1        0.0242
     45 C          -1.5556   -4.0523    0.7535 C.3     1  UNL1        0.1644
     46 C          -1.7189   -4.6812    2.0958 C.3     1  UNL1        0.1339
     47 O          -2.4942   -5.8567    2.0758 O.3     1  UNL1       -0.4573
     48 C          -2.1965   -7.0126    1.3995 C.2     1  UNL1        0.3353
     49 O          -1.1148   -7.0346    0.7239 O.2     1  UNL1       -0.2453
     50 C          -3.0749   -8.1712    1.4473 C.2     1  UNL1        0.0367
     51 C          -3.3739   -9.4632    1.0855 C.2     1  UNL1       -0.0692
     52 C          -4.3247   -8.7934    1.9484 C.3     1  UNL1       -0.0022
     53 O          -2.7338   -3.6313    0.1333 O.3     1  UNL1       -0.4498
     54 C          -3.1964   -4.1543   -1.0672 C.2     1  UNL1        0.3358
     55 O          -2.4887   -5.0515   -1.5814 O.2     1  UNL1       -0.2453
     56 C          -4.4239   -3.6759   -1.6678 C.2     1  UNL1        0.0367
     57 C          -5.5280   -2.8216   -1.6262 C.2     1  UNL1       -0.0692
     58 C          -5.4365   -3.7103   -2.7506 C.3     1  UNL1       -0.0022
     59 C          -4.0608    0.5367    0.9459 C.2     1  UNL1       -0.0198
     60 C          -5.3045   -0.2459    1.3318 C.3     1  UNL1       -0.0374
     61 C          -4.0731    1.7660    0.4745 C.2     1  UNL1       -0.0165
     62 C          -5.2989    2.5518    0.2280 C.3     1  UNL1       -0.0153
     63 C          -5.5042    3.7372    1.0968 C.3     1  UNL1        0.0488
     64 C          -6.7946    4.3815    0.6892 C.2     1  UNL1        0.3050
     65 O          -7.4614    3.8784   -0.2433 O.2     1  UNL1       -0.2510
     66 O          -7.2459    5.5321    1.3453 O.3     1  UNL1       -0.4806
     67 H           0.0341    5.0630   -4.8232 H       1  UNL1        0.0278
     68 H           1.6553    5.1686   -4.0627 H       1  UNL1        0.0278
     69 H           0.3869    6.4330   -3.7449 H       1  UNL1        0.0278
     70 H          -3.1691    5.1448   -2.5234 H       1  UNL1        0.0319
     71 H          -2.0016    6.1580   -3.4819 H       1  UNL1        0.0319
     72 H          -1.2837    7.2783   -1.3634 H       1  UNL1        0.0381
     73 H          -2.4801    6.3562   -0.4329 H       1  UNL1        0.0381
     74 H          -4.7115    8.1644   -3.2803 H       1  UNL1        0.2951
     75 H          -2.5904    4.2058    0.2564 H       1  UNL1        0.0660
     76 H          -2.7729   -1.7340    2.0653 H       1  UNL1        0.0659
     77 H           0.4597    0.2198    1.2926 H       1  UNL1        0.1659
     78 H           3.3804   -2.0437    0.2111 H       1  UNL1        0.0659
     79 H           0.8856    0.2798   -1.6448 H       1  UNL1        0.1659
     80 H           2.6024    3.3783   -3.1327 H       1  UNL1        0.0659
     81 H           4.6922    3.2758   -2.3950 H       1  UNL1        0.0278
     82 H           5.8823    2.2732   -1.5558 H       1  UNL1        0.0278
     83 H           4.9470    3.4653   -0.5771 H       1  UNL1        0.0278
     84 H           6.1593    0.5492   -0.5595 H       1  UNL1        0.0821
     85 H           4.5883    0.3562    2.0977 H       1  UNL1        0.0739
     86 H           5.2341    1.8360    1.3820 H       1  UNL1        0.0739
     87 H           8.9152    1.6513    6.0884 H       1  UNL1        0.0580
     88 H           9.7589   -0.6057    4.1660 H       1  UNL1        0.0358
     89 H          10.3430    1.0377    3.5571 H       1  UNL1        0.0358
     90 H           8.0736   -4.9092   -1.6882 H       1  UNL1        0.0580
     91 H           5.2345   -5.0340   -0.5102 H       1  UNL1        0.0358
     92 H           6.3401   -4.8408    0.9609 H       1  UNL1        0.0358
     93 H           0.9706   -4.5276   -1.0750 H       1  UNL1        0.0278
     94 H           2.4771   -4.0250   -0.1631 H       1  UNL1        0.0278
     95 H           1.1521   -5.0645    0.6158 H       1  UNL1        0.0278
     96 H          -1.1070   -4.8312    0.0935 H       1  UNL1        0.0821
     97 H          -2.2222   -3.9609    2.7770 H       1  UNL1        0.0739
     98 H          -0.7288   -4.9095    2.5501 H       1  UNL1        0.0739
     99 H          -3.0740  -10.3512    0.5277 H       1  UNL1        0.0580
    100 H          -4.3415   -8.9434    3.0396 H       1  UNL1        0.0358
    101 H          -5.3006   -8.4865    1.4857 H       1  UNL1        0.0358
    102 H          -6.0246   -2.0390   -1.0634 H       1  UNL1        0.0580
    103 H          -5.2184   -3.2445   -3.7313 H       1  UNL1        0.0358
    104 H          -6.1575   -4.5481   -2.7859 H       1  UNL1        0.0358
    105 H          -5.0180   -1.2798    1.5396 H       1  UNL1        0.0278
    106 H          -6.0491   -0.2429    0.5117 H       1  UNL1        0.0278
    107 H          -5.8108    0.2643    2.1823 H       1  UNL1        0.0278
    108 H          -5.1941    2.9411   -0.8354 H       1  UNL1        0.0319
    109 H          -6.1761    1.8795    0.1818 H       1  UNL1        0.0319
    110 H          -4.7228    4.5113    1.0509 H       1  UNL1        0.0381
    111 H          -5.5825    3.4424    2.1773 H       1  UNL1        0.0381
    112 H          -8.1991    5.8020    1.1423 H       1  UNL1        0.2951
@<TRIPOS>BOND
     1     1     2    1
     2     2     3    2
     3     3     4    1
     4     4     5    1
     5     5     6    1
     6     6     7    2
     7     6     8    1
     8     3     9    1
     9     9    10    2
    10    10    11    1
    11    11    12    2
    12    12    13    1
    13    13    14    2
    14    14    15    1
    15    15    16   ar
    16    16    17   ar
    17    17    18    1
    18    18    19    2
    19    19    20   ar
    20    20    21   ar
    21    21    22    2
    22    22    23    1
    23    23    24    2
    24    21    25   ar
    25    25    26    1
    26    25    27   ar
    27    27    28    1
    28    28    29    1
    29    29    30    1
    30    30    31    1
    31    31    32    2
    32    31    33    1
    33    33    34    2
    34    34    35    1
    35    28    36    1
    36    36    37    1
    37    37    38    2
    38    37    39    1
    39    39    40    2
    40    40    41    1
    41    17    42   ar
    42    42    43    1
    43    42    44   ar
    44    44    45    1
    45    45    46    1
    46    46    47    1
    47    47    48    1
    48    48    49    2
    49    48    50    1
    50    50    51    2
    51    51    52    1
    52    45    53    1
    53    53    54    1
    54    54    55    2
    55    54    56    1
    56    56    57    2
    57    57    58    1
    58    13    59    1
    59    59    60    1
    60    59    61    2
    61    61    62    1
    62    62    63    1
    63    63    64    1
    64    64    65    2
    65    64    66    1
    66    23     2    1
    67    35    33    1
    68    41    39    1
    69    52    50    1
    70    58    56    1
    71    24     9    1
    72    61    11    1
    73    44    15   ar
    74    27    19   ar
    75     1    67    1
    76     1    68    1
    77     1    69    1
    78     4    70    1
    79     4    71    1
    80     5    72    1
    81     5    73    1
    82     8    74    1
    83    10    75    1
    84    14    76    1
    85    16    77    1
    86    18    78    1
    87    20    79    1
    88    22    80    1
    89    26    81    1
    90    26    82    1
    91    26    83    1
    92    28    84    1
    93    29    85    1
    94    29    86    1
    95    34    87    1
    96    35    88    1
    97    35    89    1
    98    40    90    1
    99    41    91    1
   100    41    92    1
   101    43    93    1
   102    43    94    1
   103    43    95    1
   104    45    96    1
   105    46    97    1
   106    46    98    1
   107    51    99    1
   108    52   100    1
   109    52   101    1
   110    57   102    1
   111    58   103    1
   112    58   104    1
   113    60   105    1
   114    60   106    1
   115    60   107    1
   116    62   108    1
   117    62   109    1
   118    63   110    1
   119    63   111    1
   120    66   112    1
