
     RDKit          3D

112120  0  0  0  0  0  0  0  0999 V2000
    0.5590    5.3647   -3.8925 C   0  0  0  0  0  0  0  0  0  0  0  0
    0.0544    4.5235   -2.7740 C   0  0  0  0  0  0  0  0  0  0  0  0
   -1.1162    4.6880   -2.1956 C   0  0  0  0  0  0  0  0  0  0  0  0
   -2.1807    5.6570   -2.5101 C   0  0  0  0  0  0  0  0  0  0  0  0
   -2.2636    6.7159   -1.4425 C   0  0  0  0  0  0  0  0  0  0  0  0
   -3.3394    7.6928   -1.7712 C   0  0  0  0  0  0  0  0  0  0  0  0
   -3.5689    8.6422   -1.0103 O   0  0  0  0  0  0  0  0  0  0  0  0
   -4.0576    7.5046   -2.9356 O   0  0  0  0  0  0  0  0  0  0  0  0
   -1.1726    3.6283   -1.1475 C   0  0  0  0  0  0  0  0  0  0  0  0
   -2.1258    3.3068   -0.2288 C   0  0  0  0  0  0  0  0  0  0  0  0
   -2.6545    2.1373    0.2351 C   0  0  0  0  0  0  0  0  0  0  0  0
   -1.9343    1.0693    0.5958 N   0  0  0  0  0  0  0  0  0  0  0  0
   -2.7119    0.0611    1.0365 C   0  0  0  0  0  0  0  0  0  0  0  0
   -2.1165   -1.1130    1.4490 C   0  0  0  0  0  0  0  0  0  0  0  0
   -0.8163   -1.5592    1.1316 C   0  0  0  0  0  0  0  0  0  0  0  0
    0.3184   -0.8535    1.0038 N   0  0  0  0  0  0  0  0  0  0  0  0
    1.2574   -1.7056    0.5465 C   0  0  0  0  0  0  0  0  0  0  0  0
    2.5583   -1.3705    0.0615 C   0  0  0  0  0  0  0  0  0  0  0  0
    2.8229   -0.1522   -0.6434 C   0  0  0  0  0  0  0  0  0  0  0  0
    1.9277    0.5709   -1.3467 N   0  0  0  0  0  0  0  0  0  0  0  0
    2.5329    1.7115   -1.7117 C   0  0  0  0  0  0  0  0  0  0  0  0
    2.0230    2.8362   -2.3797 C   0  0  0  0  0  0  0  0  0  0  0  0
    0.7743    3.4273   -2.1749 C   0  0  0  0  0  0  0  0  0  0  0  0
   -0.0317    2.9342   -1.1993 N   0  0  0  0  0  0  0  0  0  0  0  0
    3.8544    1.7033   -1.2357 C   0  0  0  0  0  0  0  0  0  0  0  0
    4.9175    2.7660   -1.4187 C   0  0  0  0  0  0  0  0  0  0  0  0
    4.0313    0.5252   -0.5637 C   0  0  0  0  0  0  0  0  0  0  0  0
    5.3277    0.1185    0.0829 C   0  0  0  0  0  0  0  0  0  0  0  0
    5.4058    0.7427    1.4237 C   0  0  0  0  0  0  0  0  0  0  0  0
    6.6634    0.5676    2.0483 O   0  0  0  0  0  0  0  0  0  0  0  0
    6.8588    1.0950    3.3040 C   0  0  0  0  0  0  0  0  0  0  0  0
    5.8893    1.7143    3.8395 O   0  0  0  0  0  0  0  0  0  0  0  0
    8.1435    0.9568    4.0208 C   0  0  0  0  0  0  0  0  0  0  0  0
    8.8315    1.2133    5.1001 C   0  0  0  0  0  0  0  0  0  0  0  0
    9.5294    0.4600    4.0610 C   0  0  0  0  0  0  0  0  0  0  0  0
    5.5267   -1.2594    0.0602 O   0  0  0  0  0  0  0  0  0  0  0  0
    6.4959   -1.9217   -0.6702 C   0  0  0  0  0  0  0  0  0  0  0  0
    7.2574   -1.2279   -1.3757 O   0  0  0  0  0  0  0  0  0  0  0  0
    6.6404   -3.3647   -0.6349 C   0  0  0  0  0  0  0  0  0  0  0  0
    7.2832   -4.5201   -1.0551 C   0  0  0  0  0  0  0  0  0  0  0  0
    6.2232   -4.7120   -0.1287 C   0  0  0  0  0  0  0  0  0  0  0  0
    0.7310   -2.9773    0.3942 C   0  0  0  0  0  0  0  0  0  0  0  0
    1.4125   -4.2436   -0.0728 C   0  0  0  0  0  0  0  0  0  0  0  0
   -0.5930   -2.8950    0.7643 C   0  0  0  0  0  0  0  0  0  0  0  0
   -1.5556   -4.0523    0.7535 C   0  0  0  0  0  0  0  0  0  0  0  0
   -1.7189   -4.6812    2.0958 C   0  0  0  0  0  0  0  0  0  0  0  0
   -2.4942   -5.8567    2.0758 O   0  0  0  0  0  0  0  0  0  0  0  0
   -2.1965   -7.0126    1.3995 C   0  0  0  0  0  0  0  0  0  0  0  0
   -1.1148   -7.0346    0.7239 O   0  0  0  0  0  0  0  0  0  0  0  0
   -3.0749   -8.1712    1.4473 C   0  0  0  0  0  0  0  0  0  0  0  0
   -3.3739   -9.4632    1.0855 C   0  0  0  0  0  0  0  0  0  0  0  0
   -4.3247   -8.7934    1.9484 C   0  0  0  0  0  0  0  0  0  0  0  0
   -2.7338   -3.6313    0.1333 O   0  0  0  0  0  0  0  0  0  0  0  0
   -3.1964   -4.1543   -1.0672 C   0  0  0  0  0  0  0  0  0  0  0  0
   -2.4887   -5.0515   -1.5814 O   0  0  0  0  0  0  0  0  0  0  0  0
   -4.4239   -3.6759   -1.6678 C   0  0  0  0  0  0  0  0  0  0  0  0
   -5.5280   -2.8216   -1.6262 C   0  0  0  0  0  0  0  0  0  0  0  0
   -5.4365   -3.7103   -2.7506 C   0  0  0  0  0  0  0  0  0  0  0  0
   -4.0608    0.5367    0.9459 C   0  0  0  0  0  0  0  0  0  0  0  0
   -5.3045   -0.2459    1.3318 C   0  0  0  0  0  0  0  0  0  0  0  0
   -4.0731    1.7660    0.4745 C   0  0  0  0  0  0  0  0  0  0  0  0
   -5.2989    2.5518    0.2280 C   0  0  0  0  0  0  0  0  0  0  0  0
   -5.5042    3.7372    1.0968 C   0  0  0  0  0  0  0  0  0  0  0  0
   -6.7946    4.3815    0.6892 C   0  0  0  0  0  0  0  0  0  0  0  0
   -7.4614    3.8784   -0.2433 O   0  0  0  0  0  0  0  0  0  0  0  0
   -7.2459    5.5321    1.3453 O   0  0  0  0  0  0  0  0  0  0  0  0
    0.0341    5.0630   -4.8232 H   0  0  0  0  0  0  0  0  0  0  0  0
    1.6553    5.1686   -4.0627 H   0  0  0  0  0  0  0  0  0  0  0  0
    0.3869    6.4330   -3.7449 H   0  0  0  0  0  0  0  0  0  0  0  0
   -3.1691    5.1448   -2.5234 H   0  0  0  0  0  0  0  0  0  0  0  0
   -2.0016    6.1580   -3.4819 H   0  0  0  0  0  0  0  0  0  0  0  0
   -1.2837    7.2783   -1.3634 H   0  0  0  0  0  0  0  0  0  0  0  0
   -2.4801    6.3562   -0.4329 H   0  0  0  0  0  0  0  0  0  0  0  0
   -4.7115    8.1644   -3.2803 H   0  0  0  0  0  0  0  0  0  0  0  0
   -2.5904    4.2058    0.2564 H   0  0  0  0  0  0  0  0  0  0  0  0
   -2.7729   -1.7340    2.0653 H   0  0  0  0  0  0  0  0  0  0  0  0
    0.4597    0.2198    1.2926 H   0  0  0  0  0  0  0  0  0  0  0  0
    3.3804   -2.0437    0.2111 H   0  0  0  0  0  0  0  0  0  0  0  0
    0.8856    0.2798   -1.6448 H   0  0  0  0  0  0  0  0  0  0  0  0
    2.6024    3.3783   -3.1327 H   0  0  0  0  0  0  0  0  0  0  0  0
    4.6922    3.2758   -2.3950 H   0  0  0  0  0  0  0  0  0  0  0  0
    5.8823    2.2732   -1.5558 H   0  0  0  0  0  0  0  0  0  0  0  0
    4.9470    3.4653   -0.5771 H   0  0  0  0  0  0  0  0  0  0  0  0
    6.1593    0.5492   -0.5595 H   0  0  0  0  0  0  0  0  0  0  0  0
    4.5883    0.3562    2.0977 H   0  0  0  0  0  0  0  0  0  0  0  0
    5.2341    1.8360    1.3820 H   0  0  0  0  0  0  0  0  0  0  0  0
    8.9152    1.6513    6.0884 H   0  0  0  0  0  0  0  0  0  0  0  0
    9.7589   -0.6057    4.1660 H   0  0  0  0  0  0  0  0  0  0  0  0
   10.3430    1.0377    3.5571 H   0  0  0  0  0  0  0  0  0  0  0  0
    8.0736   -4.9092   -1.6882 H   0  0  0  0  0  0  0  0  0  0  0  0
    5.2345   -5.0340   -0.5102 H   0  0  0  0  0  0  0  0  0  0  0  0
    6.3401   -4.8408    0.9609 H   0  0  0  0  0  0  0  0  0  0  0  0
    0.9706   -4.5276   -1.0750 H   0  0  0  0  0  0  0  0  0  0  0  0
    2.4771   -4.0250   -0.1631 H   0  0  0  0  0  0  0  0  0  0  0  0
    1.1521   -5.0645    0.6158 H   0  0  0  0  0  0  0  0  0  0  0  0
   -1.1070   -4.8312    0.0935 H   0  0  0  0  0  0  0  0  0  0  0  0
   -2.2222   -3.9609    2.7770 H   0  0  0  0  0  0  0  0  0  0  0  0
   -0.7288   -4.9095    2.5501 H   0  0  0  0  0  0  0  0  0  0  0  0
   -3.0740  -10.3512    0.5277 H   0  0  0  0  0  0  0  0  0  0  0  0
   -4.3415   -8.9434    3.0396 H   0  0  0  0  0  0  0  0  0  0  0  0
   -5.3006   -8.4865    1.4857 H   0  0  0  0  0  0  0  0  0  0  0  0
   -6.0246   -2.0390   -1.0634 H   0  0  0  0  0  0  0  0  0  0  0  0
   -5.2184   -3.2445   -3.7313 H   0  0  0  0  0  0  0  0  0  0  0  0
   -6.1575   -4.5481   -2.7859 H   0  0  0  0  0  0  0  0  0  0  0  0
   -5.0180   -1.2798    1.5396 H   0  0  0  0  0  0  0  0  0  0  0  0
   -6.0491   -0.2429    0.5117 H   0  0  0  0  0  0  0  0  0  0  0  0
   -5.8108    0.2643    2.1823 H   0  0  0  0  0  0  0  0  0  0  0  0
   -5.1941    2.9411   -0.8354 H   0  0  0  0  0  0  0  0  0  0  0  0
   -6.1761    1.8795    0.1818 H   0  0  0  0  0  0  0  0  0  0  0  0
   -4.7228    4.5113    1.0509 H   0  0  0  0  0  0  0  0  0  0  0  0
   -5.5825    3.4424    2.1773 H   0  0  0  0  0  0  0  0  0  0  0  0
   -8.1991    5.8020    1.1423 H   0  0  0  0  0  0  0  0  0  0  0  0
  1  2  1  0
  2  3  2  0
  3  4  1  0
  4  5  1  0
  5  6  1  0
  6  7  2  0
  6  8  1  0
  3  9  1  0
  9 10  2  0
 10 11  1  0
 11 12  2  0
 12 13  1  0
 13 14  2  0
 14 15  1  0
 15 16  1  0
 16 17  1  0
 17 18  1  0
 18 19  2  0
 19 20  1  0
 20 21  1  0
 21 22  2  0
 22 23  1  0
 23 24  2  0
 21 25  1  0
 25 26  1  0
 25 27  2  0
 27 28  1  0
 28 29  1  0
 29 30  1  0
 30 31  1  0
 31 32  2  0
 31 33  1  0
 33 34  2  0
 34 35  1  0
 28 36  1  0
 36 37  1  0
 37 38  2  0
 37 39  1  0
 39 40  2  0
 40 41  1  0
 17 42  2  0
 42 43  1  0
 42 44  1  0
 44 45  1  0
 45 46  1  0
 46 47  1  0
 47 48  1  0
 48 49  2  0
 48 50  1  0
 50 51  2  0
 51 52  1  0
 45 53  1  0
 53 54  1  0
 54 55  2  0
 54 56  1  0
 56 57  2  0
 57 58  1  0
 13 59  1  0
 59 60  1  0
 59 61  2  0
 61 62  1  0
 62 63  1  0
 63 64  1  0
 64 65  2  0
 64 66  1  0
 23  2  1  0
 35 33  1  0
 41 39  1  0
 52 50  1  0
 58 56  1  0
 24  9  1  0
 61 11  1  0
 44 15  2  0
 27 19  1  0
  1 67  1  0
  1 68  1  0
  1 69  1  0
  4 70  1  0
  4 71  1  0
  5 72  1  0
  5 73  1  0
  8 74  1  0
 10 75  1  0
 14 76  1  0
 16 77  1  0
 18 78  1  0
 20 79  1  0
 22 80  1  0
 26 81  1  0
 26 82  1  0
 26 83  1  0
 28 84  1  0
 29 85  1  0
 29 86  1  0
 34 87  1  0
 35 88  1  0
 35 89  1  0
 40 90  1  0
 41 91  1  0
 41 92  1  0
 43 93  1  0
 43 94  1  0
 43 95  1  0
 45 96  1  0
 46 97  1  0
 46 98  1  0
 51 99  1  0
 52100  1  0
 52101  1  0
 57102  1  0
 58103  1  0
 58104  1  0
 60105  1  0
 60106  1  0
 60107  1  0
 62108  1  0
 62109  1  0
 63110  1  0
 63111  1  0
 66112  1  0
M  END
$$$$
