@<TRIPOS>MOLECULE
*****
 43 46 0 0 0
SMALL
GASTEIGER

@<TRIPOS>ATOM
      1 N           3.2230    2.4066    1.8986 N.3     1  UNL1       -0.2541
      2 N           2.6688    1.4372    1.0256 N.am    1  UNL1       -0.2483
      3 C           3.4847    0.8949    0.0217 C.2     1  UNL1        0.2773
      4 O           4.6775    1.2865   -0.0683 O.2     1  UNL1       -0.2672
      5 C           3.0435   -0.1164   -0.9538 C.ar    1  UNL1        0.1484
      6 C           3.7794   -0.6832   -1.9666 C.ar    1  UNL1        0.0606
      7 N           2.9912   -1.5511   -2.6137 N.ar    1  UNL1       -0.2339
      8 C           1.7724   -1.5655   -2.0553 C.ar    1  UNL1        0.1549
      9 C           0.5990   -2.2698   -2.3278 C.ar    1  UNL1       -0.0153
     10 C          -0.4779   -2.0154   -1.5193 C.ar    1  UNL1       -0.0290
     11 C          -0.4244   -1.1138   -0.4848 C.ar    1  UNL1        0.1103
     12 C          -1.5739   -0.8503    0.3767 C.ar    1  UNL1        0.0968
     13 C          -2.2254    0.3495    0.5060 C.ar    1  UNL1        0.0982
     14 C          -1.8991    1.5977   -0.1991 C.ar    1  UNL1        0.0027
     15 C          -1.9981    1.7299   -1.5661 C.ar    1  UNL1       -0.0498
     16 C          -1.6901    2.9041   -2.2322 C.ar    1  UNL1       -0.0258
     17 C          -1.2664    3.9941   -1.5185 C.ar    1  UNL1        0.1234
     18 F          -0.9612    5.1600   -2.1784 F       1  UNL1       -0.2055
     19 C          -1.1612    3.8802   -0.1492 C.ar    1  UNL1       -0.0258
     20 C          -1.4693    2.7053    0.5185 C.ar    1  UNL1       -0.0498
     21 N          -3.2389    0.1878    1.4075 N.ar    1  UNL1       -0.2351
     22 C          -3.1945   -1.1046    1.8170 C.ar    1  UNL1        0.0973
     23 N          -2.1643   -1.7368    1.1758 N.ar    1  UNL1       -0.3229
     24 C          -1.7939   -3.1097    1.3431 C.3     1  UNL1        0.0852
     25 C          -0.7783   -3.3428    2.4417 C.3     1  UNL1        0.2569
     26 F          -0.5387   -4.7240    2.4603 F       1  UNL1       -0.2073
     27 F           0.3773   -2.6440    2.2850 F       1  UNL1       -0.2073
     28 N           0.7485   -0.4750   -0.2893 N.ar    1  UNL1       -0.1628
     29 N           1.8049   -0.6882   -1.0402 N.ar    1  UNL1       -0.2075
     30 H           3.8250    1.9657    2.5988 H       1  UNL1        0.1405
     31 H           3.6995    3.0890    1.2653 H       1  UNL1        0.1405
     32 H           1.6884    1.1367    1.1241 H       1  UNL1        0.1691
     33 H           4.8329   -0.4388   -2.1767 H       1  UNL1        0.0854
     34 H           0.6016   -2.9633   -3.1439 H       1  UNL1        0.0655
     35 H          -1.4031   -2.5389   -1.7034 H       1  UNL1        0.0641
     36 H          -2.3287    0.8841   -2.1365 H       1  UNL1        0.0625
     37 H          -1.7760    2.9787   -3.2893 H       1  UNL1        0.0646
     38 H          -0.8314    4.7270    0.4060 H       1  UNL1        0.0646
     39 H          -1.3848    2.6186    1.6067 H       1  UNL1        0.0625
     40 H          -3.8669   -1.5711    2.5397 H       1  UNL1        0.1029
     41 H          -1.4789   -3.6276    0.4138 H       1  UNL1        0.0548
     42 H          -2.7016   -3.6986    1.6772 H       1  UNL1        0.0548
     43 H          -1.1904   -3.1046    3.4439 H       1  UNL1        0.1037
@<TRIPOS>BOND
     1     1     2    1
     2     2     3   am
     3     3     4    2
     4     3     5    1
     5     5     6   ar
     6     6     7   ar
     7     7     8   ar
     8     8     9   ar
     9     9    10   ar
    10    10    11   ar
    11    11    12    1
    12    12    13   ar
    13    13    14    1
    14    14    15   ar
    15    15    16   ar
    16    16    17   ar
    17    17    18    1
    18    17    19   ar
    19    19    20   ar
    20    13    21   ar
    21    21    22   ar
    22    22    23   ar
    23    23    24    1
    24    24    25    1
    25    25    26    1
    26    25    27    1
    27    11    28   ar
    28    28    29   ar
    29    29     5   ar
    30    29     8   ar
    31    23    12   ar
    32    20    14   ar
    33     1    30    1
    34     1    31    1
    35     2    32    1
    36     6    33    1
    37     9    34    1
    38    10    35    1
    39    15    36    1
    40    16    37    1
    41    19    38    1
    42    20    39    1
    43    22    40    1
    44    24    41    1
    45    24    42    1
    46    25    43    1
