@<TRIPOS>MOLECULE
*****
 50 52 0 0 0
SMALL
GASTEIGER

@<TRIPOS>ATOM
      1 C           2.7766   -2.2035   -1.4530 C.3     1  UNL1       -0.0421
      2 C           2.4876   -1.3904   -0.2369 C.3     1  UNL1        0.0515
      3 C           3.3639   -0.2228   -0.1991 C.ar    1  UNL1       -0.0271
      4 C           4.3788   -0.0945   -1.1202 C.ar    1  UNL1       -0.0558
      5 C           5.2295    0.9985   -1.1165 C.ar    1  UNL1       -0.0474
      6 C           5.0301    1.9647   -0.1551 C.ar    1  UNL1        0.0179
      7 BR          6.1590    3.5226   -0.0654 Br      1  UNL1       -0.0503
      8 C           4.0109    1.8336    0.7682 C.ar    1  UNL1       -0.0474
      9 C           3.1614    0.7520    0.7722 C.ar    1  UNL1       -0.0558
     10 N           1.0868   -1.0783   -0.0766 N.am    1  UNL1       -0.2605
     11 C           0.3066   -1.5665    1.0336 C.3     1  UNL1        0.0224
     12 C          -0.8966   -0.7239    1.3417 C.3     1  UNL1        0.0075
     13 C          -1.5556   -0.0803    0.2040 C.3     1  UNL1        0.1418
     14 C          -2.4293    1.0644    0.6486 C.3     1  UNL1       -0.0002
     15 C          -1.7389    2.1783    1.3546 C.3     1  UNL1        0.0277
     16 C          -2.7453    3.2301    1.6983 C.2     1  UNL1        0.2106
     17 N          -2.3158    4.4004    2.3820 N.am    1  UNL1       -0.3293
     18 O          -3.9478    3.0684    1.3817 O.2     1  UNL1       -0.2760
     19 C          -2.4515   -0.9763   -0.6160 C.ar    1  UNL1       -0.0039
     20 C          -2.6793   -2.2793   -0.2636 C.ar    1  UNL1       -0.0521
     21 C          -3.5091   -3.0594   -1.0619 C.ar    1  UNL1       -0.0261
     22 C          -4.0801   -2.5034   -2.1846 C.ar    1  UNL1        0.1234
     23 F          -4.8941   -3.2850   -2.9593 F       1  UNL1       -0.2055
     24 C          -3.8383   -1.1857   -2.5245 C.ar    1  UNL1       -0.0261
     25 C          -3.0234   -0.3892   -1.7566 C.ar    1  UNL1       -0.0521
     26 O          -0.6633    0.4846   -0.7475 O.3     1  UNL1       -0.4388
     27 C           0.4819   -0.2565   -1.0666 C.2     1  UNL1        0.4042
     28 O           0.9819   -0.2002   -2.2287 O.2     1  UNL1       -0.2262
     29 H           3.8138   -2.6332   -1.3167 H       1  UNL1        0.0251
     30 H           2.1360   -3.1345   -1.5042 H       1  UNL1        0.0251
     31 H           2.7872   -1.6625   -2.3987 H       1  UNL1        0.0251
     32 H           2.7785   -2.0429    0.6410 H       1  UNL1        0.0549
     33 H           4.5744   -0.8428   -1.9051 H       1  UNL1        0.0621
     34 H           6.0140    1.0970   -1.8291 H       1  UNL1        0.0629
     35 H           3.8466    2.5933    1.5317 H       1  UNL1        0.0629
     36 H           2.3486    0.6421    1.5044 H       1  UNL1        0.0621
     37 H           0.9869   -1.4834    1.9347 H       1  UNL1        0.0467
     38 H           0.0913   -2.6495    0.9786 H       1  UNL1        0.0467
     39 H          -1.6164   -1.3587    1.8908 H       1  UNL1        0.0322
     40 H          -0.6105    0.0523    2.1148 H       1  UNL1        0.0322
     41 H          -3.2311    0.7025    1.3661 H       1  UNL1        0.0312
     42 H          -3.0180    1.4956   -0.1909 H       1  UNL1        0.0312
     43 H          -0.9111    2.6237    0.7463 H       1  UNL1        0.0360
     44 H          -1.2969    1.8456    2.2974 H       1  UNL1        0.0360
     45 H          -1.4607    4.4259    2.9823 H       1  UNL1        0.1449
     46 H          -2.8807    5.2702    2.2780 H       1  UNL1        0.1449
     47 H          -2.2373   -2.7170    0.6118 H       1  UNL1        0.0622
     48 H          -3.6728   -4.0871   -0.7607 H       1  UNL1        0.0646
     49 H          -4.3083   -0.7967   -3.4126 H       1  UNL1        0.0646
     50 H          -2.8201    0.6578   -2.0159 H       1  UNL1        0.0622
@<TRIPOS>BOND
     1     1     2    1
     2     2     3    1
     3     3     4   ar
     4     4     5   ar
     5     5     6   ar
     6     6     7    1
     7     6     8   ar
     8     8     9   ar
     9     2    10    1
    10    10    11    1
    11    11    12    1
    12    12    13    1
    13    13    14    1
    14    14    15    1
    15    15    16    1
    16    16    17   am
    17    16    18    2
    18    13    19    1
    19    19    20   ar
    20    20    21   ar
    21    21    22   ar
    22    22    23    1
    23    22    24   ar
    24    24    25   ar
    25    13    26    1
    26    26    27    1
    27    27    28    2
    28     9     3   ar
    29    27    10   am
    30    25    19   ar
    31     1    29    1
    32     1    30    1
    33     1    31    1
    34     2    32    1
    35     4    33    1
    36     5    34    1
    37     8    35    1
    38     9    36    1
    39    11    37    1
    40    11    38    1
    41    12    39    1
    42    12    40    1
    43    14    41    1
    44    14    42    1
    45    15    43    1
    46    15    44    1
    47    17    45    1
    48    17    46    1
    49    20    47    1
    50    21    48    1
    51    24    49    1
    52    25    50    1
