@<TRIPOS>MOLECULE
*****
 57 59 0 0 0
SMALL
GASTEIGER

@<TRIPOS>ATOM
      1 C          -7.4542   -0.6352    2.7699 C.3     1  UNL1       -0.0643
      2 C          -5.9591   -0.5343    2.6237 C.3     1  UNL1       -0.0397
      3 C          -5.5835   -0.6485    1.0972 C.3     1  UNL1        0.0753
      4 C          -6.3109    0.5149    0.5056 C.3     1  UNL1       -0.0397
      5 C          -6.2132    0.7418   -0.9508 C.3     1  UNL1       -0.0643
      6 C          -4.0969   -0.5595    1.1176 C.3     1  UNL1        0.0400
      7 C          -3.4149   -0.6828   -0.1842 C.2     1  UNL1        0.2183
      8 O          -3.9005   -0.9656   -1.3009 O.2     1  UNL1       -0.2754
      9 N          -2.0221   -0.4436   -0.1353 N.am    1  UNL1       -0.2855
     10 C          -1.0742   -0.4758   -1.1837 C.ar    1  UNL1        0.0339
     11 C           0.2570   -0.2249   -0.9253 C.ar    1  UNL1       -0.0333
     12 C           1.2443   -0.2330   -1.8783 C.ar    1  UNL1       -0.0232
     13 C           2.6291    0.0508   -1.4613 C.2     1  UNL1       -0.0520
     14 C           3.6599    0.0731   -2.2802 C.2     1  UNL1       -0.0290
     15 C           4.9657    0.3707   -1.7070 C.ar    1  UNL1        0.1014
     16 N           5.4429    0.6243   -0.6276 N.ar    1  UNL1       -0.2443
     17 C           6.7284    0.8570   -0.4228 C.ar    1  UNL1        0.0522
     18 C           7.6017    0.8028   -1.5573 C.ar    1  UNL1       -0.0008
     19 S           6.4158    0.3940   -2.9115 S.2     1  UNL1       -0.0759
     20 C           7.3374    1.1735    0.9196 C.3     1  UNL1        0.0019
     21 C           8.5374    0.2935    1.2150 C.3     1  UNL1       -0.0447
     22 C           9.4314    1.5176    1.3259 C.3     1  UNL1       -0.0519
     23 C           8.2566    2.3693    0.8932 C.3     1  UNL1       -0.0447
     24 C           0.9462   -0.5001   -3.1800 C.ar    1  UNL1       -0.0545
     25 C          -0.3663   -0.7583   -3.4985 C.ar    1  UNL1       -0.0595
     26 C          -1.3199   -0.7392   -2.5120 C.ar    1  UNL1       -0.0404
     27 C          -6.0632   -1.9376    0.6047 C.2     1  UNL1        0.3114
     28 O          -5.5413   -3.0649    1.2342 O.3     1  UNL1       -0.4802
     29 O          -6.8834   -2.1327   -0.3119 O.2     1  UNL1       -0.2504
     30 H          -7.9381    0.3459    2.7060 H       1  UNL1        0.0230
     31 H          -7.6638   -1.0179    3.8096 H       1  UNL1        0.0230
     32 H          -7.8339   -1.3570    2.0181 H       1  UNL1        0.0230
     33 H          -5.6029    0.4608    2.9613 H       1  UNL1        0.0273
     34 H          -5.4086   -1.3215    3.1362 H       1  UNL1        0.0273
     35 H          -7.3964    0.3504    0.7401 H       1  UNL1        0.0273
     36 H          -6.0292    1.4398    1.0750 H       1  UNL1        0.0273
     37 H          -6.4479   -0.1776   -1.5203 H       1  UNL1        0.0230
     38 H          -7.0721    1.4578   -1.2011 H       1  UNL1        0.0230
     39 H          -5.3277    1.2967   -1.2852 H       1  UNL1        0.0230
     40 H          -3.6846   -1.2721    1.8739 H       1  UNL1        0.0369
     41 H          -3.8555    0.4490    1.5548 H       1  UNL1        0.0369
     42 H          -1.6156   -0.2038    0.8195 H       1  UNL1        0.1548
     43 H           0.5634   -0.0016    0.1094 H       1  UNL1        0.0642
     44 H           2.8351    0.2594   -0.4059 H       1  UNL1        0.0624
     45 H           3.4919   -0.1279   -3.3263 H       1  UNL1        0.0644
     46 H           8.6506    0.9610   -1.5803 H       1  UNL1        0.0712
     47 H           6.5867    1.1804    1.7315 H       1  UNL1        0.0364
     48 H           8.7908   -0.3688    0.3544 H       1  UNL1        0.0272
     49 H           8.4258   -0.2855    2.1629 H       1  UNL1        0.0272
     50 H           9.7584    1.7296    2.3708 H       1  UNL1        0.0266
     51 H          10.2745    1.4810    0.5795 H       1  UNL1        0.0266
     52 H           8.0039    3.1193    1.6723 H       1  UNL1        0.0272
     53 H           8.3518    2.7845   -0.1215 H       1  UNL1        0.0272
     54 H           1.6631   -0.5232   -3.9733 H       1  UNL1        0.0623
     55 H          -0.6219   -0.9741   -4.5375 H       1  UNL1        0.0618
     56 H          -2.3044   -0.9476   -2.8394 H       1  UNL1        0.0636
     57 H          -5.8438   -3.9843    0.9627 H       1  UNL1        0.2951
@<TRIPOS>BOND
     1     1     2    1
     2     2     3    1
     3     3     4    1
     4     4     5    1
     5     3     6    1
     6     6     7    1
     7     7     8    2
     8     7     9   am
     9     9    10    1
    10    10    11   ar
    11    11    12   ar
    12    12    13    1
    13    13    14    2
    14    14    15    1
    15    15    16   ar
    16    16    17   ar
    17    17    18   ar
    18    18    19   ar
    19    17    20    1
    20    20    21    1
    21    21    22    1
    22    22    23    1
    23    12    24   ar
    24    24    25   ar
    25    25    26   ar
    26     3    27    1
    27    27    28    1
    28    27    29    2
    29    26    10   ar
    30    19    15   ar
    31    23    20    1
    32     1    30    1
    33     1    31    1
    34     1    32    1
    35     2    33    1
    36     2    34    1
    37     4    35    1
    38     4    36    1
    39     5    37    1
    40     5    38    1
    41     5    39    1
    42     6    40    1
    43     6    41    1
    44     9    42    1
    45    11    43    1
    46    13    44    1
    47    14    45    1
    48    18    46    1
    49    20    47    1
    50    21    48    1
    51    21    49    1
    52    22    50    1
    53    22    51    1
    54    23    52    1
    55    23    53    1
    56    24    54    1
    57    25    55    1
    58    26    56    1
    59    28    57    1
