
     RDKit          3D

 30 31  0  0  0  0  0  0  0  0999 V2000
   -3.2967   -1.0101   -1.5036 C   0  0  0  0  0  0  0  0  0  0  0  0
   -3.4226    0.0695   -0.4914 C   0  0  0  0  0  0  0  0  0  0  0  0
   -4.5314    0.7564   -0.1509 N   0  0  0  0  0  0  0  0  0  0  0  0
   -4.2370    1.6376    0.7925 N   0  0  0  0  0  0  0  0  0  0  0  0
   -2.9191    1.5748    1.1203 C   0  0  0  0  0  0  0  0  0  0  0  0
   -2.3871    0.5743    0.3047 C   0  0  0  0  0  0  0  0  0  0  0  0
   -0.9858    0.1378    0.2939 C   0  0  0  0  0  0  0  0  0  0  0  0
   -0.2399   -0.1041    1.4369 C   0  0  0  0  0  0  0  0  0  0  0  0
    1.0843   -0.5157    1.3213 C   0  0  0  0  0  0  0  0  0  0  0  0
    1.7001   -0.6972    0.0789 C   0  0  0  0  0  0  0  0  0  0  0  0
    3.1013   -1.1334    0.0381 C   0  0  0  0  0  0  0  0  0  0  0  0
    4.1026   -0.0183    0.0319 C   0  0  0  0  0  0  0  0  0  0  0  0
    4.0129    0.8884   -1.0620 N   0  0  0  0  0  0  0  0  0  0  0  0
    0.9381   -0.4504   -1.0449 C   0  0  0  0  0  0  0  0  0  0  0  0
   -0.3663   -0.0450   -0.9365 C   0  0  0  0  0  0  0  0  0  0  0  0
   -3.1455   -0.5770   -2.5064 H   0  0  0  0  0  0  0  0  0  0  0  0
   -4.2418   -1.5991   -1.5150 H   0  0  0  0  0  0  0  0  0  0  0  0
   -2.4933   -1.7241   -1.2532 H   0  0  0  0  0  0  0  0  0  0  0  0
   -4.9028    2.3151    1.2547 H   0  0  0  0  0  0  0  0  0  0  0  0
   -2.3778    2.1576    1.8465 H   0  0  0  0  0  0  0  0  0  0  0  0
   -0.7191    0.0372    2.3954 H   0  0  0  0  0  0  0  0  0  0  0  0
    1.6339   -0.6947    2.2547 H   0  0  0  0  0  0  0  0  0  0  0  0
    3.3039   -1.7223    0.9664 H   0  0  0  0  0  0  0  0  0  0  0  0
    3.2937   -1.8363   -0.7955 H   0  0  0  0  0  0  0  0  0  0  0  0
    4.0995    0.5187    1.0071 H   0  0  0  0  0  0  0  0  0  0  0  0
    5.1080   -0.5179   -0.0116 H   0  0  0  0  0  0  0  0  0  0  0  0
    3.9478    1.8869   -0.8475 H   0  0  0  0  0  0  0  0  0  0  0  0
    3.4987    0.5304   -1.8688 H   0  0  0  0  0  0  0  0  0  0  0  0
    1.3762   -0.5788   -2.0251 H   0  0  0  0  0  0  0  0  0  0  0  0
   -0.9349    0.1397   -1.8453 H   0  0  0  0  0  0  0  0  0  0  0  0
  1  2  1  0
  2  3  2  0
  3  4  1  0
  4  5  1  0
  5  6  2  0
  6  7  1  0
  7  8  2  0
  8  9  1  0
  9 10  2  0
 10 11  1  0
 11 12  1  0
 12 13  1  0
 10 14  1  0
 14 15  2  0
  6  2  1  0
 15  7  1  0
  1 16  1  0
  1 17  1  0
  1 18  1  0
  4 19  1  0
  5 20  1  0
  8 21  1  0
  9 22  1  0
 11 23  1  0
 11 24  1  0
 12 25  1  0
 12 26  1  0
 13 27  1  0
 13 28  1  0
 14 29  1  0
 15 30  1  0
M  END
$$$$
