@<TRIPOS>MOLECULE
*****
 61 63 0 0 0
SMALL
GASTEIGER

@<TRIPOS>ATOM
      1 C          -0.2971    3.7974    2.4153 C.3     1  UNL1       -0.0605
      2 C          -0.6846    4.0403    0.9781 C.3     1  UNL1       -0.0196
      3 C           0.2717    5.0602    0.4113 C.3     1  UNL1       -0.0605
      4 C          -0.7210    2.7449    0.2068 C.3     1  UNL1        0.1050
      5 N          -1.6670    1.8091    0.7158 N.am    1  UNL1       -0.2696
      6 C          -2.6220    1.1327   -0.0939 C.2     1  UNL1        0.4012
      7 O          -2.6406    1.3648   -1.3170 O.2     1  UNL1       -0.2265
      8 O          -3.5071    0.2442    0.4332 O.3     1  UNL1       -0.4456
      9 C          -4.4816   -0.4536   -0.3290 C.3     1  UNL1        0.1191
     10 C          -5.2209   -1.3293    0.6151 C.ar    1  UNL1       -0.0103
     11 C          -6.3236   -0.9198    1.3291 C.ar    1  UNL1       -0.0554
     12 C          -7.0098   -1.7626    2.2033 C.ar    1  UNL1       -0.0614
     13 C          -6.5819   -3.0620    2.3735 C.ar    1  UNL1       -0.0617
     14 C          -5.4804   -3.4860    1.6679 C.ar    1  UNL1       -0.0614
     15 C          -4.8255   -2.6345    0.8135 C.ar    1  UNL1       -0.0554
     16 C           0.6448    2.2050   -0.0245 C.2     1  UNL1        0.2369
     17 O           1.5345    3.0262   -0.5066 O.2     1  UNL1       -0.2735
     18 N           1.1174    0.8990    0.2130 N.am    1  UNL1       -0.2884
     19 C           0.5302   -0.3084    0.7163 C.3     1  UNL1        0.0156
     20 C           1.5649   -0.8136    1.7047 C.3     1  UNL1       -0.0350
     21 C           2.8487   -0.1823    1.2292 C.3     1  UNL1       -0.0243
     22 C           2.5130    0.5285   -0.0542 C.3     1  UNL1        0.1023
     23 C           2.6204   -0.4402   -1.1597 C.2     1  UNL1        0.2340
     24 O           1.6697   -0.8543   -1.8689 O.2     1  UNL1       -0.2738
     25 N           3.9023   -1.0086   -1.5162 N.am    1  UNL1       -0.3044
     26 C           4.0007   -1.9509   -2.5766 C.3     1  UNL1        0.0954
     27 C           4.8644   -1.4968   -3.7369 C.3     1  UNL1        0.0692
     28 C           5.2214   -2.8424   -4.3184 C.2     1  UNL1        0.3113
     29 O           5.7802   -3.0768   -5.4212 O.2     1  UNL1       -0.2507
     30 O           4.8428   -3.8531   -3.4399 O.3     1  UNL1       -0.4332
     31 C           4.6746   -3.2358   -2.1803 C.3     1  UNL1        0.2213
     32 O           5.9582   -3.0381   -1.6584 O.3     1  UNL1       -0.3563
     33 H          -1.0562    3.3015    3.0233 H       1  UNL1        0.0233
     34 H           0.6994    3.2977    2.4671 H       1  UNL1        0.0233
     35 H          -0.1047    4.8098    2.8521 H       1  UNL1        0.0233
     36 H          -1.6743    4.5415    1.0104 H       1  UNL1        0.0318
     37 H           1.3163    4.9406    0.7539 H       1  UNL1        0.0233
     38 H           0.2558    4.9677   -0.6938 H       1  UNL1        0.0233
     39 H          -0.0523    6.1036    0.6276 H       1  UNL1        0.0233
     40 H          -1.0711    3.0209   -0.8305 H       1  UNL1        0.0598
     41 H          -1.6340    1.6630    1.7728 H       1  UNL1        0.1528
     42 H          -5.1952    0.3204   -0.6872 H       1  UNL1        0.0749
     43 H          -4.0450   -0.9961   -1.1725 H       1  UNL1        0.0749
     44 H          -6.6699    0.0911    1.2105 H       1  UNL1        0.0621
     45 H          -7.8659   -1.4078    2.7394 H       1  UNL1        0.0618
     46 H          -7.1201   -3.7228    3.0592 H       1  UNL1        0.0618
     47 H          -5.1469   -4.5074    1.8003 H       1  UNL1        0.0618
     48 H          -3.9437   -2.9710    0.2495 H       1  UNL1        0.0621
     49 H          -0.4575   -0.1890    1.2032 H       1  UNL1        0.0465
     50 H           0.3549   -1.0860   -0.0595 H       1  UNL1        0.0465
     51 H           1.6253   -1.9154    1.7650 H       1  UNL1        0.0281
     52 H           1.3401   -0.3731    2.7051 H       1  UNL1        0.0281
     53 H           3.2686    0.5360    1.9614 H       1  UNL1        0.0288
     54 H           3.6190   -0.9680    1.0377 H       1  UNL1        0.0288
     55 H           3.1535    1.4249   -0.2148 H       1  UNL1        0.0597
     56 H           4.7393   -0.7115   -0.9852 H       1  UNL1        0.1493
     57 H           3.0149   -2.2175   -3.0191 H       1  UNL1        0.0565
     58 H           4.3070   -0.8714   -4.4529 H       1  UNL1        0.0398
     59 H           5.7739   -1.0258   -3.3474 H       1  UNL1        0.0398
     60 H           4.0654   -3.8900   -1.5418 H       1  UNL1        0.1074
     61 H           6.0067   -2.2688   -1.0583 H       1  UNL1        0.2136
@<TRIPOS>BOND
     1     1     2    1
     2     2     3    1
     3     2     4    1
     4     4     5    1
     5     5     6   am
     6     6     7    2
     7     6     8    1
     8     8     9    1
     9     9    10    1
    10    10    11   ar
    11    11    12   ar
    12    12    13   ar
    13    13    14   ar
    14    14    15   ar
    15     4    16    1
    16    16    17    2
    17    16    18   am
    18    18    19    1
    19    19    20    1
    20    20    21    1
    21    21    22    1
    22    22    23    1
    23    23    24    2
    24    23    25   am
    25    25    26    1
    26    26    27    1
    27    27    28    1
    28    28    29    2
    29    28    30    1
    30    30    31    1
    31    31    32    1
    32    15    10   ar
    33    22    18    1
    34    31    26    1
    35     1    33    1
    36     1    34    1
    37     1    35    1
    38     2    36    1
    39     3    37    1
    40     3    38    1
    41     3    39    1
    42     4    40    1
    43     5    41    1
    44     9    42    1
    45     9    43    1
    46    11    44    1
    47    12    45    1
    48    13    46    1
    49    14    47    1
    50    15    48    1
    51    19    49    1
    52    19    50    1
    53    20    51    1
    54    20    52    1
    55    21    53    1
    56    21    54    1
    57    22    55    1
    58    25    56    1
    59    26    57    1
    60    27    58    1
    61    27    59    1
    62    31    60    1
    63    32    61    1
