
     RDKit          3D

 61 63  0  0  0  0  0  0  0  0999 V2000
   -0.2971    3.7974    2.4153 C   0  0  0  0  0  0  0  0  0  0  0  0
   -0.6846    4.0403    0.9781 C   0  0  0  0  0  0  0  0  0  0  0  0
    0.2717    5.0602    0.4113 C   0  0  0  0  0  0  0  0  0  0  0  0
   -0.7210    2.7449    0.2068 C   0  0  2  0  0  0  0  0  0  0  0  0
   -1.6670    1.8091    0.7158 N   0  0  0  0  0  0  0  0  0  0  0  0
   -2.6220    1.1327   -0.0939 C   0  0  0  0  0  0  0  0  0  0  0  0
   -2.6406    1.3648   -1.3170 O   0  0  0  0  0  0  0  0  0  0  0  0
   -3.5071    0.2442    0.4332 O   0  0  0  0  0  0  0  0  0  0  0  0
   -4.4816   -0.4536   -0.3290 C   0  0  0  0  0  0  0  0  0  0  0  0
   -5.2209   -1.3293    0.6151 C   0  0  0  0  0  0  0  0  0  0  0  0
   -6.3236   -0.9198    1.3291 C   0  0  0  0  0  0  0  0  0  0  0  0
   -7.0098   -1.7626    2.2033 C   0  0  0  0  0  0  0  0  0  0  0  0
   -6.5819   -3.0620    2.3735 C   0  0  0  0  0  0  0  0  0  0  0  0
   -5.4804   -3.4860    1.6679 C   0  0  0  0  0  0  0  0  0  0  0  0
   -4.8255   -2.6345    0.8135 C   0  0  0  0  0  0  0  0  0  0  0  0
    0.6448    2.2050   -0.0245 C   0  0  0  0  0  0  0  0  0  0  0  0
    1.5345    3.0262   -0.5066 O   0  0  0  0  0  0  0  0  0  0  0  0
    1.1174    0.8990    0.2130 N   0  0  0  0  0  0  0  0  0  0  0  0
    0.5302   -0.3084    0.7163 C   0  0  0  0  0  0  0  0  0  0  0  0
    1.5649   -0.8136    1.7047 C   0  0  0  0  0  0  0  0  0  0  0  0
    2.8487   -0.1823    1.2292 C   0  0  0  0  0  0  0  0  0  0  0  0
    2.5130    0.5285   -0.0542 C   0  0  1  0  0  0  0  0  0  0  0  0
    2.6204   -0.4402   -1.1597 C   0  0  0  0  0  0  0  0  0  0  0  0
    1.6697   -0.8543   -1.8689 O   0  0  0  0  0  0  0  0  0  0  0  0
    3.9023   -1.0086   -1.5162 N   0  0  0  0  0  0  0  0  0  0  0  0
    4.0007   -1.9509   -2.5766 C   0  0  1  0  0  0  0  0  0  0  0  0
    4.8644   -1.4968   -3.7369 C   0  0  0  0  0  0  0  0  0  0  0  0
    5.2214   -2.8424   -4.3184 C   0  0  0  0  0  0  0  0  0  0  0  0
    5.7802   -3.0768   -5.4212 O   0  0  0  0  0  0  0  0  0  0  0  0
    4.8428   -3.8531   -3.4399 O   0  0  0  0  0  0  0  0  0  0  0  0
    4.6746   -3.2358   -2.1803 C   0  0  0  0  0  0  0  0  0  0  0  0
    5.9582   -3.0381   -1.6584 O   0  0  0  0  0  0  0  0  0  0  0  0
   -1.0562    3.3015    3.0233 H   0  0  0  0  0  0  0  0  0  0  0  0
    0.6994    3.2977    2.4671 H   0  0  0  0  0  0  0  0  0  0  0  0
   -0.1047    4.8098    2.8521 H   0  0  0  0  0  0  0  0  0  0  0  0
   -1.6743    4.5415    1.0104 H   0  0  0  0  0  0  0  0  0  0  0  0
    1.3163    4.9406    0.7539 H   0  0  0  0  0  0  0  0  0  0  0  0
    0.2558    4.9677   -0.6938 H   0  0  0  0  0  0  0  0  0  0  0  0
   -0.0523    6.1036    0.6276 H   0  0  0  0  0  0  0  0  0  0  0  0
   -1.0711    3.0209   -0.8305 H   0  0  0  0  0  0  0  0  0  0  0  0
   -1.6340    1.6630    1.7728 H   0  0  0  0  0  0  0  0  0  0  0  0
   -5.1952    0.3204   -0.6872 H   0  0  0  0  0  0  0  0  0  0  0  0
   -4.0450   -0.9961   -1.1725 H   0  0  0  0  0  0  0  0  0  0  0  0
   -6.6699    0.0911    1.2105 H   0  0  0  0  0  0  0  0  0  0  0  0
   -7.8659   -1.4078    2.7394 H   0  0  0  0  0  0  0  0  0  0  0  0
   -7.1201   -3.7228    3.0592 H   0  0  0  0  0  0  0  0  0  0  0  0
   -5.1469   -4.5074    1.8003 H   0  0  0  0  0  0  0  0  0  0  0  0
   -3.9437   -2.9710    0.2495 H   0  0  0  0  0  0  0  0  0  0  0  0
   -0.4575   -0.1890    1.2032 H   0  0  0  0  0  0  0  0  0  0  0  0
    0.3549   -1.0860   -0.0595 H   0  0  0  0  0  0  0  0  0  0  0  0
    1.6253   -1.9154    1.7650 H   0  0  0  0  0  0  0  0  0  0  0  0
    1.3401   -0.3731    2.7051 H   0  0  0  0  0  0  0  0  0  0  0  0
    3.2686    0.5360    1.9614 H   0  0  0  0  0  0  0  0  0  0  0  0
    3.6190   -0.9680    1.0377 H   0  0  0  0  0  0  0  0  0  0  0  0
    3.1535    1.4249   -0.2148 H   0  0  0  0  0  0  0  0  0  0  0  0
    4.7393   -0.7115   -0.9852 H   0  0  0  0  0  0  0  0  0  0  0  0
    3.0149   -2.2175   -3.0191 H   0  0  0  0  0  0  0  0  0  0  0  0
    4.3070   -0.8714   -4.4529 H   0  0  0  0  0  0  0  0  0  0  0  0
    5.7739   -1.0258   -3.3474 H   0  0  0  0  0  0  0  0  0  0  0  0
    4.0654   -3.8900   -1.5418 H   0  0  0  0  0  0  0  0  0  0  0  0
    6.0067   -2.2688   -1.0583 H   0  0  0  0  0  0  0  0  0  0  0  0
  1  2  1  0
  2  3  1  0
  2  4  1  0
  4  5  1  0
  5  6  1  0
  6  7  2  0
  6  8  1  0
  8  9  1  0
  9 10  1  0
 10 11  2  0
 11 12  1  0
 12 13  2  0
 13 14  1  0
 14 15  2  0
  4 16  1  0
 16 17  2  0
 16 18  1  0
 18 19  1  0
 19 20  1  0
 20 21  1  0
 21 22  1  0
 22 23  1  0
 23 24  2  0
 23 25  1  0
 25 26  1  0
 26 27  1  0
 27 28  1  0
 28 29  2  0
 28 30  1  0
 30 31  1  0
 31 32  1  0
 15 10  1  0
 22 18  1  0
 31 26  1  0
  1 33  1  0
  1 34  1  0
  1 35  1  0
  2 36  1  0
  3 37  1  0
  3 38  1  0
  3 39  1  0
  4 40  1  6
  5 41  1  0
  9 42  1  0
  9 43  1  0
 11 44  1  0
 12 45  1  0
 13 46  1  0
 14 47  1  0
 15 48  1  0
 19 49  1  0
 19 50  1  0
 20 51  1  0
 20 52  1  0
 21 53  1  0
 21 54  1  0
 22 55  1  6
 25 56  1  0
 26 57  1  6
 27 58  1  0
 27 59  1  0
 31 60  1  0
 32 61  1  0
M  END
$$$$
