@<TRIPOS>MOLECULE
*****
 49 53 0 0 0
SMALL
GASTEIGER

@<TRIPOS>ATOM
      1 C           7.5636   -1.1936    1.4093 C.3     1  UNL1       -0.0205
      2 C           6.4491   -0.6942    0.5543 C.ar    1  UNL1        0.0625
      3 C           6.5631   -0.3476   -0.7734 C.ar    1  UNL1        0.0052
      4 C           5.3001    0.0524   -1.1517 C.ar    1  UNL1        0.1560
      5 N           4.8411    0.4968   -2.3531 N.ar    1  UNL1       -0.2357
      6 C           3.5468    0.8355   -2.4869 C.ar    1  UNL1        0.0361
      7 C           2.6444    0.7503   -1.4368 C.ar    1  UNL1        0.0074
      8 C           3.1456    0.2980   -0.2419 C.ar    1  UNL1        0.0649
      9 N           4.4390   -0.0397   -0.1110 N.ar    1  UNL1       -0.2168
     10 N           5.1728   -0.4959    0.9052 N.ar    1  UNL1       -0.1699
     11 C           2.0019    0.3018    0.6970 C.3     1  UNL1        0.0424
     12 N           0.9980    1.1302    0.1107 N.3     1  UNL1       -0.2872
     13 C          -0.3290    0.8861    0.5807 C.3     1  UNL1        0.0360
     14 C          -1.2890    1.8219   -0.1319 C.3     1  UNL1        0.0641
     15 O          -2.5566    1.5885    0.3975 O.3     1  UNL1       -0.3688
     16 C          -2.9834    0.3686   -0.1048 C.3     1  UNL1        0.1015
     17 C          -4.4118    0.2179    0.1863 C.ar    1  UNL1        0.0207
     18 C          -5.2679   -0.4291   -0.6815 C.ar    1  UNL1       -0.0152
     19 C          -6.6167   -0.5791   -0.4212 C.ar    1  UNL1        0.1589
     20 F          -7.4544   -1.2206   -1.2864 F       1  UNL1       -0.2025
     21 C          -7.1549   -0.0771    0.7346 C.ar    1  UNL1        0.1611
     22 F          -8.4936   -0.2346    0.9768 F       1  UNL1       -0.2024
     23 C          -6.3248    0.5706    1.6140 C.ar    1  UNL1        0.0120
     24 C          -4.9670    0.7198    1.3486 C.ar    1  UNL1        0.1320
     25 F          -4.2114    1.3717    2.2660 F       1  UNL1       -0.2050
     26 C          -2.1976   -0.7911    0.4413 C.3     1  UNL1        0.0371
     27 N          -2.4481   -1.9244   -0.4628 N.3     1  UNL1       -0.3248
     28 C          -0.7275   -0.5515    0.5061 C.3     1  UNL1       -0.0172
     29 C           1.1897    1.0487   -1.2993 C.3     1  UNL1        0.0280
     30 H           8.5367   -0.8455    1.0647 H       1  UNL1        0.0293
     31 H           7.3867   -0.8220    2.4546 H       1  UNL1        0.0293
     32 H           7.5133   -2.3069    1.4845 H       1  UNL1        0.0293
     33 H           7.4792   -0.3980   -1.3524 H       1  UNL1        0.0673
     34 H           3.1349    1.1970   -3.4324 H       1  UNL1        0.0834
     35 H           1.5857   -0.7420    0.8019 H       1  UNL1        0.0491
     36 H           2.2834    0.6301    1.7216 H       1  UNL1        0.0491
     37 H          -0.3497    1.2210    1.6557 H       1  UNL1        0.0486
     38 H          -1.3256    1.5227   -1.1946 H       1  UNL1        0.0576
     39 H          -0.9294    2.8422    0.0437 H       1  UNL1        0.0576
     40 H          -2.8178    0.4048   -1.2151 H       1  UNL1        0.0663
     41 H          -4.8615   -0.8363   -1.6069 H       1  UNL1        0.0651
     42 H          -6.7587    0.9728    2.5412 H       1  UNL1        0.0676
     43 H          -2.5733   -1.1297    1.4329 H       1  UNL1        0.0488
     44 H          -2.5016   -1.5162   -1.4273 H       1  UNL1        0.1186
     45 H          -3.2955   -2.4506   -0.2030 H       1  UNL1        0.1186
     46 H          -0.2481   -0.9997   -0.3998 H       1  UNL1        0.0297
     47 H          -0.3263   -1.0406    1.4397 H       1  UNL1        0.0297
     48 H           0.6594    0.1972   -1.7701 H       1  UNL1        0.0477
     49 H           0.9866    2.0076   -1.8248 H       1  UNL1        0.0477
@<TRIPOS>BOND
     1     1     2    1
     2     2     3   ar
     3     3     4   ar
     4     4     5   ar
     5     5     6   ar
     6     6     7   ar
     7     7     8   ar
     8     8     9   ar
     9     9    10   ar
    10     8    11    1
    11    11    12    1
    12    12    13    1
    13    13    14    1
    14    14    15    1
    15    15    16    1
    16    16    17    1
    17    17    18   ar
    18    18    19   ar
    19    19    20    1
    20    19    21   ar
    21    21    22    1
    22    21    23   ar
    23    23    24   ar
    24    24    25    1
    25    16    26    1
    26    26    27    1
    27    26    28    1
    28    12    29    1
    29    10     2   ar
    30    28    13    1
    31     9     4   ar
    32    24    17   ar
    33    29     7    1
    34     1    30    1
    35     1    31    1
    36     1    32    1
    37     3    33    1
    38     6    34    1
    39    11    35    1
    40    11    36    1
    41    13    37    1
    42    14    38    1
    43    14    39    1
    44    16    40    1
    45    18    41    1
    46    23    42    1
    47    26    43    1
    48    27    44    1
    49    27    45    1
    50    28    46    1
    51    28    47    1
    52    29    48    1
    53    29    49    1
