
     RDKit          3D

 71 75  0  0  0  0  0  0  0  0999 V2000
   -9.2484    0.8286    2.3675 C   0  0  0  0  0  0  0  0  0  0  0  0
   -7.9440    1.4934    2.7314 C   0  0  0  0  0  0  0  0  0  0  0  0
   -6.8467    0.6963    2.2420 N   0  0  0  0  0  0  0  0  0  0  0  0
   -6.8454    0.7473    0.7846 C   0  0  0  0  0  0  0  0  0  0  0  0
   -5.9143   -0.3272    0.3097 C   0  0  0  0  0  0  0  0  0  0  0  0
   -4.6490   -0.3307    0.9965 N   0  0  0  0  0  0  0  0  0  0  0  0
   -4.4065   -1.6163    1.5949 C   0  0  0  0  0  0  0  0  0  0  0  0
   -4.1919   -2.6287    0.5294 C   0  0  0  0  0  0  0  0  0  0  0  0
   -3.0449   -2.3906   -0.3604 C   0  0  0  0  0  0  0  0  0  0  0  0
   -2.1836   -1.4139   -0.2675 C   0  0  0  0  0  0  0  0  0  0  0  0
   -1.0490   -1.1733   -1.1442 C   0  0  0  0  0  0  0  0  0  0  0  0
   -0.1940   -0.0898   -0.9222 C   0  0  0  0  0  0  0  0  0  0  0  0
    0.8926    0.1547   -1.7533 C   0  0  0  0  0  0  0  0  0  0  0  0
    1.1562   -0.6691   -2.8230 C   0  0  0  0  0  0  0  0  0  0  0  0
    2.2249   -0.4294   -3.6451 C   0  0  0  0  0  0  0  0  0  0  0  0
    3.0920    0.6649   -3.4197 N   0  0  0  0  0  0  0  0  0  0  0  0
    4.2433    0.4794   -2.6102 C   0  0  0  0  0  0  0  0  0  0  0  0
    5.1625    1.5251   -2.4818 C   0  0  0  0  0  0  0  0  0  0  0  0
    6.2971    1.3851   -1.7073 C   0  0  0  0  0  0  0  0  0  0  0  0
    6.5415    0.1890   -1.0384 C   0  0  0  0  0  0  0  0  0  0  0  0
    7.9940   -0.0173   -0.0557 S   0  0  0  0  0  0  0  0  0  0  0  0
    7.7296    0.5136    1.6373 C   0  0  0  0  0  0  0  0  0  0  0  0
    6.6163    1.0201    2.1873 N   0  0  0  0  0  0  0  0  0  0  0  0
    6.8049    1.3001    3.4821 C   0  0  0  0  0  0  0  0  0  0  0  0
    8.1076    0.9453    3.7421 C   0  0  0  0  0  0  0  0  0  0  0  0
    8.6483    0.4718    2.6123 N   0  0  0  0  0  0  0  0  0  0  0  0
   10.0035   -0.0145    2.4494 C   0  0  0  0  0  0  0  0  0  0  0  0
    5.6482   -0.8464   -1.1548 C   0  0  0  0  0  0  0  0  0  0  0  0
    5.9409   -2.3677   -0.3144 Cl  0  0  0  0  0  0  0  0  0  0  0  0
    4.5302   -0.6759   -1.9320 C   0  0  0  0  0  0  0  0  0  0  0  0
    2.4660   -1.2729   -4.7158 C   0  0  0  0  0  0  0  0  0  0  0  0
    3.5846   -1.0097   -5.5624 C   0  0  0  0  0  0  0  0  0  0  0  0
    4.4768   -0.7809   -6.2361 N   0  0  0  0  0  0  0  0  0  0  0  0
    1.6204   -2.3492   -4.9400 C   0  0  0  0  0  0  0  0  0  0  0  0
    0.5767   -2.5561   -4.1105 N   0  0  0  0  0  0  0  0  0  0  0  0
    0.3262   -1.7417   -3.0589 C   0  0  0  0  0  0  0  0  0  0  0  0
   -0.7637   -1.9784   -2.2170 C   0  0  0  0  0  0  0  0  0  0  0  0
   -4.4277    0.7920    1.8457 C   0  0  0  0  0  0  0  0  0  0  0  0
   -5.5630    1.1775    2.7199 C   0  0  0  0  0  0  0  0  0  0  0  0
   -9.9618    0.7787    3.2134 H   0  0  0  0  0  0  0  0  0  0  0  0
   -9.0839   -0.2286    2.0368 H   0  0  0  0  0  0  0  0  0  0  0  0
   -9.7622    1.4012    1.5459 H   0  0  0  0  0  0  0  0  0  0  0  0
   -7.9000    2.4909    2.2275 H   0  0  0  0  0  0  0  0  0  0  0  0
   -7.9204    1.6406    3.8226 H   0  0  0  0  0  0  0  0  0  0  0  0
   -6.5251    1.7408    0.4371 H   0  0  0  0  0  0  0  0  0  0  0  0
   -7.8705    0.4848    0.4635 H   0  0  0  0  0  0  0  0  0  0  0  0
   -6.4389   -1.3015    0.5449 H   0  0  0  0  0  0  0  0  0  0  0  0
   -5.7576   -0.3464   -0.7789 H   0  0  0  0  0  0  0  0  0  0  0  0
   -5.3512   -1.8957    2.1275 H   0  0  0  0  0  0  0  0  0  0  0  0
   -3.6198   -1.6029    2.3737 H   0  0  0  0  0  0  0  0  0  0  0  0
   -4.0616   -3.6293    1.0085 H   0  0  0  0  0  0  0  0  0  0  0  0
   -5.1129   -2.7112   -0.0823 H   0  0  0  0  0  0  0  0  0  0  0  0
   -2.9126   -3.0996   -1.1672 H   0  0  0  0  0  0  0  0  0  0  0  0
   -2.3470   -0.7171    0.5650 H   0  0  0  0  0  0  0  0  0  0  0  0
   -0.4226    0.5390   -0.0781 H   0  0  0  0  0  0  0  0  0  0  0  0
    1.5497    1.0029   -1.5675 H   0  0  0  0  0  0  0  0  0  0  0  0
    2.8885    1.5921   -3.8398 H   0  0  0  0  0  0  0  0  0  0  0  0
    4.9793    2.4645   -3.0016 H   0  0  0  0  0  0  0  0  0  0  0  0
    6.9739    2.2344   -1.6474 H   0  0  0  0  0  0  0  0  0  0  0  0
    6.1411    1.7128    4.2296 H   0  0  0  0  0  0  0  0  0  0  0  0
    8.6304    1.0221    4.6793 H   0  0  0  0  0  0  0  0  0  0  0  0
   10.4055    0.4144    1.5213 H   0  0  0  0  0  0  0  0  0  0  0  0
    9.9496   -1.1193    2.3406 H   0  0  0  0  0  0  0  0  0  0  0  0
   10.5998    0.2321    3.3513 H   0  0  0  0  0  0  0  0  0  0  0  0
    3.8335   -1.4992   -2.0147 H   0  0  0  0  0  0  0  0  0  0  0  0
    1.8385   -2.9874   -5.7863 H   0  0  0  0  0  0  0  0  0  0  0  0
   -1.3931   -2.8272   -2.4311 H   0  0  0  0  0  0  0  0  0  0  0  0
   -3.5347    0.5534    2.4805 H   0  0  0  0  0  0  0  0  0  0  0  0
   -4.1097    1.6403    1.1898 H   0  0  0  0  0  0  0  0  0  0  0  0
   -5.4623    0.9166    3.7809 H   0  0  0  0  0  0  0  0  0  0  0  0
   -5.6542    2.3045    2.6936 H   0  0  0  0  0  0  0  0  0  0  0  0
  1  2  1  0
  2  3  1  0
  3  4  1  0
  4  5  1  0
  5  6  1  0
  6  7  1  0
  7  8  1  0
  8  9  1  0
  9 10  2  0
 10 11  1  0
 11 12  2  0
 12 13  1  0
 13 14  2  0
 14 15  1  0
 15 16  1  0
 16 17  1  0
 17 18  2  0
 18 19  1  0
 19 20  2  0
 20 21  1  0
 21 22  1  0
 22 23  2  0
 23 24  1  0
 24 25  2  0
 25 26  1  0
 26 27  1  0
 20 28  1  0
 28 29  1  0
 28 30  2  0
 15 31  2  0
 31 32  1  0
 32 33  3  0
 31 34  1  0
 34 35  2  0
 35 36  1  0
 36 37  2  0
  6 38  1  0
 38 39  1  0
 39  3  1  0
 37 11  1  0
 36 14  1  0
 30 17  1  0
 26 22  1  0
  1 40  1  0
  1 41  1  0
  1 42  1  0
  2 43  1  0
  2 44  1  0
  4 45  1  0
  4 46  1  0
  5 47  1  0
  5 48  1  0
  7 49  1  0
  7 50  1  0
  8 51  1  0
  8 52  1  0
  9 53  1  0
 10 54  1  0
 12 55  1  0
 13 56  1  0
 16 57  1  0
 18 58  1  0
 19 59  1  0
 24 60  1  0
 25 61  1  0
 27 62  1  0
 27 63  1  0
 27 64  1  0
 30 65  1  0
 34 66  1  0
 37 67  1  0
 38 68  1  0
 38 69  1  0
 39 70  1  0
 39 71  1  0
M  END
$$$$
