@<TRIPOS>MOLECULE
*****
 71 75 0 0 0
SMALL
GASTEIGER

@<TRIPOS>ATOM
      1 C          -9.2484    0.8286    2.3675 C.3     1  UNL1       -0.0524
      2 C          -7.9440    1.4934    2.7314 C.3     1  UNL1       -0.0039
      3 N          -6.8467    0.6963    2.2420 N.3     1  UNL1       -0.3002
      4 C          -6.8454    0.7473    0.7846 C.3     1  UNL1        0.0117
      5 C          -5.9143   -0.3272    0.3097 C.3     1  UNL1        0.0117
      6 N          -4.6490   -0.3307    0.9965 N.3     1  UNL1       -0.2996
      7 C          -4.4065   -1.6163    1.5949 C.3     1  UNL1        0.0024
      8 C          -4.1919   -2.6287    0.5294 C.3     1  UNL1       -0.0216
      9 C          -3.0449   -2.3906   -0.3604 C.2     1  UNL1       -0.0822
     10 C          -2.1836   -1.4139   -0.2675 C.2     1  UNL1       -0.0584
     11 C          -1.0490   -1.1733   -1.1442 C.ar    1  UNL1       -0.0233
     12 C          -0.1940   -0.0898   -0.9222 C.ar    1  UNL1       -0.0539
     13 C           0.8926    0.1547   -1.7533 C.ar    1  UNL1       -0.0502
     14 C           1.1562   -0.6691   -2.8230 C.ar    1  UNL1        0.0228
     15 C           2.2249   -0.4294   -3.6451 C.ar    1  UNL1        0.0597
     16 N           3.0920    0.6649   -3.4197 N.pl3   1  UNL1       -0.3129
     17 C           4.2433    0.4794   -2.6102 C.ar    1  UNL1        0.0328
     18 C           5.1625    1.5251   -2.4818 C.ar    1  UNL1       -0.0394
     19 C           6.2971    1.3851   -1.7073 C.ar    1  UNL1       -0.0447
     20 C           6.5415    0.1890   -1.0384 C.ar    1  UNL1        0.0340
     21 S           7.9940   -0.0173   -0.0557 S.3     1  UNL1       -0.0502
     22 C           7.7296    0.5136    1.6373 C.ar    1  UNL1        0.1735
     23 N           6.6163    1.0201    2.1873 N.ar    1  UNL1       -0.2300
     24 C           6.8049    1.3001    3.4821 C.ar    1  UNL1        0.0466
     25 C           8.1076    0.9453    3.7421 C.ar    1  UNL1        0.0247
     26 N           8.6483    0.4718    2.6123 N.ar    1  UNL1       -0.3284
     27 C          10.0035   -0.0145    2.4494 C.3     1  UNL1        0.0137
     28 C           5.6482   -0.8464   -1.1548 C.ar    1  UNL1        0.0565
     29 CL          5.9409   -2.3677   -0.3144 Cl      1  UNL1       -0.0823
     30 C           4.5302   -0.6759   -1.9320 C.ar    1  UNL1       -0.0211
     31 C           2.4660   -1.2729   -4.7158 C.ar    1  UNL1        0.0915
     32 C           3.5846   -1.0097   -5.5624 C.1     1  UNL1        0.1026
     33 N           4.4768   -0.7809   -6.2361 N.1     1  UNL1       -0.1908
     34 C           1.6204   -2.3492   -4.9400 C.ar    1  UNL1        0.0474
     35 N           0.5767   -2.5561   -4.1105 N.ar    1  UNL1       -0.2536
     36 C           0.3262   -1.7417   -3.0589 C.ar    1  UNL1        0.0734
     37 C          -0.7637   -1.9784   -2.2170 C.ar    1  UNL1       -0.0285
     38 C          -4.4277    0.7920    1.8457 C.3     1  UNL1        0.0117
     39 C          -5.5630    1.1775    2.7199 C.3     1  UNL1        0.0117
     40 H          -9.9618    0.7787    3.2134 H       1  UNL1        0.0242
     41 H          -9.0839   -0.2286    2.0368 H       1  UNL1        0.0242
     42 H          -9.7622    1.4012    1.5459 H       1  UNL1        0.0242
     43 H          -7.9000    2.4909    2.2275 H       1  UNL1        0.0424
     44 H          -7.9204    1.6406    3.8226 H       1  UNL1        0.0424
     45 H          -6.5251    1.7408    0.4371 H       1  UNL1        0.0439
     46 H          -7.8705    0.4848    0.4635 H       1  UNL1        0.0439
     47 H          -6.4389   -1.3015    0.5449 H       1  UNL1        0.0439
     48 H          -5.7576   -0.3464   -0.7789 H       1  UNL1        0.0439
     49 H          -5.3512   -1.8957    2.1275 H       1  UNL1        0.0429
     50 H          -3.6198   -1.6029    2.3737 H       1  UNL1        0.0429
     51 H          -4.0616   -3.6293    1.0085 H       1  UNL1        0.0320
     52 H          -5.1129   -2.7112   -0.0823 H       1  UNL1        0.0320
     53 H          -2.9126   -3.0996   -1.1672 H       1  UNL1        0.0573
     54 H          -2.3470   -0.7171    0.5650 H       1  UNL1        0.0620
     55 H          -0.4226    0.5390   -0.0781 H       1  UNL1        0.0624
     56 H           1.5497    1.0029   -1.5675 H       1  UNL1        0.0625
     57 H           2.8885    1.5921   -3.8398 H       1  UNL1        0.1522
     58 H           4.9793    2.4645   -3.0016 H       1  UNL1        0.0636
     59 H           6.9739    2.2344   -1.6474 H       1  UNL1        0.0630
     60 H           6.1411    1.7128    4.2296 H       1  UNL1        0.0845
     61 H           8.6304    1.0221    4.6793 H       1  UNL1        0.0825
     62 H          10.4055    0.4144    1.5213 H       1  UNL1        0.0456
     63 H           9.9496   -1.1193    2.3406 H       1  UNL1        0.0456
     64 H          10.5998    0.2321    3.3513 H       1  UNL1        0.0456
     65 H           3.8335   -1.4992   -2.0147 H       1  UNL1        0.0651
     66 H           1.8385   -2.9874   -5.7863 H       1  UNL1        0.0843
     67 H          -1.3931   -2.8272   -2.4311 H       1  UNL1        0.0645
     68 H          -3.5347    0.5534    2.4805 H       1  UNL1        0.0439
     69 H          -4.1097    1.6403    1.1898 H       1  UNL1        0.0439
     70 H          -5.4623    0.9166    3.7809 H       1  UNL1        0.0439
     71 H          -5.6542    2.3045    2.6936 H       1  UNL1        0.0439
@<TRIPOS>BOND
     1     1     2    1
     2     2     3    1
     3     3     4    1
     4     4     5    1
     5     5     6    1
     6     6     7    1
     7     7     8    1
     8     8     9    1
     9     9    10    2
    10    10    11    1
    11    11    12   ar
    12    12    13   ar
    13    13    14   ar
    14    14    15   ar
    15    15    16    1
    16    16    17    1
    17    17    18   ar
    18    18    19   ar
    19    19    20   ar
    20    20    21    1
    21    21    22    1
    22    22    23   ar
    23    23    24   ar
    24    24    25   ar
    25    25    26   ar
    26    26    27    1
    27    20    28   ar
    28    28    29    1
    29    28    30   ar
    30    15    31   ar
    31    31    32    1
    32    32    33    3
    33    31    34   ar
    34    34    35   ar
    35    35    36   ar
    36    36    37   ar
    37     6    38    1
    38    38    39    1
    39    39     3    1
    40    37    11   ar
    41    36    14   ar
    42    30    17   ar
    43    26    22   ar
    44     1    40    1
    45     1    41    1
    46     1    42    1
    47     2    43    1
    48     2    44    1
    49     4    45    1
    50     4    46    1
    51     5    47    1
    52     5    48    1
    53     7    49    1
    54     7    50    1
    55     8    51    1
    56     8    52    1
    57     9    53    1
    58    10    54    1
    59    12    55    1
    60    13    56    1
    61    16    57    1
    62    18    58    1
    63    19    59    1
    64    24    60    1
    65    25    61    1
    66    27    62    1
    67    27    63    1
    68    27    64    1
    69    30    65    1
    70    34    66    1
    71    37    67    1
    72    38    68    1
    73    38    69    1
    74    39    70    1
    75    39    71    1
