@<TRIPOS>MOLECULE
*****
 53 58 0 0 0
SMALL
GASTEIGER

@<TRIPOS>ATOM
      1 N          -0.1374   -3.7058   -0.2696 N.pl3   1  UNL1       -0.3134
      2 C          -0.1838   -2.2980   -0.4625 C.2     1  UNL1        0.2765
      3 N          -0.6572   -1.4963    0.3938 N.2     1  UNL1       -0.2171
      4 C          -0.5818   -0.0898   -0.0615 C.3     1  UNL1        0.1571
      5 C          -0.3808   -0.2808   -1.5355 C.3     1  UNL1        0.1261
      6 O           0.2507   -1.5623   -1.5556 O.2     1  UNL1       -0.4627
      7 C          -1.8580    0.5004    0.3037 C.ar    1  UNL1        0.0306
      8 C          -3.0469    0.0487   -0.2843 C.ar    1  UNL1       -0.0445
      9 C          -4.2801    0.5524    0.0058 C.ar    1  UNL1       -0.0130
     10 C          -5.5056    0.0607   -0.6245 C.ar    1  UNL1        0.0365
     11 C          -6.6559   -0.2057    0.0897 C.ar    1  UNL1       -0.0483
     12 C          -7.7751   -0.6704   -0.5910 C.ar    1  UNL1       -0.0428
     13 C          -7.7800   -0.8759   -1.9550 C.ar    1  UNL1        0.0307
     14 N          -6.6422   -0.6064   -2.6208 N.ar    1  UNL1       -0.2271
     15 C          -5.5312   -0.1508   -1.9838 C.ar    1  UNL1        0.2209
     16 F          -4.3954    0.1129   -2.6841 F       1  UNL1       -0.1832
     17 C          -4.3275    1.5674    0.9386 C.ar    1  UNL1       -0.0504
     18 C          -3.1934    2.0480    1.5455 C.ar    1  UNL1       -0.0184
     19 C          -1.9325    1.5042    1.2223 C.ar    1  UNL1        0.1345
     20 O          -0.8104    2.0410    1.8799 O.3     1  UNL1       -0.4538
     21 C           0.4190    1.4892    1.5451 C.ar    1  UNL1        0.1524
     22 C           1.5449    2.0212    2.1990 C.ar    1  UNL1        0.0706
     23 N           2.7710    1.5538    1.9422 N.ar    1  UNL1       -0.2536
     24 C           2.9505    0.5657    1.0532 C.ar    1  UNL1        0.0705
     25 C           4.3303    0.0357    0.7604 C.3     1  UNL1        0.1004
     26 C           5.3818    1.0203    1.2227 C.3     1  UNL1       -0.0209
     27 C           6.7299    0.3847    0.9548 C.3     1  UNL1       -0.0483
     28 C           6.8147    0.1458   -0.5460 C.3     1  UNL1       -0.0293
     29 C           5.6229   -0.6655   -0.9861 C.3     1  UNL1        0.0485
     30 O           4.4210   -0.0757   -0.6233 O.3     1  UNL1       -0.3705
     31 C           1.8641    0.0349    0.4060 C.ar    1  UNL1       -0.0284
     32 C           0.5517    0.4816    0.6312 C.ar    1  UNL1        0.0334
     33 H           0.7044   -4.2735   -0.4894 H       1  UNL1        0.1466
     34 H          -0.9858   -4.1725    0.1065 H       1  UNL1        0.1466
     35 H          -1.2844   -0.3635   -2.1282 H       1  UNL1        0.0729
     36 H           0.3038    0.4213   -2.0086 H       1  UNL1        0.0729
     37 H          -2.9428   -0.7533   -1.0113 H       1  UNL1        0.0628
     38 H          -6.6338   -0.0403    1.1480 H       1  UNL1        0.0625
     39 H          -8.6758   -0.8796   -0.0355 H       1  UNL1        0.0633
     40 H          -8.6657   -1.2407   -2.4732 H       1  UNL1        0.0830
     41 H          -5.3017    1.9794    1.1806 H       1  UNL1        0.0625
     42 H          -3.2163    2.8504    2.2849 H       1  UNL1        0.0654
     43 H           1.4015    2.8252    2.9229 H       1  UNL1        0.0867
     44 H           4.4235   -0.9496    1.2467 H       1  UNL1        0.0661
     45 H           5.2351    1.2612    2.2922 H       1  UNL1        0.0294
     46 H           5.3062    1.9139    0.5872 H       1  UNL1        0.0294
     47 H           7.5398    1.0969    1.1996 H       1  UNL1        0.0267
     48 H           6.8489   -0.5785    1.4686 H       1  UNL1        0.0267
     49 H           7.7157   -0.4633   -0.7562 H       1  UNL1        0.0287
     50 H           6.8478    1.1307   -1.0385 H       1  UNL1        0.0287
     51 H           5.6250   -0.7998   -2.0784 H       1  UNL1        0.0560
     52 H           5.7277   -1.6898   -0.5390 H       1  UNL1        0.0560
     53 H           2.0498   -0.7598   -0.3030 H       1  UNL1        0.0641
@<TRIPOS>BOND
     1     1     2    1
     2     2     3    2
     3     3     4    1
     4     4     5    1
     5     5     6    1
     6     4     7    1
     7     7     8   ar
     8     8     9   ar
     9     9    10    1
    10    10    11   ar
    11    11    12   ar
    12    12    13   ar
    13    13    14   ar
    14    14    15   ar
    15    15    16    1
    16     9    17   ar
    17    17    18   ar
    18    18    19   ar
    19    19    20    1
    20    20    21    1
    21    21    22   ar
    22    22    23   ar
    23    23    24   ar
    24    24    25    1
    25    25    26    1
    26    26    27    1
    27    27    28    1
    28    28    29    1
    29    29    30    1
    30    24    31   ar
    31    31    32   ar
    32     6     2    1
    33    19     7   ar
    34    32    21   ar
    35    32     4    1
    36    15    10   ar
    37    30    25    1
    38     1    33    1
    39     1    34    1
    40     5    35    1
    41     5    36    1
    42     8    37    1
    43    11    38    1
    44    12    39    1
    45    13    40    1
    46    17    41    1
    47    18    42    1
    48    22    43    1
    49    25    44    1
    50    26    45    1
    51    26    46    1
    52    27    47    1
    53    27    48    1
    54    28    49    1
    55    28    50    1
    56    29    51    1
    57    29    52    1
    58    31    53    1
