
     RDKit          3D

 53 58  0  0  0  0  0  0  0  0999 V2000
   -0.1374   -3.7058   -0.2696 N   0  0  0  0  0  0  0  0  0  0  0  0
   -0.1838   -2.2980   -0.4625 C   0  0  0  0  0  0  0  0  0  0  0  0
   -0.6572   -1.4963    0.3938 N   0  0  0  0  0  0  0  0  0  0  0  0
   -0.5818   -0.0898   -0.0615 C   0  0  1  0  0  0  0  0  0  0  0  0
   -0.3808   -0.2808   -1.5355 C   0  0  0  0  0  0  0  0  0  0  0  0
    0.2507   -1.5623   -1.5556 O   0  0  0  0  0  0  0  0  0  0  0  0
   -1.8580    0.5004    0.3037 C   0  0  0  0  0  0  0  0  0  0  0  0
   -3.0469    0.0487   -0.2843 C   0  0  0  0  0  0  0  0  0  0  0  0
   -4.2801    0.5524    0.0058 C   0  0  0  0  0  0  0  0  0  0  0  0
   -5.5056    0.0607   -0.6245 C   0  0  0  0  0  0  0  0  0  0  0  0
   -6.6559   -0.2057    0.0897 C   0  0  0  0  0  0  0  0  0  0  0  0
   -7.7751   -0.6704   -0.5910 C   0  0  0  0  0  0  0  0  0  0  0  0
   -7.7800   -0.8759   -1.9550 C   0  0  0  0  0  0  0  0  0  0  0  0
   -6.6422   -0.6064   -2.6208 N   0  0  0  0  0  0  0  0  0  0  0  0
   -5.5312   -0.1508   -1.9838 C   0  0  0  0  0  0  0  0  0  0  0  0
   -4.3954    0.1129   -2.6841 F   0  0  0  0  0  0  0  0  0  0  0  0
   -4.3275    1.5674    0.9386 C   0  0  0  0  0  0  0  0  0  0  0  0
   -3.1934    2.0480    1.5455 C   0  0  0  0  0  0  0  0  0  0  0  0
   -1.9325    1.5042    1.2223 C   0  0  0  0  0  0  0  0  0  0  0  0
   -0.8104    2.0410    1.8799 O   0  0  0  0  0  0  0  0  0  0  0  0
    0.4190    1.4892    1.5451 C   0  0  0  0  0  0  0  0  0  0  0  0
    1.5449    2.0212    2.1990 C   0  0  0  0  0  0  0  0  0  0  0  0
    2.7710    1.5538    1.9422 N   0  0  0  0  0  0  0  0  0  0  0  0
    2.9505    0.5657    1.0532 C   0  0  0  0  0  0  0  0  0  0  0  0
    4.3303    0.0357    0.7604 C   0  0  2  0  0  0  0  0  0  0  0  0
    5.3818    1.0203    1.2227 C   0  0  0  0  0  0  0  0  0  0  0  0
    6.7299    0.3847    0.9548 C   0  0  0  0  0  0  0  0  0  0  0  0
    6.8147    0.1458   -0.5460 C   0  0  0  0  0  0  0  0  0  0  0  0
    5.6229   -0.6655   -0.9861 C   0  0  0  0  0  0  0  0  0  0  0  0
    4.4210   -0.0757   -0.6233 O   0  0  0  0  0  0  0  0  0  0  0  0
    1.8641    0.0349    0.4060 C   0  0  0  0  0  0  0  0  0  0  0  0
    0.5517    0.4816    0.6312 C   0  0  0  0  0  0  0  0  0  0  0  0
    0.7044   -4.2735   -0.4894 H   0  0  0  0  0  0  0  0  0  0  0  0
   -0.9858   -4.1725    0.1065 H   0  0  0  0  0  0  0  0  0  0  0  0
   -1.2844   -0.3635   -2.1282 H   0  0  0  0  0  0  0  0  0  0  0  0
    0.3038    0.4213   -2.0086 H   0  0  0  0  0  0  0  0  0  0  0  0
   -2.9428   -0.7533   -1.0113 H   0  0  0  0  0  0  0  0  0  0  0  0
   -6.6338   -0.0403    1.1480 H   0  0  0  0  0  0  0  0  0  0  0  0
   -8.6758   -0.8796   -0.0355 H   0  0  0  0  0  0  0  0  0  0  0  0
   -8.6657   -1.2407   -2.4732 H   0  0  0  0  0  0  0  0  0  0  0  0
   -5.3017    1.9794    1.1806 H   0  0  0  0  0  0  0  0  0  0  0  0
   -3.2163    2.8504    2.2849 H   0  0  0  0  0  0  0  0  0  0  0  0
    1.4015    2.8252    2.9229 H   0  0  0  0  0  0  0  0  0  0  0  0
    4.4235   -0.9496    1.2467 H   0  0  0  0  0  0  0  0  0  0  0  0
    5.2351    1.2612    2.2922 H   0  0  0  0  0  0  0  0  0  0  0  0
    5.3062    1.9139    0.5872 H   0  0  0  0  0  0  0  0  0  0  0  0
    7.5398    1.0969    1.1996 H   0  0  0  0  0  0  0  0  0  0  0  0
    6.8489   -0.5785    1.4686 H   0  0  0  0  0  0  0  0  0  0  0  0
    7.7157   -0.4633   -0.7562 H   0  0  0  0  0  0  0  0  0  0  0  0
    6.8478    1.1307   -1.0385 H   0  0  0  0  0  0  0  0  0  0  0  0
    5.6250   -0.7998   -2.0784 H   0  0  0  0  0  0  0  0  0  0  0  0
    5.7277   -1.6898   -0.5390 H   0  0  0  0  0  0  0  0  0  0  0  0
    2.0498   -0.7598   -0.3030 H   0  0  0  0  0  0  0  0  0  0  0  0
  1  2  1  0
  2  3  2  0
  3  4  1  0
  4  5  1  6
  5  6  1  0
  4  7  1  0
  7  8  2  0
  8  9  1  0
  9 10  1  0
 10 11  2  0
 11 12  1  0
 12 13  2  0
 13 14  1  0
 14 15  2  0
 15 16  1  0
  9 17  2  0
 17 18  1  0
 18 19  2  0
 19 20  1  0
 20 21  1  0
 21 22  2  0
 22 23  1  0
 23 24  2  0
 24 25  1  0
 25 26  1  0
 26 27  1  0
 27 28  1  0
 28 29  1  0
 29 30  1  0
 24 31  1  0
 31 32  2  0
  6  2  1  0
 19  7  1  0
 32 21  1  0
 32  4  1  0
 15 10  1  0
 30 25  1  0
  1 33  1  0
  1 34  1  0
  5 35  1  0
  5 36  1  0
  8 37  1  0
 11 38  1  0
 12 39  1  0
 13 40  1  0
 17 41  1  0
 18 42  1  0
 22 43  1  0
 25 44  1  1
 26 45  1  0
 26 46  1  0
 27 47  1  0
 27 48  1  0
 28 49  1  0
 28 50  1  0
 29 51  1  0
 29 52  1  0
 31 53  1  0
M  END
$$$$
