
     RDKit          3D

 56 60  0  0  0  0  0  0  0  0999 V2000
    6.8507    0.2415   -2.1001 N   0  0  0  0  0  0  0  0  0  0  0  0
    5.3254   -0.3271   -2.6132 S   0  0  0  0  0  6  0  0  0  0  0  0
    5.0077    0.1728   -3.9906 O   0  0  0  0  0  0  0  0  0  0  0  0
    5.4399   -1.8388   -2.7355 O   0  0  0  0  0  0  0  0  0  0  0  0
    4.0608    0.0881   -1.4708 C   0  0  0  0  0  0  0  0  0  0  0  0
    3.3819    1.2630   -1.4861 C   0  0  0  0  0  0  0  0  0  0  0  0
    2.3738    1.5119   -0.5412 C   0  0  0  0  0  0  0  0  0  0  0  0
    2.0238    0.6071    0.4270 C   0  0  0  0  0  0  0  0  0  0  0  0
    0.9965    0.7855    1.4679 C   0  0  0  0  0  0  0  0  0  0  0  0
   -0.4082    0.7028    1.0301 C   0  0  0  0  0  0  0  0  0  0  0  0
   -1.1066    1.7100    0.3553 C   0  0  0  0  0  0  0  0  0  0  0  0
   -0.7220    3.0315   -0.0708 C   0  0  0  0  0  0  0  0  0  0  0  0
   -0.1353    3.9504    0.7590 C   0  0  0  0  0  0  0  0  0  0  0  0
    0.2348    5.2167    0.2863 C   0  0  0  0  0  0  0  0  0  0  0  0
    0.0086    5.5495   -1.0292 C   0  0  0  0  0  0  0  0  0  0  0  0
   -0.5774    4.6423   -1.8709 C   0  0  0  0  0  0  0  0  0  0  0  0
   -0.9324    3.4008   -1.3791 C   0  0  0  0  0  0  0  0  0  0  0  0
   -2.3695    1.2375    0.1264 N   0  0  0  0  0  0  0  0  0  0  0  0
   -2.5261    0.0579    0.5858 N   0  0  0  0  0  0  0  0  0  0  0  0
   -3.7100   -0.7933    0.5407 C   0  0  0  0  0  0  0  0  0  0  0  0
   -4.2805   -1.5528   -0.1156 N   0  0  0  0  0  0  0  0  0  0  0  0
   -5.3750   -2.2182    0.0727 C   0  0  0  0  0  0  0  0  0  0  0  0
   -6.0139   -3.1608   -0.8298 C   0  0  0  0  0  0  0  0  0  0  0  0
   -7.0827   -3.7483   -0.5323 O   0  0  0  0  0  0  0  0  0  0  0  0
   -5.4662   -3.4511   -2.0620 O   0  0  0  0  0  0  0  0  0  0  0  0
   -5.9588   -1.9076    1.3901 C   0  0  0  0  0  0  0  0  0  0  0  0
   -4.8580   -0.7688    2.0591 S   0  0  0  0  0  0  0  0  0  0  0  0
   -1.3208   -0.3200    1.1645 C   0  0  0  0  0  0  0  0  0  0  0  0
   -1.1884   -1.6288    1.7989 C   0  0  0  0  0  0  0  0  0  0  0  0
   -0.5433   -2.7237    1.0295 C   0  0  0  0  0  0  0  0  0  0  0  0
   -0.5458   -4.0608    1.7946 C   0  0  0  0  0  0  0  0  0  0  0  0
    0.7235   -3.3525    1.4880 C   0  0  0  0  0  0  0  0  0  0  0  0
    2.7593   -0.5836    0.3938 C   0  0  0  0  0  0  0  0  0  0  0  0
    3.7358   -0.8330   -0.5164 C   0  0  0  0  0  0  0  0  0  0  0  0
    6.6944    1.1430   -1.5596 H   0  0  0  0  0  0  0  0  0  0  0  0
    7.3115   -0.4240   -1.4661 H   0  0  0  0  0  0  0  0  0  0  0  0
    3.6252    2.0047   -2.2327 H   0  0  0  0  0  0  0  0  0  0  0  0
    1.8922    2.4654   -0.6033 H   0  0  0  0  0  0  0  0  0  0  0  0
    1.1825    0.0496    2.3243 H   0  0  0  0  0  0  0  0  0  0  0  0
    1.1771    1.7657    1.9869 H   0  0  0  0  0  0  0  0  0  0  0  0
    0.0635    3.7778    1.7991 H   0  0  0  0  0  0  0  0  0  0  0  0
    0.6970    5.9535    0.9203 H   0  0  0  0  0  0  0  0  0  0  0  0
    0.2884    6.5121   -1.3937 H   0  0  0  0  0  0  0  0  0  0  0  0
   -0.7618    4.8905   -2.9097 H   0  0  0  0  0  0  0  0  0  0  0  0
   -1.3934    2.7011   -2.0650 H   0  0  0  0  0  0  0  0  0  0  0  0
   -5.8216   -4.2335   -2.6202 H   0  0  0  0  0  0  0  0  0  0  0  0
   -6.9172   -2.3799    1.7576 H   0  0  0  0  0  0  0  0  0  0  0  0
   -2.2004   -1.9827    2.1493 H   0  0  0  0  0  0  0  0  0  0  0  0
   -0.6080   -1.5138    2.7573 H   0  0  0  0  0  0  0  0  0  0  0  0
   -0.7931   -2.8379   -0.0465 H   0  0  0  0  0  0  0  0  0  0  0  0
   -0.8365   -4.0708    2.8524 H   0  0  0  0  0  0  0  0  0  0  0  0
   -0.8427   -4.9745    1.2155 H   0  0  0  0  0  0  0  0  0  0  0  0
    1.2788   -2.8585    2.3203 H   0  0  0  0  0  0  0  0  0  0  0  0
    1.3665   -3.8054    0.7175 H   0  0  0  0  0  0  0  0  0  0  0  0
    2.5343   -1.3028    1.1512 H   0  0  0  0  0  0  0  0  0  0  0  0
    4.2620   -1.7797   -0.4810 H   0  0  0  0  0  0  0  0  0  0  0  0
  1  2  1  0
  2  3  2  0
  2  4  2  0
  2  5  1  0
  5  6  2  0
  6  7  1  0
  7  8  2  0
  8  9  1  0
  9 10  1  0
 10 11  1  0
 11 12  1  0
 12 13  2  0
 13 14  1  0
 14 15  2  0
 15 16  1  0
 16 17  2  0
 11 18  2  0
 18 19  1  0
 19 20  1  0
 20 21  2  0
 21 22  1  0
 22 23  1  0
 23 24  2  0
 23 25  1  0
 22 26  2  0
 26 27  1  0
 19 28  1  0
 28 29  1  0
 29 30  1  0
 30 31  1  0
 31 32  1  0
  8 33  1  0
 33 34  2  0
 34  5  1  0
 28 10  2  0
 32 30  1  0
 17 12  1  0
 27 20  1  0
  1 35  1  0
  1 36  1  0
  6 37  1  0
  7 38  1  0
  9 39  1  0
  9 40  1  0
 13 41  1  0
 14 42  1  0
 15 43  1  0
 16 44  1  0
 17 45  1  0
 25 46  1  0
 26 47  1  0
 29 48  1  0
 29 49  1  0
 30 50  1  0
 31 51  1  0
 31 52  1  0
 32 53  1  0
 32 54  1  0
 33 55  1  0
 34 56  1  0
M  END
$$$$
