@<TRIPOS>MOLECULE
*****
 56 60 0 0 0
SMALL
GASTEIGER

@<TRIPOS>ATOM
      1 N1          6.8507    0.2415   -2.1001 N.3     1  <1>        -0.2035
      2 S1          5.3254   -0.3271   -2.6132 S.O2    1  <1>         0.0559
      3 O1          5.0077    0.1728   -3.9906 O.2     1  <1>        -0.1533
      4 O2          5.4399   -1.8388   -2.7355 O.2     1  <1>        -0.1533
      5 C1          4.0608    0.0881   -1.4708 C.ar    1  <1>         0.1050
      6 C2          3.3819    1.2630   -1.4861 C.ar    1  <1>        -0.0351
      7 C3          2.3738    1.5119   -0.5412 C.ar    1  <1>        -0.0564
      8 C4          2.0238    0.6071    0.4270 C.ar    1  <1>        -0.0428
      9 C5          0.9965    0.7855    1.4679 C.3     1  <1>         0.0014
     10 C6         -0.4082    0.7028    1.0301 C.ar    1  <1>         0.0059
     11 C7         -1.1066    1.7100    0.3553 C.ar    1  <1>         0.0969
     12 C8         -0.7220    3.0315   -0.0708 C.ar    1  <1>         0.0024
     13 C9         -0.1353    3.9504    0.7590 C.ar    1  <1>        -0.0525
     14 C10         0.2348    5.2167    0.2863 C.ar    1  <1>        -0.0611
     15 C11         0.0086    5.5495   -1.0292 C.ar    1  <1>        -0.0617
     16 C12        -0.5774    4.6423   -1.8709 C.ar    1  <1>        -0.0611
     17 C13        -0.9324    3.4008   -1.3791 C.ar    1  <1>        -0.0525
     18 N2         -2.3695    1.2375    0.1264 N.ar    1  <1>        -0.1641
     19 N3         -2.5261    0.0579    0.5858 N.ar    1  <1>        -0.2117
     20 C14        -3.7100   -0.7933    0.5407 C.ar    1  <1>         0.1946
     21 N4         -4.2805   -1.5528   -0.1156 N.ar    1  <1>        -0.2145
     22 C15        -5.3750   -2.2182    0.0727 C.ar    1  <1>         0.1568
     23 C16        -6.0139   -3.1608   -0.8298 C.2     1  <1>         0.3559
     24 O3         -7.0827   -3.7483   -0.5323 O.2     1  <1>        -0.2434
     25 O4         -5.4662   -3.4511   -2.0620 O.3     1  <1>        -0.4761
     26 C17        -5.9588   -1.9076    1.3901 C.ar    1  <1>         0.0116
     27 S2         -4.8580   -0.7688    2.0591 S.2     1  <1>        -0.0554
     28 C18        -1.3208   -0.3200    1.1645 C.ar    1  <1>         0.0515
     29 C19        -1.1884   -1.6288    1.7989 C.3     1  <1>        -0.0071
     30 C20        -0.5433   -2.7237    1.0295 C.3     1  <1>        -0.0356
     31 C21        -0.5458   -4.0608    1.7946 C.3     1  <1>        -0.0496
     32 C22         0.7235   -3.3525    1.4880 C.3     1  <1>        -0.0496
     33 C23         2.7593   -0.5836    0.3938 C.ar    1  <1>        -0.0564
     34 C24         3.7358   -0.8330   -0.5164 C.ar    1  <1>        -0.0351
     35 H1          6.6944    1.1430   -1.5596 H       1  <1>         0.1442
     36 H2          7.3115   -0.4240   -1.4661 H       1  <1>         0.1442
     37 H3          3.6252    2.0047   -2.2327 H       1  <1>         0.0637
     38 H4          1.8922    2.4654   -0.6033 H       1  <1>         0.0621
     39 H5          1.1825    0.0496    2.3243 H       1  <1>         0.0363
     40 H6          1.1771    1.7657    1.9869 H       1  <1>         0.0363
     41 H7          0.0635    3.7778    1.7991 H       1  <1>         0.0624
     42 H8          0.6970    5.9535    0.9203 H       1  <1>         0.0618
     43 H9          0.2884    6.5121   -1.3937 H       1  <1>         0.0618
     44 H10        -0.7618    4.8905   -2.9097 H       1  <1>         0.0618
     45 H11        -1.3934    2.7011   -2.0650 H       1  <1>         0.0624
     46 H12        -5.8216   -4.2335   -2.6202 H       1  <1>         0.2955
     47 H13        -6.9172   -2.3799    1.7576 H       1  <1>         0.0718
     48 H14        -2.2004   -1.9827    2.1493 H       1  <1>         0.0331
     49 H15        -0.6080   -1.5138    2.7573 H       1  <1>         0.0331
     50 H16        -0.7931   -2.8379   -0.0465 H       1  <1>         0.0304
     51 H17        -0.8365   -4.0708    2.8524 H       1  <1>         0.0268
     52 H18        -0.8427   -4.9745    1.2155 H       1  <1>         0.0268
     53 H19         1.2788   -2.8585    2.3203 H       1  <1>         0.0268
     54 H20         1.3665   -3.8054    0.7175 H       1  <1>         0.0268
     55 H21         2.5343   -1.3028    1.1512 H       1  <1>         0.0621
     56 H22         4.2620   -1.7797   -0.4810 H       1  <1>         0.0637
@<TRIPOS>BOND
     1     1     2    1
     2     2     3    2
     3     2     4    2
     4     2     5    1
     5     5     6   ar
     6     6     7   ar
     7     7     8   ar
     8     8     9    1
     9     9    10    1
    10    10    11   ar
    11    11    12    1
    12    12    13   ar
    13    13    14   ar
    14    14    15   ar
    15    15    16   ar
    16    16    17   ar
    17    11    18   ar
    18    18    19   ar
    19    19    20    1
    20    20    21   ar
    21    21    22   ar
    22    22    23    1
    23    23    24    2
    24    23    25    1
    25    22    26   ar
    26    26    27   ar
    27    19    28   ar
    28    28    29    1
    29    29    30    1
    30    30    31    1
    31    31    32    1
    32     8    33   ar
    33    33    34   ar
    34    34     5   ar
    35    28    10   ar
    36    32    30    1
    37    17    12   ar
    38    27    20   ar
    39     1    35    1
    40     1    36    1
    41     6    37    1
    42     7    38    1
    43     9    39    1
    44     9    40    1
    45    13    41    1
    46    14    42    1
    47    15    43    1
    48    16    44    1
    49    17    45    1
    50    25    46    1
    51    26    47    1
    52    29    48    1
    53    29    49    1
    54    30    50    1
    55    31    51    1
    56    31    52    1
    57    32    53    1
    58    32    54    1
    59    33    55    1
    60    34    56    1
