@<TRIPOS>MOLECULE
*****
 47 50 0 0 0
SMALL
GASTEIGER

@<TRIPOS>ATOM
      1 C          10.5884   -0.1962   -0.7489 C.1     1  UNL1       -0.1158
      2 C           9.6157   -0.0868   -0.0199 C.1     1  UNL1       -0.0647
      3 C           8.6226    0.0236    0.7294 C.3     1  UNL1        0.1513
      4 O           7.4184   -0.5505    0.3891 O.3     1  UNL1       -0.4624
      5 C           6.1456   -0.7688    0.5182 C.ar    1  UNL1        0.2344
      6 C           5.4052   -1.5523   -0.3824 C.ar    1  UNL1        0.0899
      7 N           4.0349   -1.6143   -0.2658 N.ar    1  UNL1       -0.2435
      8 C           3.5008   -0.8974    0.7124 C.ar    1  UNL1        0.1439
      9 C           2.1281   -0.4232    0.4856 C.2     1  UNL1        0.2681
     10 O           2.0649    0.8871    0.5669 O.2     1  UNL1       -0.2681
     11 N           0.8598   -1.0139    0.2027 N.am    1  UNL1       -0.2801
     12 C          -0.2333   -0.0522   -0.0606 C.ar    1  UNL1        0.0369
     13 C           0.0793    1.1477   -0.6188 C.ar    1  UNL1       -0.0023
     14 C          -0.9628    1.9568   -1.1454 C.ar    1  UNL1        0.1605
     15 F          -0.6806    3.1814   -1.7072 F       1  UNL1       -0.2024
     16 C          -2.2545    1.5238   -1.0652 C.ar    1  UNL1        0.1641
     17 F          -3.1650    2.2447   -1.6921 F       1  UNL1       -0.2021
     18 C          -2.5907    0.3001   -0.4721 C.ar    1  UNL1        0.0227
     19 C          -4.0077    0.0687   -0.2853 C.3     1  UNL1        0.1285
     20 C          -4.6212   -0.3633   -1.7182 C.3     1  UNL1        0.1199
     21 F          -4.6050    0.5618   -2.6266 F       1  UNL1       -0.2462
     22 N          -4.3398   -1.1353    0.4119 N.2     1  UNL1       -0.2225
     23 C          -5.6470   -1.3489    0.6831 C.2     1  UNL1        0.2763
     24 N          -5.9835   -2.5540    1.3529 N.pl3   1  UNL1       -0.3134
     25 O          -6.4833   -0.3573    0.3038 O.2     1  UNL1       -0.4622
     26 C          -6.1318    1.0091    0.5690 C.3     1  UNL1        0.1090
     27 C          -5.8693    1.9154   -0.5930 C.3     1  UNL1       -0.0065
     28 C          -4.7207    1.2796    0.1429 C.3     1  UNL1        0.0315
     29 C          -1.5180   -0.4353    0.0027 C.ar    1  UNL1       -0.0320
     30 C           4.1670   -0.1226    1.6892 C.ar    1  UNL1        0.0619
     31 N           5.4978   -0.0968    1.5462 N.ar    1  UNL1       -0.2177
     32 H          11.7375   -0.3214   -1.5792 H       1  UNL1        0.1229
     33 H           8.7142    0.2848    1.7810 H       1  UNL1        0.0837
     34 H           8.2056    1.3042    0.4350 H       1  UNL1        0.0837
     35 H           5.9348   -2.1073   -1.1443 H       1  UNL1        0.0884
     36 H           0.7847   -2.0155    0.2891 H       1  UNL1        0.1552
     37 H           1.0426    1.6081   -0.6837 H       1  UNL1        0.0666
     38 H          -5.5275   -0.9409   -1.5913 H       1  UNL1        0.0643
     39 H          -3.8266   -1.1633   -2.0017 H       1  UNL1        0.0643
     40 H          -6.0174   -2.8331    2.3058 H       1  UNL1        0.1466
     41 H          -6.2776   -3.3309    0.5920 H       1  UNL1        0.1466
     42 H          -6.4958    1.3977    1.4977 H       1  UNL1        0.0737
     43 H          -6.2574    1.6393   -1.5614 H       1  UNL1        0.0306
     44 H          -6.0563    2.9852   -0.3499 H       1  UNL1        0.0306
     45 H          -4.0946    1.9691    0.7722 H       1  UNL1        0.0365
     46 H          -1.7759   -1.3666    0.4800 H       1  UNL1        0.0640
     47 H           3.5953    0.3598    2.4610 H       1  UNL1        0.0854
@<TRIPOS>BOND
     1     1     2    3
     2     2     3    1
     3     3     4    1
     4     4     5    1
     5     5     6   ar
     6     6     7   ar
     7     7     8   ar
     8     8     9    1
     9     9    10    2
    10     9    11   am
    11    11    12    1
    12    12    13   ar
    13    13    14   ar
    14    14    15    1
    15    14    16   ar
    16    16    17    1
    17    16    18   ar
    18    18    19    1
    19    19    20    1
    20    20    21    1
    21    19    22    1
    22    22    23    2
    23    23    24    1
    24    23    25    1
    25    25    26    1
    26    26    27    1
    27    27    28    1
    28    18    29   ar
    29     8    30   ar
    30    30    31   ar
    31    31     5   ar
    32    29    12   ar
    33    28    19    1
    34    28    26    1
    35     1    32    1
    36     3    33    1
    37     3    34    1
    38     6    35    1
    39    11    36    1
    40    13    37    1
    41    20    38    1
    42    20    39    1
    43    24    40    1
    44    24    41    1
    45    26    42    1
    46    27    43    1
    47    27    44    1
    48    28    45    1
    49    29    46    1
    50    30    47    1
