@<TRIPOS>MOLECULE
*****
 48 51 0 0 0
SMALL
GASTEIGER

@<TRIPOS>ATOM
      1 C           0.8718   -3.7163    0.2174 C.3     1  UNL1       -0.0380
      2 C           1.8776   -2.6242    0.2729 C.ar    1  UNL1       -0.0292
      3 C           3.1672   -2.8622   -0.1645 C.ar    1  UNL1       -0.0564
      4 C           4.0785   -1.8272   -0.1001 C.ar    1  UNL1       -0.0493
      5 C           3.7249   -0.5966    0.3815 C.ar    1  UNL1        0.0388
      6 C           4.6850    0.4858    0.4469 C.2     1  UNL1        0.2494
      7 O           4.3115    1.6076    0.9002 O.2     1  UNL1       -0.2698
      8 N           6.0446    0.3983    0.0366 N.am    1  UNL1       -0.2637
      9 C           6.9338    1.5019    0.1285 C.ar    1  UNL1        0.1679
     10 C           7.1516    2.4480   -0.8431 C.ar    1  UNL1        0.0192
     11 C           8.0839    3.3255   -0.3354 C.ar    1  UNL1        0.1261
     12 O           8.3792    2.8967    0.8648 O.2     1  UNL1       -0.3611
     13 N           7.7044    1.8112    1.1600 N.ar    1  UNL1       -0.0631
     14 C           2.4388   -0.3744    0.8130 C.ar    1  UNL1       -0.0281
     15 C           1.5142   -1.3871    0.7593 C.ar    1  UNL1        0.0373
     16 N           0.1941   -1.1212    1.2139 N.am    1  UNL1       -0.2811
     17 C          -0.7386   -0.6399    0.2658 C.2     1  UNL1        0.2531
     18 O          -0.4434   -0.4445   -0.9386 O.2     1  UNL1       -0.2697
     19 C          -2.0982   -0.3589    0.7031 C.ar    1  UNL1        0.0961
     20 C          -2.6216   -0.5052    1.9720 C.ar    1  UNL1        0.0638
     21 N          -3.9122   -0.1315    1.9244 N.ar    1  UNL1       -0.1722
     22 N          -4.2503    0.2463    0.7013 N.ar    1  UNL1       -0.2154
     23 C          -5.5214    0.7101    0.2403 C.ar    1  UNL1        0.1025
     24 C          -6.6844    0.0528    0.5939 C.ar    1  UNL1       -0.0334
     25 C          -7.9299    0.4662    0.1717 C.ar    1  UNL1       -0.0596
     26 C          -8.0554    1.5769   -0.6372 C.ar    1  UNL1       -0.0589
     27 C          -6.8955    2.2341   -0.9910 C.ar    1  UNL1       -0.0243
     28 C          -5.6485    1.8209   -0.5688 C.ar    1  UNL1        0.1487
     29 F          -4.5643    2.5156   -0.9572 F       1  UNL1       -0.2033
     30 C          -3.1432    0.1121   -0.0642 C.ar    1  UNL1        0.1321
     31 N          -3.0600    0.4081   -1.4456 N.pl3   1  UNL1       -0.3424
     32 H           0.0748   -3.5222    0.9520 H       1  UNL1        0.0278
     33 H           0.4536   -3.7677   -0.8147 H       1  UNL1        0.0278
     34 H           1.3594   -4.7069    0.3854 H       1  UNL1        0.0278
     35 H           3.4208   -3.8501   -0.5426 H       1  UNL1        0.0621
     36 H           5.0789   -2.0165   -0.4408 H       1  UNL1        0.0625
     37 H           6.3880   -0.5161   -0.3439 H       1  UNL1        0.1566
     38 H           6.6980    2.5071   -1.8049 H       1  UNL1        0.0684
     39 H           8.4776    4.1963   -0.8570 H       1  UNL1        0.1058
     40 H           2.1431    0.6003    1.1988 H       1  UNL1        0.0644
     41 H          -0.0862   -1.2764    2.2260 H       1  UNL1        0.1551
     42 H          -2.0354   -0.8648    2.8149 H       1  UNL1        0.0856
     43 H          -6.5859   -0.8150    1.2260 H       1  UNL1        0.0640
     44 H          -8.8411   -0.0504    0.4499 H       1  UNL1        0.0618
     45 H          -9.0432    1.8932   -0.9638 H       1  UNL1        0.0618
     46 H          -7.0346    3.1145   -1.6363 H       1  UNL1        0.0647
     47 H          -3.7522    0.0299   -2.1330 H       1  UNL1        0.1437
     48 H          -2.3097    1.0161   -1.8579 H       1  UNL1        0.1437
@<TRIPOS>BOND
     1     1     2    1
     2     2     3   ar
     3     3     4   ar
     4     4     5   ar
     5     5     6    1
     6     6     7    2
     7     6     8   am
     8     8     9    1
     9     9    10   ar
    10    10    11   ar
    11    11    12   ar
    12    12    13   ar
    13     5    14   ar
    14    14    15   ar
    15    15    16    1
    16    16    17   am
    17    17    18    2
    18    17    19    1
    19    19    20   ar
    20    20    21   ar
    21    21    22   ar
    22    22    23    1
    23    23    24   ar
    24    24    25   ar
    25    25    26   ar
    26    26    27   ar
    27    27    28   ar
    28    28    29    1
    29    22    30   ar
    30    30    31    1
    31    15     2   ar
    32    30    19   ar
    33    13     9   ar
    34    28    23   ar
    35     1    32    1
    36     1    33    1
    37     1    34    1
    38     3    35    1
    39     4    36    1
    40     8    37    1
    41    10    38    1
    42    11    39    1
    43    14    40    1
    44    16    41    1
    45    20    42    1
    46    24    43    1
    47    25    44    1
    48    26    45    1
    49    27    46    1
    50    31    47    1
    51    31    48    1
