
     RDKit          3D

 54 57  0  0  0  0  0  0  0  0999 V2000
    6.9288    0.3307   -0.8112 C   0  0  0  0  0  0  0  0  0  0  0  0
    5.5962    0.7582   -0.2266 C   0  0  0  0  0  0  0  0  0  0  0  0
    5.3794    2.2376   -0.4745 C   0  0  0  0  0  0  0  0  0  0  0  0
    4.5372   -0.0260   -0.6966 O   0  0  0  0  0  0  0  0  0  0  0  0
    3.8008   -0.8418    0.1781 C   0  0  0  0  0  0  0  0  0  0  0  0
    4.1457   -0.8208    1.3677 O   0  0  0  0  0  0  0  0  0  0  0  0
    2.7311   -1.6403   -0.2640 N   0  0  0  0  0  0  0  0  0  0  0  0
    1.9487   -2.4935    0.6039 C   0  0  0  0  0  0  0  0  0  0  0  0
    1.2538   -1.7587    1.6843 C   0  0  0  0  0  0  0  0  0  0  0  0
    1.6953   -1.5040    2.9644 C   0  0  0  0  0  0  0  0  0  0  0  0
    0.7334   -0.8064    3.5808 N   0  0  0  0  0  0  0  0  0  0  0  0
   -0.2710   -0.6402    2.6954 C   0  0  0  0  0  0  0  0  0  0  0  0
   -1.5088    0.0054    2.8041 C   0  0  0  0  0  0  0  0  0  0  0  0
   -2.3389    0.0072    1.7046 C   0  0  0  0  0  0  0  0  0  0  0  0
   -2.0075   -0.5960    0.5050 C   0  0  0  0  0  0  0  0  0  0  0  0
   -2.9102   -0.5774   -0.6394 C   0  0  0  0  0  0  0  0  0  0  0  0
   -3.3641    0.5400   -1.3039 C   0  0  0  0  0  0  0  0  0  0  0  0
   -3.0555    1.9602   -1.0303 C   0  0  0  0  0  0  0  0  0  0  0  0
   -1.7610    2.4002   -1.1591 C   0  0  0  0  0  0  0  0  0  0  0  0
   -1.4765    3.7229   -0.9033 C   0  0  0  0  0  0  0  0  0  0  0  0
   -2.5000    4.5935   -0.5194 C   0  0  0  0  0  0  0  0  0  0  0  0
   -2.1991    5.9091   -0.2684 F   0  0  0  0  0  0  0  0  0  0  0  0
   -3.8003    4.1549   -0.3892 C   0  0  0  0  0  0  0  0  0  0  0  0
   -4.0574    2.8273   -0.6508 C   0  0  0  0  0  0  0  0  0  0  0  0
   -4.1638    0.0791   -2.2797 N   0  0  0  0  0  0  0  0  0  0  0  0
   -4.1988   -1.2774   -2.2153 C   0  0  0  0  0  0  0  0  0  0  0  0
   -3.4292   -1.6917   -1.2078 N   0  0  0  0  0  0  0  0  0  0  0  0
   -3.1699   -3.0750   -0.7723 C   0  0  0  0  0  0  0  0  0  0  0  0
   -4.2537   -3.3770    0.2598 C   0  0  0  0  0  0  0  0  0  0  0  0
   -4.1526   -4.6379    0.7682 F   0  0  0  0  0  0  0  0  0  0  0  0
   -5.4621   -3.2806   -0.3991 F   0  0  0  0  0  0  0  0  0  0  0  0
   -0.8042   -1.1964    0.4734 N   0  0  0  0  0  0  0  0  0  0  0  0
    0.0115   -1.2124    1.5157 N   0  0  0  0  0  0  0  0  0  0  0  0
    7.2873   -0.5821   -0.2795 H   0  0  0  0  0  0  0  0  0  0  0  0
    6.8577    0.1305   -1.9110 H   0  0  0  0  0  0  0  0  0  0  0  0
    7.6871    1.1151   -0.5982 H   0  0  0  0  0  0  0  0  0  0  0  0
    5.6942    0.5993    0.8732 H   0  0  0  0  0  0  0  0  0  0  0  0
    4.3705    2.5319   -0.1488 H   0  0  0  0  0  0  0  0  0  0  0  0
    5.5598    2.4511   -1.5574 H   0  0  0  0  0  0  0  0  0  0  0  0
    6.1427    2.7814    0.1178 H   0  0  0  0  0  0  0  0  0  0  0  0
    2.5033   -1.5995   -1.2920 H   0  0  0  0  0  0  0  0  0  0  0  0
    2.6574   -3.2195    1.0979 H   0  0  0  0  0  0  0  0  0  0  0  0
    1.2346   -3.1206    0.0440 H   0  0  0  0  0  0  0  0  0  0  0  0
    2.6345   -1.8039    3.4091 H   0  0  0  0  0  0  0  0  0  0  0  0
   -1.7672    0.4770    3.7436 H   0  0  0  0  0  0  0  0  0  0  0  0
   -3.3026    0.4960    1.7522 H   0  0  0  0  0  0  0  0  0  0  0  0
   -0.9792    1.6856   -1.4642 H   0  0  0  0  0  0  0  0  0  0  0  0
   -0.4498    4.0607   -1.0076 H   0  0  0  0  0  0  0  0  0  0  0  0
   -4.5835    4.8488   -0.0889 H   0  0  0  0  0  0  0  0  0  0  0  0
   -5.0640    2.4506   -0.5583 H   0  0  0  0  0  0  0  0  0  0  0  0
   -4.7510   -1.9632   -2.8602 H   0  0  0  0  0  0  0  0  0  0  0  0
   -2.2095   -3.0577   -0.2126 H   0  0  0  0  0  0  0  0  0  0  0  0
   -3.1945   -3.7775   -1.6054 H   0  0  0  0  0  0  0  0  0  0  0  0
   -4.2049   -2.5769    1.0332 H   0  0  0  0  0  0  0  0  0  0  0  0
  1  2  1  0
  2  3  1  0
  2  4  1  0
  4  5  1  0
  5  6  2  0
  5  7  1  0
  7  8  1  0
  8  9  1  0
  9 10  2  0
 10 11  1  0
 11 12  2  0
 12 13  1  0
 13 14  2  0
 14 15  1  0
 15 16  1  0
 16 17  2  0
 17 18  1  0
 18 19  2  0
 19 20  1  0
 20 21  2  0
 21 22  1  0
 21 23  1  0
 23 24  2  0
 17 25  1  0
 25 26  2  0
 26 27  1  0
 27 28  1  0
 28 29  1  0
 29 30  1  0
 29 31  1  0
 15 32  2  0
 32 33  1  0
 33  9  1  0
 33 12  1  0
 27 16  1  0
 24 18  1  0
  1 34  1  0
  1 35  1  0
  1 36  1  0
  2 37  1  0
  3 38  1  0
  3 39  1  0
  3 40  1  0
  7 41  1  0
  8 42  1  0
  8 43  1  0
 10 44  1  0
 13 45  1  0
 14 46  1  0
 19 47  1  0
 20 48  1  0
 23 49  1  0
 24 50  1  0
 26 51  1  0
 28 52  1  0
 28 53  1  0
 29 54  1  0
M  END
$$$$
