@<TRIPOS>MOLECULE
*****
 54 57 0 0 0
SMALL
GASTEIGER

@<TRIPOS>ATOM
      1 C           6.9288    0.3307   -0.8112 C.3     1  UNL1       -0.0279
      2 C           5.5962    0.7582   -0.2266 C.3     1  UNL1        0.0991
      3 C           5.3794    2.2376   -0.4745 C.3     1  UNL1       -0.0279
      4 O           4.5372   -0.0260   -0.6966 O.3     1  UNL1       -0.4477
      5 C           3.8008   -0.8418    0.1781 C.2     1  UNL1        0.4008
      6 O           4.1457   -0.8208    1.3677 O.2     1  UNL1       -0.2265
      7 N           2.7311   -1.6403   -0.2640 N.am    1  UNL1       -0.2755
      8 C           1.9487   -2.4935    0.6039 C.3     1  UNL1        0.0587
      9 C           1.2538   -1.7587    1.6843 C.ar    1  UNL1        0.0803
     10 C           1.6953   -1.5040    2.9644 C.ar    1  UNL1        0.0529
     11 N           0.7334   -0.8064    3.5808 N.ar    1  UNL1       -0.2343
     12 C          -0.2710   -0.6402    2.6954 C.ar    1  UNL1        0.1544
     13 C          -1.5088    0.0054    2.8041 C.ar    1  UNL1       -0.0153
     14 C          -2.3389    0.0072    1.7046 C.ar    1  UNL1       -0.0290
     15 C          -2.0075   -0.5960    0.5050 C.ar    1  UNL1        0.1103
     16 C          -2.9102   -0.5774   -0.6394 C.ar    1  UNL1        0.0968
     17 C          -3.3641    0.5400   -1.3039 C.ar    1  UNL1        0.0982
     18 C          -3.0555    1.9602   -1.0303 C.ar    1  UNL1        0.0027
     19 C          -1.7610    2.4002   -1.1591 C.ar    1  UNL1       -0.0498
     20 C          -1.4765    3.7229   -0.9033 C.ar    1  UNL1       -0.0258
     21 C          -2.5000    4.5935   -0.5194 C.ar    1  UNL1        0.1234
     22 F          -2.1991    5.9091   -0.2684 F       1  UNL1       -0.2055
     23 C          -3.8003    4.1549   -0.3892 C.ar    1  UNL1       -0.0258
     24 C          -4.0574    2.8273   -0.6508 C.ar    1  UNL1       -0.0498
     25 N          -4.1638    0.0791   -2.2797 N.ar    1  UNL1       -0.2351
     26 C          -4.1988   -1.2774   -2.2153 C.ar    1  UNL1        0.0973
     27 N          -3.4292   -1.6917   -1.2078 N.ar    1  UNL1       -0.3229
     28 C          -3.1699   -3.0750   -0.7723 C.3     1  UNL1        0.0852
     29 C          -4.2537   -3.3770    0.2598 C.3     1  UNL1        0.2569
     30 F          -4.1526   -4.6379    0.7682 F       1  UNL1       -0.2073
     31 F          -5.4621   -3.2806   -0.3991 F       1  UNL1       -0.2073
     32 N          -0.8042   -1.1964    0.4734 N.ar    1  UNL1       -0.1632
     33 N           0.0115   -1.2124    1.5157 N.ar    1  UNL1       -0.2151
     34 H           7.2873   -0.5821   -0.2795 H       1  UNL1        0.0265
     35 H           6.8577    0.1305   -1.9110 H       1  UNL1        0.0265
     36 H           7.6871    1.1151   -0.5982 H       1  UNL1        0.0265
     37 H           5.6942    0.5993    0.8732 H       1  UNL1        0.0729
     38 H           4.3705    2.5319   -0.1488 H       1  UNL1        0.0265
     39 H           5.5598    2.4511   -1.5574 H       1  UNL1        0.0265
     40 H           6.1427    2.7814    0.1178 H       1  UNL1        0.0265
     41 H           2.5033   -1.5995   -1.2920 H       1  UNL1        0.1524
     42 H           2.6574   -3.2195    1.0979 H       1  UNL1        0.0528
     43 H           1.2346   -3.1206    0.0440 H       1  UNL1        0.0528
     44 H           2.6345   -1.8039    3.4091 H       1  UNL1        0.0849
     45 H          -1.7672    0.4770    3.7436 H       1  UNL1        0.0655
     46 H          -3.3026    0.4960    1.7522 H       1  UNL1        0.0641
     47 H          -0.9792    1.6856   -1.4642 H       1  UNL1        0.0625
     48 H          -0.4498    4.0607   -1.0076 H       1  UNL1        0.0646
     49 H          -4.5835    4.8488   -0.0889 H       1  UNL1        0.0646
     50 H          -5.0640    2.4506   -0.5583 H       1  UNL1        0.0625
     51 H          -4.7510   -1.9632   -2.8602 H       1  UNL1        0.1029
     52 H          -2.2095   -3.0577   -0.2126 H       1  UNL1        0.0548
     53 H          -3.1945   -3.7775   -1.6054 H       1  UNL1        0.0548
     54 H          -4.2049   -2.5769    1.0332 H       1  UNL1        0.1037
@<TRIPOS>BOND
     1     1     2    1
     2     2     3    1
     3     2     4    1
     4     4     5    1
     5     5     6    2
     6     5     7   am
     7     7     8    1
     8     8     9    1
     9     9    10   ar
    10    10    11   ar
    11    11    12   ar
    12    12    13   ar
    13    13    14   ar
    14    14    15   ar
    15    15    16    1
    16    16    17   ar
    17    17    18    1
    18    18    19   ar
    19    19    20   ar
    20    20    21   ar
    21    21    22    1
    22    21    23   ar
    23    23    24   ar
    24    17    25   ar
    25    25    26   ar
    26    26    27   ar
    27    27    28    1
    28    28    29    1
    29    29    30    1
    30    29    31    1
    31    15    32   ar
    32    32    33   ar
    33    33     9   ar
    34    33    12   ar
    35    27    16   ar
    36    24    18   ar
    37     1    34    1
    38     1    35    1
    39     1    36    1
    40     2    37    1
    41     3    38    1
    42     3    39    1
    43     3    40    1
    44     7    41    1
    45     8    42    1
    46     8    43    1
    47    10    44    1
    48    13    45    1
    49    14    46    1
    50    19    47    1
    51    20    48    1
    52    23    49    1
    53    24    50    1
    54    26    51    1
    55    28    52    1
    56    28    53    1
    57    29    54    1
