@<TRIPOS>MOLECULE
*****
 33 34 0 0 0
SMALL
GASTEIGER

@<TRIPOS>ATOM
      1 C          -4.6923    2.1105   -0.5343 C.3     1  UNL1        0.0788
      2 O          -3.3243    1.7997   -0.5730 O.3     1  UNL1       -0.4951
      3 C          -2.8296    0.6108   -0.1120 C.ar    1  UNL1        0.1208
      4 C          -1.4869    0.3184   -0.1558 C.ar    1  UNL1       -0.0105
      5 C          -1.0436   -0.8758    0.3141 C.ar    1  UNL1        0.0063
      6 C          -1.8916   -1.8244    0.8419 C.ar    1  UNL1        0.0470
      7 N          -1.0667   -2.8232    1.1767 N.ar    1  UNL1       -0.3604
      8 C           0.2224   -2.5730    0.9004 C.ar    1  UNL1        0.0060
      9 C           0.2709   -1.2918    0.3286 C.ar    1  UNL1       -0.0208
     10 C           1.5833   -0.7976   -0.0603 C.3     1  UNL1       -0.0101
     11 C           1.6821    0.5251   -0.7060 C.3     1  UNL1        0.0156
     12 N           3.0916    0.8498   -1.0236 N.am    1  UNL1       -0.3152
     13 C           4.1001    0.9407   -0.0107 C.2     1  UNL1        0.2099
     14 C           5.5109    1.2672   -0.3473 C.3     1  UNL1        0.0121
     15 O           3.8834    0.7578    1.2086 O.2     1  UNL1       -0.2761
     16 C          -3.2296   -1.5497    0.8928 C.ar    1  UNL1       -0.0343
     17 C          -3.6925   -0.3324    0.4152 C.ar    1  UNL1       -0.0180
     18 H          -5.1520    1.7908    0.4027 H       1  UNL1        0.0660
     19 H          -5.1626    1.6471   -1.4398 H       1  UNL1        0.0660
     20 H          -4.7923    3.2295   -0.6354 H       1  UNL1        0.0660
     21 H          -0.8603    1.0654   -0.5653 H       1  UNL1        0.0661
     22 H          -1.4442   -3.7109    1.6171 H       1  UNL1        0.1653
     23 H           1.0058   -3.3146    1.1270 H       1  UNL1        0.0810
     24 H           1.9936   -1.5383   -0.8136 H       1  UNL1        0.0329
     25 H           2.2724   -0.8783    0.8078 H       1  UNL1        0.0329
     26 H           1.4173    1.3099    0.0435 H       1  UNL1        0.0465
     27 H           1.1780    0.6176   -1.6714 H       1  UNL1        0.0465
     28 H           3.4575    1.0367   -2.0052 H       1  UNL1        0.1487
     29 H           5.7147    1.1621   -1.4315 H       1  UNL1        0.0322
     30 H           5.7213    2.3368   -0.0925 H       1  UNL1        0.0322
     31 H           6.1908    0.6570    0.2620 H       1  UNL1        0.0322
     32 H          -3.8696   -2.3153    1.3130 H       1  UNL1        0.0639
     33 H          -4.7581   -0.2073    0.4971 H       1  UNL1        0.0655
@<TRIPOS>BOND
     1     1     2    1
     2     2     3    1
     3     3     4   ar
     4     4     5   ar
     5     5     6   ar
     6     6     7   ar
     7     7     8   ar
     8     8     9   ar
     9     9    10    1
    10    10    11    1
    11    11    12    1
    12    12    13   am
    13    13    14    1
    14    13    15    2
    15     6    16   ar
    16    16    17   ar
    17    17     3   ar
    18     9     5   ar
    19     1    18    1
    20     1    19    1
    21     1    20    1
    22     4    21    1
    23     7    22    1
    24     8    23    1
    25    10    24    1
    26    10    25    1
    27    11    26    1
    28    11    27    1
    29    12    28    1
    30    14    29    1
    31    14    30    1
    32    14    31    1
    33    16    32    1
    34    17    33    1
