
     RDKit          3D

 10  9  0  0  0  0  0  0  0  0999 V2000
   -1.4562   -0.1754   -0.2444 C   0  0  0  0  0  0  0  0  0  0  0  0
   -0.2466    0.2671    0.4974 C   0  0  0  0  0  0  0  0  0  0  0  0
   -0.5160    0.7498    1.6044 O   0  0  0  0  0  0  0  0  0  0  0  0
    1.0590    0.0876   -0.1399 C   0  0  0  0  0  0  0  0  0  0  0  0
    2.2306    0.4760    0.4904 O   0  0  0  0  0  0  0  0  0  0  0  0
    1.2340   -0.4149   -1.2724 O   0  0  0  0  0  0  0  0  0  0  0  0
   -1.2028   -0.8898   -1.0429 H   0  0  0  0  0  0  0  0  0  0  0  0
   -2.1830   -0.6739    0.4315 H   0  0  0  0  0  0  0  0  0  0  0  0
   -1.9695    0.7174   -0.7066 H   0  0  0  0  0  0  0  0  0  0  0  0
    3.0504   -0.1439    0.3824 H   0  0  0  0  0  0  0  0  0  0  0  0
  1  2  1  0
  2  3  2  0
  2  4  1  0
  4  5  1  0
  4  6  2  0
  1  7  1  0
  1  8  1  0
  1  9  1  0
  5 10  1  0
M  END
$$$$
