
     RDKit          3D

 82 85  0  0  0  0  0  0  0  0999 V2000
    1.5465    3.4060    2.0082 C   0  0  0  0  0  0  0  0  0  0  0  0
    1.7255    1.9651    1.5891 C   0  0  2  0  0  0  0  0  0  0  0  0
    2.3855    1.8316    0.3152 N   0  0  0  0  0  0  0  0  0  0  0  0
    3.6721    1.2512    0.2265 C   0  0  0  0  0  0  0  0  0  0  0  0
    4.2063    0.8668    1.3110 O   0  0  0  0  0  0  0  0  0  0  0  0
    4.3579    1.1023   -1.0849 C   0  0  1  0  0  0  0  0  0  0  0  0
    4.5255    2.3782   -1.8358 C   0  0  0  0  0  0  0  0  0  0  0  0
    3.3585    3.0692   -2.0720 O   0  0  0  0  0  0  0  0  0  0  0  0
    5.6706    0.4968   -0.9176 N   0  0  0  0  0  0  0  0  0  0  0  0
    5.9807   -0.8043   -1.3764 C   0  0  0  0  0  0  0  0  0  0  0  0
    5.0865   -1.4716   -1.9521 O   0  0  0  0  0  0  0  0  0  0  0  0
    7.2936   -1.3681   -1.1918 C   0  0  0  0  0  0  0  0  0  0  0  0
    8.4458   -0.9529   -0.6474 C   0  0  0  0  0  0  0  0  0  0  0  0
    9.5397   -1.7099   -0.6189 C   0  0  0  0  0  0  0  0  0  0  0  0
    9.5391   -2.9717   -1.1544 C   0  0  0  0  0  0  0  0  0  0  0  0
    7.7702   -3.0607   -1.7584 S   0  0  0  0  0  0  0  0  0  0  0  0
    0.4093    1.3022    1.6267 C   0  0  0  0  0  0  0  0  0  0  0  0
   -0.2328    1.3658    2.7046 O   0  0  0  0  0  0  0  0  0  0  0  0
   -0.1463    0.6111    0.5129 N   0  0  0  0  0  0  0  0  0  0  0  0
   -1.4297   -0.0388    0.4970 C   0  0  0  0  0  0  0  0  0  0  0  0
   -2.5624    0.7959    1.0741 C   0  0  0  0  0  0  0  0  0  0  0  0
   -2.7986    2.0496    0.3328 C   0  0  0  0  0  0  0  0  0  0  0  0
   -2.2600    3.2702    0.6298 C   0  0  0  0  0  0  0  0  0  0  0  0
   -2.5070    4.4050   -0.1154 C   0  0  0  0  0  0  0  0  0  0  0  0
   -3.3202    4.3472   -1.2046 C   0  0  0  0  0  0  0  0  0  0  0  0
   -3.6127    5.4938   -2.0198 N   0  0  0  0  0  0  0  0  0  0  0  0
   -2.5715    6.1977   -2.3819 C   0  0  0  0  0  0  0  0  0  0  0  0
   -1.2405    5.8684   -2.0060 N   0  0  0  0  0  0  0  0  0  0  0  0
   -2.7434    7.3619   -3.1972 N   0  0  0  0  0  0  0  0  0  0  0  0
   -3.8897    3.1414   -1.5477 C   0  0  0  0  0  0  0  0  0  0  0  0
   -3.6341    2.0174   -0.7949 C   0  0  0  0  0  0  0  0  0  0  0  0
   -1.4308   -1.7162    1.1277 P   0  0  0  0  0  5  0  0  0  0  0  0
   -0.1605   -2.0360    1.8965 O   0  0  0  0  0  0  0  0  0  0  0  0
   -2.7265   -1.8756    2.2139 O   0  0  0  0  0  0  0  0  0  0  0  0
   -3.7596   -2.7703    2.1180 C   0  0  0  0  0  0  0  0  0  0  0  0
   -4.7082   -2.7152    1.1217 C   0  0  0  0  0  0  0  0  0  0  0  0
   -5.7159   -3.6536    1.0958 C   0  0  0  0  0  0  0  0  0  0  0  0
   -5.7901   -4.6461    2.0501 C   0  0  0  0  0  0  0  0  0  0  0  0
   -4.8522   -4.7152    3.0502 C   0  0  0  0  0  0  0  0  0  0  0  0
   -3.8547   -3.7719    3.0612 C   0  0  0  0  0  0  0  0  0  0  0  0
   -1.4989   -2.8287   -0.1667 O   0  0  0  0  0  0  0  0  0  0  0  0
   -1.9387   -4.1291   -0.0665 C   0  0  0  0  0  0  0  0  0  0  0  0
   -1.5163   -5.0025    0.9133 C   0  0  0  0  0  0  0  0  0  0  0  0
   -1.9901   -6.2952    0.9655 C   0  0  0  0  0  0  0  0  0  0  0  0
   -2.9004   -6.7850    0.0548 C   0  0  0  0  0  0  0  0  0  0  0  0
   -3.3273   -5.9156   -0.9292 C   0  0  0  0  0  0  0  0  0  0  0  0
   -2.8599   -4.6223   -0.9894 C   0  0  0  0  0  0  0  0  0  0  0  0
    0.7174    3.9199    1.5285 H   0  0  0  0  0  0  0  0  0  0  0  0
    2.5271    3.9324    1.8785 H   0  0  0  0  0  0  0  0  0  0  0  0
    1.3589    3.4002    3.1030 H   0  0  0  0  0  0  0  0  0  0  0  0
    2.3610    1.5048    2.3701 H   0  0  0  0  0  0  0  0  0  0  0  0
    1.8586    2.1866   -0.5374 H   0  0  0  0  0  0  0  0  0  0  0  0
    3.7356    0.4001   -1.7162 H   0  0  0  0  0  0  0  0  0  0  0  0
    5.2780    3.0200   -1.2858 H   0  0  0  0  0  0  0  0  0  0  0  0
    5.0435    2.1401   -2.7981 H   0  0  0  0  0  0  0  0  0  0  0  0
    3.1851    3.0650   -3.0449 H   0  0  0  0  0  0  0  0  0  0  0  0
    6.4506    1.0147   -0.4406 H   0  0  0  0  0  0  0  0  0  0  0  0
    8.4779    0.0888   -0.1955 H   0  0  0  0  0  0  0  0  0  0  0  0
   10.5370   -1.3826   -0.1626 H   0  0  0  0  0  0  0  0  0  0  0  0
   10.2109   -3.7442   -1.2666 H   0  0  0  0  0  0  0  0  0  0  0  0
    0.4920    0.6126   -0.3430 H   0  0  0  0  0  0  0  0  0  0  0  0
   -1.7190   -0.0600   -0.6209 H   0  0  0  0  0  0  0  0  0  0  0  0
   -3.4633    0.1134    1.0162 H   0  0  0  0  0  0  0  0  0  0  0  0
   -2.4591    1.0331    2.1317 H   0  0  0  0  0  0  0  0  0  0  0  0
   -1.6062    3.3287    1.5190 H   0  0  0  0  0  0  0  0  0  0  0  0
   -2.0469    5.3230    0.1816 H   0  0  0  0  0  0  0  0  0  0  0  0
   -0.7010    6.5537   -1.4341 H   0  0  0  0  0  0  0  0  0  0  0  0
   -0.7754    4.9789   -2.2698 H   0  0  0  0  0  0  0  0  0  0  0  0
   -2.1445    8.2044   -3.0891 H   0  0  0  0  0  0  0  0  0  0  0  0
   -3.5011    7.3335   -3.9126 H   0  0  0  0  0  0  0  0  0  0  0  0
   -4.5418    3.1152   -2.4266 H   0  0  0  0  0  0  0  0  0  0  0  0
   -4.0929    1.0961   -1.0891 H   0  0  0  0  0  0  0  0  0  0  0  0
   -4.6534   -1.9281    0.3606 H   0  0  0  0  0  0  0  0  0  0  0  0
   -6.4897   -3.6536    0.3301 H   0  0  0  0  0  0  0  0  0  0  0  0
   -6.5880   -5.3838    2.0239 H   0  0  0  0  0  0  0  0  0  0  0  0
   -4.8822   -5.4885    3.8241 H   0  0  0  0  0  0  0  0  0  0  0  0
   -3.1212   -3.8573    3.8761 H   0  0  0  0  0  0  0  0  0  0  0  0
   -0.7961   -4.6333    1.6451 H   0  0  0  0  0  0  0  0  0  0  0  0
   -1.6501   -6.9790    1.7433 H   0  0  0  0  0  0  0  0  0  0  0  0
   -3.2809   -7.7974    0.0840 H   0  0  0  0  0  0  0  0  0  0  0  0
   -4.0552   -6.2651   -1.6786 H   0  0  0  0  0  0  0  0  0  0  0  0
   -3.1997   -3.9303   -1.7721 H   0  0  0  0  0  0  0  0  0  0  0  0
  1  2  1  0
  2  3  1  0
  3  4  1  0
  4  5  2  0
  4  6  1  0
  6  7  1  0
  7  8  1  0
  6  9  1  0
  9 10  1  0
 10 11  2  0
 10 12  1  0
 12 13  2  0
 13 14  1  0
 14 15  2  0
 15 16  1  0
  2 17  1  0
 17 18  2  0
 17 19  1  0
 19 20  1  0
 20 21  1  0
 21 22  1  0
 22 23  2  0
 23 24  1  0
 24 25  2  0
 25 26  1  0
 26 27  2  3
 27 28  1  0
 27 29  1  0
 25 30  1  0
 30 31  2  0
 20 32  1  0
 32 33  2  0
 32 34  1  0
 34 35  1  0
 35 36  2  0
 36 37  1  0
 37 38  2  0
 38 39  1  0
 39 40  2  0
 32 41  1  0
 41 42  1  0
 42 43  2  0
 43 44  1  0
 44 45  2  0
 45 46  1  0
 46 47  2  0
 16 12  1  0
 31 22  1  0
 40 35  1  0
 47 42  1  0
  1 48  1  0
  1 49  1  0
  1 50  1  0
  2 51  1  1
  3 52  1  0
  6 53  1  6
  7 54  1  0
  7 55  1  0
  8 56  1  0
  9 57  1  0
 13 58  1  0
 14 59  1  0
 15 60  1  0
 19 61  1  0
 20 62  1  0
 21 63  1  0
 21 64  1  0
 23 65  1  0
 24 66  1  0
 28 67  1  0
 28 68  1  0
 29 69  1  0
 29 70  1  0
 30 71  1  0
 31 72  1  0
 36 73  1  0
 37 74  1  0
 38 75  1  0
 39 76  1  0
 40 77  1  0
 43 78  1  0
 44 79  1  0
 45 80  1  0
 46 81  1  0
 47 82  1  0
M  END
$$$$
