@<TRIPOS>MOLECULE
*****
 82 85 0 0 0
SMALL
GASTEIGER

@<TRIPOS>ATOM
      1 C           1.5465    3.4060    2.0082 C.3     1  UNL1       -0.0381
      2 C           1.7255    1.9651    1.5891 C.3     1  UNL1        0.0966
      3 N           2.3855    1.8316    0.3152 N.am    1  UNL1       -0.3027
      4 C           3.6721    1.2512    0.2265 C.2     1  UNL1        0.2362
      5 O           4.2063    0.8668    1.3110 O.2     1  UNL1       -0.2737
      6 CA          4.3579    1.1023   -1.0849 C.3     1  UNL1        0.1228
      7 C           4.5255    2.3782   -1.8358 C.3     1  UNL1        0.0711
      8 O           3.3585    3.0692   -2.0720 O.3     1  UNL1       -0.3927
      9 N           5.6706    0.4968   -0.9176 N.am    1  UNL1       -0.2976
     10 C           5.9807   -0.8043   -1.3764 C.2     1  UNL1        0.2513
     11 O           5.0865   -1.4716   -1.9521 O.2     1  UNL1       -0.2696
     12 C           7.2936   -1.3681   -1.1918 C.ar    1  UNL1        0.0738
     13 C           8.4458   -0.9529   -0.6474 C.ar    1  UNL1       -0.0425
     14 C           9.5397   -1.7099   -0.6189 C.ar    1  UNL1       -0.0540
     15 C           9.5391   -2.9717   -1.1544 C.ar    1  UNL1       -0.0236
     16 S           7.7702   -3.0607   -1.7584 S.2     1  UNL1       -0.0921
     17 C           0.4093    1.3022    1.6267 C.2     1  UNL1        0.2338
     18 O          -0.2328    1.3658    2.7046 O.2     1  UNL1       -0.2738
     19 N          -0.1463    0.6111    0.5129 N.am    1  UNL1       -0.2981
     20 C          -1.4297   -0.0388    0.4970 C.3     1  UNL1        0.1520
     21 C          -2.5624    0.7959    1.0741 C.3     1  UNL1        0.0043
     22 C          -2.7986    2.0496    0.3328 C.ar    1  UNL1       -0.0447
     23 C          -2.2600    3.2702    0.6298 C.ar    1  UNL1       -0.0551
     24 C          -2.5070    4.4050   -0.1154 C.ar    1  UNL1       -0.0194
     25 C          -3.3202    4.3472   -1.2046 C.ar    1  UNL1        0.1420
     26 N          -3.6127    5.4938   -2.0198 N.pl3   1  UNL1       -0.0734
     27 C          -2.5715    6.1977   -2.3819 C.cat   1  UNL1        0.3821
     28 N          -1.2405    5.8684   -2.0060 N.pl3   1  UNL1       -0.2889
     29 N          -2.7434    7.3619   -3.1972 N.pl3   1  UNL1       -0.2889
     30 C          -3.8897    3.1414   -1.5477 C.ar    1  UNL1       -0.0194
     31 C          -3.6341    2.0174   -0.7949 C.ar    1  UNL1       -0.0551
     32 P          -1.4308   -1.7162    1.1277 P.3     1  UNL1        0.4539
     33 O          -0.1605   -2.0360    1.8965 O.2     1  UNL1       -0.2304
     34 O          -2.7265   -1.8756    2.2139 O.3     1  UNL1       -0.4144
     35 C          -3.7596   -2.7703    2.1180 C.ar    1  UNL1        0.1309
     36 C          -4.7082   -2.7152    1.1217 C.ar    1  UNL1       -0.0194
     37 C          -5.7159   -3.6536    1.0958 C.ar    1  UNL1       -0.0583
     38 C          -5.7901   -4.6461    2.0501 C.ar    1  UNL1       -0.0615
     39 C          -4.8522   -4.7152    3.0502 C.ar    1  UNL1       -0.0583
     40 C          -3.8547   -3.7719    3.0612 C.ar    1  UNL1       -0.0194
     41 O          -1.4989   -2.8287   -0.1667 O.3     1  UNL1       -0.4144
     42 C          -1.9387   -4.1291   -0.0665 C.ar    1  UNL1        0.1309
     43 C          -1.5163   -5.0025    0.9133 C.ar    1  UNL1       -0.0194
     44 C          -1.9901   -6.2952    0.9655 C.ar    1  UNL1       -0.0583
     45 C          -2.9004   -6.7850    0.0548 C.ar    1  UNL1       -0.0615
     46 C          -3.3273   -5.9156   -0.9292 C.ar    1  UNL1       -0.0583
     47 C          -2.8599   -4.6223   -0.9894 C.ar    1  UNL1       -0.0194
     48 H           0.7174    3.9199    1.5285 H       1  UNL1        0.0252
     49 H           2.5271    3.9324    1.8785 H       1  UNL1        0.0252
     50 H           1.3589    3.4002    3.1030 H       1  UNL1        0.0252
     51 H           2.3610    1.5048    2.3701 H       1  UNL1        0.0592
     52 H           1.8586    2.1866   -0.5374 H       1  UNL1        0.1495
     53 HA          3.7356    0.4001   -1.7162 H       1  UNL1        0.0618
     54 H1          5.2780    3.0200   -1.2858 H       1  UNL1        0.0580
     55 H2          5.0435    2.1401   -2.7981 H       1  UNL1        0.0580
     56 H           3.1851    3.0650   -3.0449 H       1  UNL1        0.2095
     57 H           6.4506    1.0147   -0.4406 H       1  UNL1        0.1499
     58 H           8.4779    0.0888   -0.1955 H       1  UNL1        0.0630
     59 H          10.5370   -1.3826   -0.1626 H       1  UNL1        0.0623
     60 H          10.2109   -3.7442   -1.2666 H       1  UNL1        0.0693
     61 H           0.4920    0.6126   -0.3430 H       1  UNL1        0.1497
     62 H          -1.7190   -0.0600   -0.6209 H       1  UNL1        0.0651
     63 H          -3.4633    0.1134    1.0162 H       1  UNL1        0.0338
     64 H          -2.4591    1.0331    2.1317 H       1  UNL1        0.0338
     65 H          -1.6062    3.3287    1.5190 H       1  UNL1        0.0621
     66 H          -2.0469    5.3230    0.1816 H       1  UNL1        0.0653
     67 H          -0.7010    6.5537   -1.4341 H       1  UNL1        0.2547
     68 H          -0.7754    4.9789   -2.2698 H       1  UNL1        0.2547
     69 H          -2.1445    8.2044   -3.0891 H       1  UNL1        0.2547
     70 H          -3.5011    7.3335   -3.9126 H       1  UNL1        0.2547
     71 H          -4.5418    3.1152   -2.4266 H       1  UNL1        0.0653
     72 H          -4.0929    1.0961   -1.0891 H       1  UNL1        0.0621
     73 H          -4.6534   -1.9281    0.3606 H       1  UNL1        0.0654
     74 H          -6.4897   -3.6536    0.3301 H       1  UNL1        0.0619
     75 H          -6.5880   -5.3838    2.0239 H       1  UNL1        0.0618
     76 H          -4.8822   -5.4885    3.8241 H       1  UNL1        0.0619
     77 H          -3.1212   -3.8573    3.8761 H       1  UNL1        0.0654
     78 H          -0.7961   -4.6333    1.6451 H       1  UNL1        0.0654
     79 H          -1.6501   -6.9790    1.7433 H       1  UNL1        0.0619
     80 H          -3.2809   -7.7974    0.0840 H       1  UNL1        0.0618
     81 H          -4.0552   -6.2651   -1.6786 H       1  UNL1        0.0619
     82 H          -3.1997   -3.9303   -1.7721 H       1  UNL1        0.0654
@<TRIPOS>BOND
     1     1     2    1
     2     2     3    1
     3     3     4   am
     4     4     5    2
     5     4     6    1
     6     6     7    1
     7     7     8    1
     8     6     9    1
     9     9    10   am
    10    10    11    2
    11    10    12    1
    12    12    13   ar
    13    13    14   ar
    14    14    15   ar
    15    15    16   ar
    16     2    17    1
    17    17    18    2
    18    17    19   am
    19    19    20    1
    20    20    21    1
    21    21    22    1
    22    22    23   ar
    23    23    24   ar
    24    24    25   ar
    25    25    26    1
    26    26    27    2
    27    27    28    1
    28    27    29    1
    29    25    30   ar
    30    30    31   ar
    31    20    32    1
    32    32    33    2
    33    32    34    1
    34    34    35    1
    35    35    36   ar
    36    36    37   ar
    37    37    38   ar
    38    38    39   ar
    39    39    40   ar
    40    32    41    1
    41    41    42    1
    42    42    43   ar
    43    43    44   ar
    44    44    45   ar
    45    45    46   ar
    46    46    47   ar
    47    16    12   ar
    48    31    22   ar
    49    40    35   ar
    50    47    42   ar
    51     1    48    1
    52     1    49    1
    53     1    50    1
    54     2    51    1
    55     3    52    1
    56     6    53    1
    57     7    54    1
    58     7    55    1
    59     8    56    1
    60     9    57    1
    61    13    58    1
    62    14    59    1
    63    15    60    1
    64    19    61    1
    65    20    62    1
    66    21    63    1
    67    21    64    1
    68    23    65    1
    69    24    66    1
    70    28    67    1
    71    28    68    1
    72    29    69    1
    73    29    70    1
    74    30    71    1
    75    31    72    1
    76    36    73    1
    77    37    74    1
    78    38    75    1
    79    39    76    1
    80    40    77    1
    81    43    78    1
    82    44    79    1
    83    45    80    1
    84    46    81    1
    85    47    82    1
