
     RDKit          3D

 45 48  0  0  0  0  0  0  0  0999 V2000
    0.9655   -1.6974   -1.7002 C   0  0  0  0  0  0  0  0  0  0  0  0
    0.4731   -1.4490   -0.3153 C   0  0  0  0  0  0  0  0  0  0  0  0
    1.5864   -1.1945    0.6029 N   0  0  0  0  0  0  0  0  0  0  0  0
    2.5934   -0.2279    0.3748 C   0  0  0  0  0  0  0  0  0  0  0  0
    2.7050    0.5664   -0.6806 N   0  0  0  0  0  0  0  0  0  0  0  0
    3.6986    1.4591   -0.8432 C   0  0  0  0  0  0  0  0  0  0  0  0
    4.6618    1.5899    0.0973 N   0  0  0  0  0  0  0  0  0  0  0  0
    4.6284    0.8173    1.2127 C   0  0  0  0  0  0  0  0  0  0  0  0
    5.6215    0.9247    2.2232 N   0  0  0  0  0  0  0  0  0  0  0  0
    3.5961   -0.0840    1.3422 C   0  0  0  0  0  0  0  0  0  0  0  0
    3.5595   -0.8947    2.5107 C   0  0  0  0  0  0  0  0  0  0  0  0
    3.5258   -1.5401    3.4743 N   0  0  0  0  0  0  0  0  0  0  0  0
   -0.4403   -0.2677   -0.3248 C   0  0  0  0  0  0  0  0  0  0  0  0
    0.1151    0.9727   -0.2617 N   0  0  0  0  0  0  0  0  0  0  0  0
   -0.5907    2.1041   -0.2090 C   0  0  0  0  0  0  0  0  0  0  0  0
   -0.0108    3.3532   -0.1452 C   0  0  0  0  0  0  0  0  0  0  0  0
   -0.7824    4.4898   -0.0920 C   0  0  0  0  0  0  0  0  0  0  0  0
   -2.1603    4.4002   -0.1016 C   0  0  0  0  0  0  0  0  0  0  0  0
   -2.8892    5.5464   -0.0477 F   0  0  0  0  0  0  0  0  0  0  0  0
   -2.7438    3.1582   -0.1651 C   0  0  0  0  0  0  0  0  0  0  0  0
   -1.9704    1.9970   -0.2196 C   0  0  0  0  0  0  0  0  0  0  0  0
   -2.5498    0.7588   -0.2835 C   0  0  0  0  0  0  0  0  0  0  0  0
   -1.7915   -0.4375   -0.3404 C   0  0  0  0  0  0  0  0  0  0  0  0
   -2.5598   -1.6593   -0.3452 C   0  0  0  0  0  0  0  0  0  0  0  0
   -2.2707   -2.8159   -0.9711 C   0  0  0  0  0  0  0  0  0  0  0  0
   -3.1434   -3.9033   -0.9424 C   0  0  0  0  0  0  0  0  0  0  0  0
   -4.3375   -3.8286   -0.2706 C   0  0  0  0  0  0  0  0  0  0  0  0
   -4.6181   -2.6384    0.3620 C   0  0  0  0  0  0  0  0  0  0  0  0
   -3.7622   -1.6186    0.3160 N   0  0  0  0  0  0  0  0  0  0  0  0
    0.2593   -1.3129   -2.4890 H   0  0  0  0  0  0  0  0  0  0  0  0
    1.9632   -1.3270   -1.9216 H   0  0  0  0  0  0  0  0  0  0  0  0
    0.9982   -2.8161   -1.8486 H   0  0  0  0  0  0  0  0  0  0  0  0
   -0.0820   -2.3089    0.0670 H   0  0  0  0  0  0  0  0  0  0  0  0
    1.6077   -1.7767    1.4658 H   0  0  0  0  0  0  0  0  0  0  0  0
    3.7483    2.0866   -1.7223 H   0  0  0  0  0  0  0  0  0  0  0  0
    5.8779    0.1292    2.8385 H   0  0  0  0  0  0  0  0  0  0  0  0
    6.1126    1.8316    2.3554 H   0  0  0  0  0  0  0  0  0  0  0  0
    1.0572    3.4249   -0.1376 H   0  0  0  0  0  0  0  0  0  0  0  0
   -0.3091    5.4724   -0.0417 H   0  0  0  0  0  0  0  0  0  0  0  0
   -3.8204    3.0994   -0.1721 H   0  0  0  0  0  0  0  0  0  0  0  0
   -3.6373    0.6791   -0.2925 H   0  0  0  0  0  0  0  0  0  0  0  0
   -1.3919   -2.9791   -1.5616 H   0  0  0  0  0  0  0  0  0  0  0  0
   -2.8796   -4.8295   -1.4591 H   0  0  0  0  0  0  0  0  0  0  0  0
   -5.0369   -4.6784   -0.2388 H   0  0  0  0  0  0  0  0  0  0  0  0
   -5.5764   -2.5758    0.9012 H   0  0  0  0  0  0  0  0  0  0  0  0
  1  2  1  0
  2  3  1  0
  3  4  1  0
  4  5  2  0
  5  6  1  0
  6  7  2  0
  7  8  1  0
  8  9  1  0
  8 10  2  0
 10 11  1  0
 11 12  3  0
  2 13  1  0
 13 14  2  0
 14 15  1  0
 15 16  2  0
 16 17  1  0
 17 18  2  0
 18 19  1  0
 18 20  1  0
 20 21  2  0
 21 22  1  0
 22 23  2  0
 23 24  1  0
 24 25  2  0
 25 26  1  0
 26 27  2  0
 27 28  1  0
 28 29  2  0
 10  4  1  0
 23 13  1  0
 29 24  1  0
 21 15  1  0
  1 30  1  0
  1 31  1  0
  1 32  1  0
  2 33  1  0
  3 34  1  0
  6 35  1  0
  9 36  1  0
  9 37  1  0
 16 38  1  0
 17 39  1  0
 20 40  1  0
 22 41  1  0
 25 42  1  0
 26 43  1  0
 27 44  1  0
 28 45  1  0
M  END
$$$$
