@<TRIPOS>MOLECULE
*****
 45 48 0 0 0
SMALL
GASTEIGER

@<TRIPOS>ATOM
      1 C           0.9655   -1.6974   -1.7002 C.3     1  UNL1       -0.0410
      2 C           0.4731   -1.4490   -0.3153 C.3     1  UNL1        0.0621
      3 N           1.5864   -1.1945    0.6029 N.pl3   1  UNL1       -0.3199
      4 C           2.5934   -0.2279    0.3748 C.ar    1  UNL1        0.1418
      5 N           2.7050    0.5664   -0.6806 N.ar    1  UNL1       -0.2195
      6 C           3.6986    1.4591   -0.8432 C.ar    1  UNL1        0.1202
      7 N           4.6618    1.5899    0.0973 N.ar    1  UNL1       -0.2197
      8 C           4.6284    0.8173    1.2127 C.ar    1  UNL1        0.1388
      9 N           5.6215    0.9247    2.2232 N.pl3   1  UNL1       -0.3420
     10 C           3.5961   -0.0840    1.3422 C.ar    1  UNL1        0.1307
     11 C           3.5595   -0.8947    2.5107 C.1     1  UNL1        0.1061
     12 N           3.5258   -1.5401    3.4743 N.1     1  UNL1       -0.1906
     13 C          -0.4403   -0.2677   -0.3248 C.ar    1  UNL1        0.0710
     14 N           0.1151    0.9727   -0.2617 N.ar    1  UNL1       -0.2491
     15 C          -0.5907    2.1041   -0.2090 C.ar    1  UNL1        0.0716
     16 C          -0.0108    3.3532   -0.1452 C.ar    1  UNL1       -0.0330
     17 C          -0.7824    4.4898   -0.0920 C.ar    1  UNL1       -0.0244
     18 C          -2.1603    4.4002   -0.1016 C.ar    1  UNL1        0.1241
     19 F          -2.8892    5.5464   -0.0477 F       1  UNL1       -0.2055
     20 C          -2.7438    3.1582   -0.1651 C.ar    1  UNL1       -0.0173
     21 C          -1.9704    1.9970   -0.2196 C.ar    1  UNL1        0.0037
     22 C          -2.5498    0.7588   -0.2835 C.ar    1  UNL1       -0.0415
     23 C          -1.7915   -0.4375   -0.3404 C.ar    1  UNL1        0.0240
     24 C          -2.5598   -1.6593   -0.3452 C.ar    1  UNL1        0.0728
     25 C          -2.2707   -2.8159   -0.9711 C.ar    1  UNL1       -0.0356
     26 C          -3.1434   -3.9033   -0.9424 C.ar    1  UNL1       -0.0583
     27 C          -4.3375   -3.8286   -0.2706 C.ar    1  UNL1       -0.0436
     28 C          -4.6181   -2.6384    0.3620 C.ar    1  UNL1        0.0283
     29 N          -3.7622   -1.6186    0.3160 N.ar    1  UNL1       -0.2549
     30 H           0.2593   -1.3129   -2.4890 H       1  UNL1        0.0251
     31 H           1.9632   -1.3270   -1.9216 H       1  UNL1        0.0251
     32 H           0.9982   -2.8161   -1.8486 H       1  UNL1        0.0251
     33 H          -0.0820   -2.3089    0.0670 H       1  UNL1        0.0560
     34 H           1.6077   -1.7767    1.4658 H       1  UNL1        0.1481
     35 H           3.7483    2.0866   -1.7223 H       1  UNL1        0.1048
     36 H           5.8779    0.1292    2.8385 H       1  UNL1        0.1437
     37 H           6.1126    1.8316    2.3554 H       1  UNL1        0.1437
     38 H           1.0572    3.4249   -0.1376 H       1  UNL1        0.0640
     39 H          -0.3091    5.4724   -0.0417 H       1  UNL1        0.0647
     40 H          -3.8204    3.0994   -0.1721 H       1  UNL1        0.0653
     41 H          -3.6373    0.6791   -0.2925 H       1  UNL1        0.0631
     42 H          -1.3919   -2.9791   -1.5616 H       1  UNL1        0.0639
     43 H          -2.8796   -4.8295   -1.4591 H       1  UNL1        0.0619
     44 H          -5.0369   -4.6784   -0.2388 H       1  UNL1        0.0633
     45 H          -5.5764   -2.5758    0.9012 H       1  UNL1        0.0830
@<TRIPOS>BOND
     1     1     2    1
     2     2     3    1
     3     3     4    1
     4     4     5   ar
     5     5     6   ar
     6     6     7   ar
     7     7     8   ar
     8     8     9    1
     9     8    10   ar
    10    10    11    1
    11    11    12    3
    12     2    13    1
    13    13    14   ar
    14    14    15   ar
    15    15    16   ar
    16    16    17   ar
    17    17    18   ar
    18    18    19    1
    19    18    20   ar
    20    20    21   ar
    21    21    22   ar
    22    22    23   ar
    23    23    24    1
    24    24    25   ar
    25    25    26   ar
    26    26    27   ar
    27    27    28   ar
    28    28    29   ar
    29    10     4   ar
    30    23    13   ar
    31    29    24   ar
    32    21    15   ar
    33     1    30    1
    34     1    31    1
    35     1    32    1
    36     2    33    1
    37     3    34    1
    38     6    35    1
    39     9    36    1
    40     9    37    1
    41    16    38    1
    42    17    39    1
    43    20    40    1
    44    22    41    1
    45    25    42    1
    46    26    43    1
    47    27    44    1
    48    28    45    1
