@<TRIPOS>MOLECULE
*****
 52 55 0 0 0
SMALL
GASTEIGER

@<TRIPOS>ATOM
      1 C          -3.9758   -0.7653    1.0843 C.3     1  UNL1       -0.0121
      2 N          -2.7764   -1.1755    0.3537 N.3     1  UNL1       -0.2976
      3 C          -2.7262   -2.6011    0.2998 C.3     1  UNL1        0.0171
      4 C          -1.4605   -3.1729   -0.2692 C.2     1  UNL1       -0.0739
      5 C          -0.5031   -3.9270    0.1782 C.2     1  UNL1       -0.0835
      6 C           0.7611   -4.5315   -0.3183 C.3     1  UNL1       -0.0004
      7 C           1.9664   -4.0577    0.5119 C.3     1  UNL1        0.0930
      8 O           2.3196   -2.8289    0.2595 O.3     1  UNL1       -0.4916
      9 C           2.8393   -1.5994    0.1542 C.ar    1  UNL1        0.1211
     10 C           4.1143   -1.4980   -0.3858 C.ar    1  UNL1       -0.0199
     11 C           4.7938   -0.3069   -0.5660 C.ar    1  UNL1       -0.0577
     12 C           4.1156    0.8073   -0.1701 C.ar    1  UNL1       -0.0523
     13 C           2.8132    0.7680    0.3857 C.ar    1  UNL1        0.0040
     14 C           2.1649   -0.4033    0.5579 C.ar    1  UNL1       -0.0108
     15 C           2.3674    2.1648    0.6449 C.ar    1  UNL1        0.0761
     16 C           3.2487    3.1529    1.1421 C.ar    1  UNL1       -0.0174
     17 C           2.8859    4.4415    1.3592 C.ar    1  UNL1        0.0332
     18 N           1.6144    4.8141    1.0894 N.ar    1  UNL1       -0.2226
     19 C           0.7536    3.9332    0.6255 C.ar    1  UNL1        0.2200
     20 N           1.1637    2.6716    0.4281 N.ar    1  UNL1       -0.2142
     21 N          -0.6401    4.1121    0.2986 N.pl3   1  UNL1       -0.2836
     22 C          -1.4967    3.0897   -0.2731 C.ar    1  UNL1        0.0339
     23 C          -2.3992    3.6982   -1.1723 C.ar    1  UNL1       -0.0405
     24 C          -3.3157    2.9995   -1.9059 C.ar    1  UNL1       -0.0597
     25 C          -3.2987    1.6411   -1.7058 C.ar    1  UNL1       -0.0572
     26 C          -2.4136    0.9964   -0.8159 C.ar    1  UNL1       -0.0316
     27 C          -1.5009    1.7302   -0.0879 C.ar    1  UNL1       -0.0361
     28 C          -2.6292   -0.4959   -0.8630 C.3     1  UNL1        0.0241
     29 H          -4.3653   -1.6407    1.6408 H       1  UNL1        0.0391
     30 H          -4.7377   -0.3381    0.4372 H       1  UNL1        0.0391
     31 H          -3.6141   -0.0535    1.8722 H       1  UNL1        0.0391
     32 H          -3.5947   -2.8679   -0.4498 H       1  UNL1        0.0470
     33 H          -3.1622   -2.9672    1.2122 H       1  UNL1        0.0470
     34 H          -1.5011   -2.7677   -1.3533 H       1  UNL1        0.0582
     35 H          -0.4659   -4.3177    1.2877 H       1  UNL1        0.0570
     36 H           0.7548   -5.6709   -0.1189 H       1  UNL1        0.0340
     37 H           1.0881   -4.4786   -1.3301 H       1  UNL1        0.0340
     38 H           1.6241   -4.2770    1.5764 H       1  UNL1        0.0699
     39 H           2.7765   -4.8131    0.3219 H       1  UNL1        0.0699
     40 H           4.7099   -2.3810   -0.7339 H       1  UNL1        0.0654
     41 H           5.7904   -0.2769   -0.9902 H       1  UNL1        0.0619
     42 H           4.6592    1.7636   -0.3023 H       1  UNL1        0.0624
     43 H           1.1338   -0.5680    1.0101 H       1  UNL1        0.0661
     44 H           4.2683    2.8593    1.3609 H       1  UNL1        0.0654
     45 H           3.5678    5.1894    1.7399 H       1  UNL1        0.0831
     46 H          -0.9925    5.0943    0.5053 H       1  UNL1        0.1550
     47 H          -2.4159    4.7957   -1.3269 H       1  UNL1        0.0636
     48 H          -4.0056    3.4736   -2.5942 H       1  UNL1        0.0618
     49 H          -4.0360    1.0576   -2.2971 H       1  UNL1        0.0621
     50 H          -0.7993    1.2055    0.6526 H       1  UNL1        0.0639
     51 H          -3.5921   -0.7418   -1.4224 H       1  UNL1        0.0476
     52 H          -1.8762   -0.9363   -1.5377 H       1  UNL1        0.0476
@<TRIPOS>BOND
     1     1     2    1
     2     2     3    1
     3     3     4    1
     4     4     5    2
     5     5     6    1
     6     6     7    1
     7     7     8    1
     8     8     9    1
     9     9    10   ar
    10    10    11   ar
    11    11    12   ar
    12    12    13   ar
    13    13    14   ar
    14    13    15    1
    15    15    16   ar
    16    16    17   ar
    17    17    18   ar
    18    18    19   ar
    19    19    20   ar
    20    19    21    1
    21    21    22    1
    22    22    23   ar
    23    23    24   ar
    24    24    25   ar
    25    25    26   ar
    26    26    27   ar
    27    26    28    1
    28    28     2    1
    29    14     9   ar
    30    20    15   ar
    31    27    22   ar
    32     1    29    1
    33     1    30    1
    34     1    31    1
    35     3    32    1
    36     3    33    1
    37     4    34    1
    38     5    35    1
    39     6    36    1
    40     6    37    1
    41     7    38    1
    42     7    39    1
    43    10    40    1
    44    11    41    1
    45    12    42    1
    46    14    43    1
    47    16    44    1
    48    17    45    1
    49    21    46    1
    50    23    47    1
    51    24    48    1
    52    25    49    1
    53    27    50    1
    54    28    51    1
    55    28    52    1
