
     RDKit          3D

 69 73  0  0  0  0  0  0  0  0999 V2000
   -1.6792   -3.6346   -0.7113 C   0  0  2  0  0  0  0  0  0  0  0  0
   -2.8852   -3.0999   -0.0278 C   0  0  0  0  0  0  0  0  0  0  0  0
   -2.7856   -1.6666    0.3730 C   0  0  2  0  0  0  0  0  0  0  0  0
   -3.7734   -0.8041   -0.4066 C   0  0  0  0  0  0  0  0  0  0  0  0
   -3.7415    0.5643    0.2414 C   0  0  1  0  0  0  0  0  0  0  0  0
   -2.3732    1.1695    0.1596 C   0  0  0  0  0  0  0  0  0  0  0  0
   -1.3979    0.2475    0.8600 C   0  0  0  0  0  0  0  0  0  0  0  0
   -1.4209   -1.0588    0.1023 C   0  0  1  0  0  0  0  0  0  0  0  0
   -0.2942   -1.9520    0.5655 C   0  0  2  0  0  0  0  0  0  0  0  0
    0.9748   -1.2424    0.2814 C   0  0  0  0  0  0  0  0  0  0  0  0
    1.8073   -0.8110    1.2446 C   0  0  0  0  0  0  0  0  0  0  0  0
    3.0578   -0.1136    1.0255 C   0  0  0  0  0  0  0  0  0  0  0  0
    3.8766    0.3084    2.0565 C   0  0  0  0  0  0  0  0  0  0  0  0
    5.0553    0.9706    1.7110 C   0  0  0  0  0  0  0  0  0  0  0  0
    5.4082    1.2051    0.3948 C   0  0  0  0  0  0  0  0  0  0  0  0
    4.5456    0.7576   -0.5949 C   0  0  0  0  0  0  0  0  0  0  0  0
    3.4096    0.1193   -0.2597 N   0  0  0  0  0  0  0  0  0  0  0  0
    6.6453    1.8978    0.1249 C   0  0  0  0  0  0  0  0  0  0  0  0
    7.1684    2.8603    0.9637 C   0  0  0  0  0  0  0  0  0  0  0  0
    8.3543    3.5190    0.6981 C   0  0  0  0  0  0  0  0  0  0  0  0
    8.8247    4.4594    1.5590 F   0  0  0  0  0  0  0  0  0  0  0  0
    9.0119    3.1696   -0.4661 C   0  0  0  0  0  0  0  0  0  0  0  0
    8.5483    2.2153   -1.3538 C   0  0  0  0  0  0  0  0  0  0  0  0
    7.3413    1.5938   -1.0137 C   0  0  0  0  0  0  0  0  0  0  0  0
   -0.3855   -3.3224   -0.0055 C   0  0  2  0  0  0  0  0  0  0  0  0
    0.6011   -3.6070   -1.1179 C   0  0  1  0  0  0  0  0  0  0  0  0
    0.9461   -5.0895   -1.0153 C   0  0  0  0  0  0  0  0  0  0  0  0
   -0.1071   -3.3668   -2.3335 O   0  0  0  0  0  0  0  0  0  0  0  0
   -1.4501   -3.1270   -2.0650 C   0  0  0  0  0  0  0  0  0  0  0  0
   -2.0924   -2.5662   -3.0002 O   0  0  0  0  0  0  0  0  0  0  0  0
   -4.7370    1.3675   -0.4492 N   0  0  0  0  0  0  0  0  0  0  0  0
   -5.8988    1.9609    0.1025 C   0  0  0  0  0  0  0  0  0  0  0  0
   -6.2984    1.9113    1.2954 O   0  0  0  0  0  0  0  0  0  0  0  0
   -6.6988    2.6804   -0.7468 O   0  0  0  0  0  0  0  0  0  0  0  0
   -7.8850    3.3111   -0.2828 C   0  0  0  0  0  0  0  0  0  0  0  0
   -7.5710    4.3206    0.8014 C   0  0  0  0  0  0  0  0  0  0  0  0
   -1.7912   -4.7340   -0.7767 H   0  0  0  0  0  0  0  0  0  0  0  0
   -3.0950   -3.7345    0.8605 H   0  0  0  0  0  0  0  0  0  0  0  0
   -3.7520   -3.2562   -0.7066 H   0  0  0  0  0  0  0  0  0  0  0  0
   -2.9924   -1.5424    1.4613 H   0  0  0  0  0  0  0  0  0  0  0  0
   -4.8126   -1.1773   -0.3334 H   0  0  0  0  0  0  0  0  0  0  0  0
   -3.4052   -0.7074   -1.4406 H   0  0  0  0  0  0  0  0  0  0  0  0
   -4.0457    0.4921    1.3001 H   0  0  0  0  0  0  0  0  0  0  0  0
   -2.0492    1.2992   -0.8920 H   0  0  0  0  0  0  0  0  0  0  0  0
   -2.3886    2.1806    0.6026 H   0  0  0  0  0  0  0  0  0  0  0  0
   -0.3965    0.6717    0.9954 H   0  0  0  0  0  0  0  0  0  0  0  0
   -1.8783    0.0306    1.8591 H   0  0  0  0  0  0  0  0  0  0  0  0
   -1.2774   -0.8177   -0.9536 H   0  0  0  0  0  0  0  0  0  0  0  0
   -0.3622   -2.0065    1.6867 H   0  0  0  0  0  0  0  0  0  0  0  0
    1.3789   -0.9894   -0.6892 H   0  0  0  0  0  0  0  0  0  0  0  0
    1.5260   -0.9975    2.2918 H   0  0  0  0  0  0  0  0  0  0  0  0
    3.5659    0.1067    3.0538 H   0  0  0  0  0  0  0  0  0  0  0  0
    5.7060    1.3068    2.5070 H   0  0  0  0  0  0  0  0  0  0  0  0
    4.8575    0.9604   -1.6119 H   0  0  0  0  0  0  0  0  0  0  0  0
    6.5707    3.0654    1.8616 H   0  0  0  0  0  0  0  0  0  0  0  0
    9.9376    3.6822   -0.6758 H   0  0  0  0  0  0  0  0  0  0  0  0
    9.1257    2.0040   -2.2402 H   0  0  0  0  0  0  0  0  0  0  0  0
    6.9875    0.8471   -1.7173 H   0  0  0  0  0  0  0  0  0  0  0  0
   -0.2978   -4.0979    0.8062 H   0  0  0  0  0  0  0  0  0  0  0  0
    1.4865   -2.9749   -1.1206 H   0  0  0  0  0  0  0  0  0  0  0  0
    1.3918   -5.2453   -0.0002 H   0  0  0  0  0  0  0  0  0  0  0  0
    0.0233   -5.6647   -1.1588 H   0  0  0  0  0  0  0  0  0  0  0  0
    1.7526   -5.3355   -1.7554 H   0  0  0  0  0  0  0  0  0  0  0  0
   -4.5106    1.4813   -1.4626 H   0  0  0  0  0  0  0  0  0  0  0  0
   -8.4489    3.7484   -1.1267 H   0  0  0  0  0  0  0  0  0  0  0  0
   -8.5147    2.4856    0.1619 H   0  0  0  0  0  0  0  0  0  0  0  0
   -8.1338    5.2791    0.6295 H   0  0  0  0  0  0  0  0  0  0  0  0
   -6.4912    4.5622    0.7420 H   0  0  0  0  0  0  0  0  0  0  0  0
   -7.7684    3.9305    1.8185 H   0  0  0  0  0  0  0  0  0  0  0  0
  1  2  1  0
  2  3  1  0
  3  4  1  0
  4  5  1  0
  5  6  1  0
  6  7  1  0
  7  8  1  0
  8  9  1  0
  9 10  1  0
 10 11  2  0
 11 12  1  0
 12 13  2  0
 13 14  1  0
 14 15  2  0
 15 16  1  0
 16 17  2  0
 15 18  1  0
 18 19  2  0
 19 20  1  0
 20 21  1  0
 20 22  2  0
 22 23  1  0
 23 24  2  0
  9 25  1  0
 25 26  1  0
 26 27  1  0
 26 28  1  0
 28 29  1  0
 29 30  2  0
  5 31  1  0
 31 32  1  0
 32 33  2  0
 32 34  1  0
 34 35  1  0
 35 36  1  0
 25  1  1  0
 29  1  1  0
  8  3  1  0
 17 12  1  0
 24 18  1  0
  1 37  1  6
  2 38  1  0
  2 39  1  0
  3 40  1  1
  4 41  1  0
  4 42  1  0
  5 43  1  1
  6 44  1  0
  6 45  1  0
  7 46  1  0
  7 47  1  0
  8 48  1  6
  9 49  1  1
 10 50  1  0
 11 51  1  0
 13 52  1  0
 14 53  1  0
 16 54  1  0
 19 55  1  0
 22 56  1  0
 23 57  1  0
 24 58  1  0
 25 59  1  1
 26 60  1  1
 27 61  1  0
 27 62  1  0
 27 63  1  0
 31 64  1  0
 35 65  1  0
 35 66  1  0
 36 67  1  0
 36 68  1  0
 36 69  1  0
M  END
$$$$
