
     RDKit          3D

 54 56  0  0  0  0  0  0  0  0999 V2000
    7.8088   -1.0742    0.1223 C   0  0  0  0  0  0  0  0  0  0  0  0
    6.7321   -1.6202   -0.5838 O   0  0  0  0  0  0  0  0  0  0  0  0
    5.4219   -1.2842   -0.3260 C   0  0  0  0  0  0  0  0  0  0  0  0
    5.0491   -0.3693    0.6623 C   0  0  0  0  0  0  0  0  0  0  0  0
    3.6955   -0.0824    0.8614 C   0  0  0  0  0  0  0  0  0  0  0  0
    2.7271   -0.6984    0.0868 C   0  0  0  0  0  0  0  0  0  0  0  0
    1.2755   -0.4226    0.2646 C   0  0  0  0  0  0  0  0  0  0  0  0
    0.8961    0.7022   -0.6066 C   0  0  0  0  0  0  0  0  0  0  0  0
    1.1999    0.2829   -2.0521 C   0  0  0  0  0  0  0  0  0  0  0  0
    1.7851    1.9045   -0.3357 C   0  0  0  0  0  0  0  0  0  0  0  0
   -0.4475    1.1324   -0.5805 N   0  0  0  0  0  0  0  0  0  0  0  0
   -0.9937    1.5948    0.6386 C   0  0  0  0  0  0  0  0  0  0  0  0
   -2.4197    2.0146    0.5125 C   0  0  2  0  0  0  0  0  0  0  0  0
   -2.8440    2.4505    1.7818 O   0  0  0  0  0  0  0  0  0  0  0  0
   -3.3308    1.0256   -0.0824 C   0  0  0  0  0  0  0  0  0  0  0  0
   -3.9524    0.1462    0.7797 C   0  0  0  0  0  0  0  0  0  0  0  0
   -3.7711    0.1434    2.1349 O   0  0  0  0  0  0  0  0  0  0  0  0
   -3.9192   -1.0608    2.8657 C   0  0  0  0  0  0  0  0  0  0  0  0
   -5.2378   -1.6612    2.4938 C   0  0  0  0  0  0  0  0  0  0  0  0
   -6.1180   -2.0939    3.2756 O   0  0  0  0  0  0  0  0  0  0  0  0
   -5.4888   -1.7344    1.0953 N   0  0  0  0  0  0  0  0  0  0  0  0
   -4.8234   -0.8032    0.2350 C   0  0  0  0  0  0  0  0  0  0  0  0
   -5.0772   -0.8870   -1.1186 C   0  0  0  0  0  0  0  0  0  0  0  0
   -4.4597   -0.0113   -1.9879 C   0  0  0  0  0  0  0  0  0  0  0  0
   -4.6816   -0.0531   -3.3665 O   0  0  0  0  0  0  0  0  0  0  0  0
   -3.6036    0.9188   -1.4338 C   0  0  0  0  0  0  0  0  0  0  0  0
    3.1110   -1.6124   -0.8996 C   0  0  0  0  0  0  0  0  0  0  0  0
    4.4593   -1.8987   -1.0985 C   0  0  0  0  0  0  0  0  0  0  0  0
    7.6607    0.0164    0.2701 H   0  0  0  0  0  0  0  0  0  0  0  0
    8.7426   -1.2394   -0.4792 H   0  0  0  0  0  0  0  0  0  0  0  0
    7.9216   -1.6193    1.0712 H   0  0  0  0  0  0  0  0  0  0  0  0
    5.8206    0.1044    1.2605 H   0  0  0  0  0  0  0  0  0  0  0  0
    3.3950    0.6358    1.6366 H   0  0  0  0  0  0  0  0  0  0  0  0
    0.6742   -1.3343   -0.0151 H   0  0  0  0  0  0  0  0  0  0  0  0
    1.1219   -0.2879    1.3357 H   0  0  0  0  0  0  0  0  0  0  0  0
    2.2859    0.2685   -2.2626 H   0  0  0  0  0  0  0  0  0  0  0  0
    0.7892    1.0888   -2.7012 H   0  0  0  0  0  0  0  0  0  0  0  0
    0.6717   -0.6522   -2.2700 H   0  0  0  0  0  0  0  0  0  0  0  0
    1.4586    2.7619   -0.9931 H   0  0  0  0  0  0  0  0  0  0  0  0
    2.8417    1.7244   -0.6002 H   0  0  0  0  0  0  0  0  0  0  0  0
    1.7252    2.2212    0.7245 H   0  0  0  0  0  0  0  0  0  0  0  0
   -0.8180    1.5338   -1.4477 H   0  0  0  0  0  0  0  0  0  0  0  0
   -0.4484    2.5305    0.9567 H   0  0  0  0  0  0  0  0  0  0  0  0
   -0.8048    0.8517    1.4378 H   0  0  0  0  0  0  0  0  0  0  0  0
   -2.4119    2.9565   -0.1054 H   0  0  0  0  0  0  0  0  0  0  0  0
   -3.8336    2.5812    1.8229 H   0  0  0  0  0  0  0  0  0  0  0  0
   -3.1480   -1.7647    2.4881 H   0  0  0  0  0  0  0  0  0  0  0  0
   -3.8460   -0.8943    3.9582 H   0  0  0  0  0  0  0  0  0  0  0  0
   -6.1425   -2.4439    0.6677 H   0  0  0  0  0  0  0  0  0  0  0  0
   -5.7504   -1.6202   -1.5430 H   0  0  0  0  0  0  0  0  0  0  0  0
   -4.9314    0.7822   -3.8748 H   0  0  0  0  0  0  0  0  0  0  0  0
   -3.1240    1.5990   -2.1089 H   0  0  0  0  0  0  0  0  0  0  0  0
    2.4154   -2.1312   -1.5412 H   0  0  0  0  0  0  0  0  0  0  0  0
    4.7421   -2.6176   -1.8760 H   0  0  0  0  0  0  0  0  0  0  0  0
  1  2  1  0
  2  3  1  0
  3  4  2  0
  4  5  1  0
  5  6  2  0
  6  7  1  0
  7  8  1  0
  8  9  1  0
  8 10  1  0
  8 11  1  0
 11 12  1  0
 12 13  1  0
 13 14  1  0
 13 15  1  0
 15 16  2  0
 16 17  1  0
 17 18  1  0
 18 19  1  0
 19 20  2  0
 19 21  1  0
 21 22  1  0
 22 23  2  0
 23 24  1  0
 24 25  1  0
 24 26  2  0
  6 27  1  0
 27 28  2  0
 28  3  1  0
 26 15  1  0
 22 16  1  0
  1 29  1  0
  1 30  1  0
  1 31  1  0
  4 32  1  0
  5 33  1  0
  7 34  1  0
  7 35  1  0
  9 36  1  0
  9 37  1  0
  9 38  1  0
 10 39  1  0
 10 40  1  0
 10 41  1  0
 11 42  1  0
 12 43  1  0
 12 44  1  0
 13 45  1  6
 14 46  1  0
 18 47  1  0
 18 48  1  0
 21 49  1  0
 23 50  1  0
 25 51  1  0
 26 52  1  0
 27 53  1  0
 28 54  1  0
M  END
$$$$
