@<TRIPOS>MOLECULE
*****
 61 68 0 0 0
SMALL
GASTEIGER

@<TRIPOS>ATOM
      1 C           3.2168    2.2063    2.1063 C.3     1  UNL1       -0.0155
      2 N           3.6194    2.2517    0.7512 N.3     1  UNL1       -0.3136
      3 C           2.7738    1.7105   -0.2388 C.3     1  UNL1        0.0423
      4 C           1.3825    2.2806   -0.0940 C.3     1  UNL1        0.0107
      5 C           0.5763    1.8465   -1.2729 C.3     1  UNL1        0.1402
      6 O           1.0011    0.7645   -1.9360 O.3     1  UNL1       -0.3282
      7 C           1.6166   -0.2667   -1.2243 C.3     1  UNL1        0.1741
      8 C           2.3007   -1.0914   -2.3061 C.3     1  UNL1       -0.0136
      9 C           2.6521    0.2031   -0.2493 C.3     1  UNL1        0.1214
     10 O           2.4543   -0.2240    1.0383 O.3     1  UNL1       -0.3735
     11 C           3.5641   -0.9292    1.4901 C.3     1  UNL1        0.0371
     12 N           0.5879   -1.1036   -0.5840 N.ar    1  UNL1       -0.3070
     13 C           0.6846   -2.3993   -0.2752 C.ar    1  UNL1        0.0527
     14 C           1.6973   -3.3133   -0.3861 C.ar    1  UNL1       -0.0375
     15 C           1.5330   -4.6137    0.0222 C.ar    1  UNL1       -0.0598
     16 C           0.3572   -5.0710    0.5606 C.ar    1  UNL1       -0.0611
     17 C          -0.6641   -4.1579    0.6756 C.ar    1  UNL1       -0.0520
     18 C          -0.5048   -2.8599    0.2697 C.ar    1  UNL1        0.0081
     19 C          -1.3578   -1.8041    0.2965 C.ar    1  UNL1        0.0151
     20 C          -2.6752   -1.6481    0.7228 C.ar    1  UNL1       -0.0078
     21 C          -3.3076   -0.4171    0.6248 C.ar    1  UNL1        0.0518
     22 C          -2.6082    0.6743    0.0925 C.ar    1  UNL1        0.0221
     23 C          -2.9036    1.9956   -0.1294 C.ar    1  UNL1        0.0085
     24 C          -4.0209    2.7536    0.0755 C.ar    1  UNL1       -0.0520
     25 C          -3.9912    4.0980   -0.2655 C.ar    1  UNL1       -0.0611
     26 C          -2.8457    4.6345   -0.7984 C.ar    1  UNL1       -0.0598
     27 C          -1.7157    3.8760   -1.0075 C.ar    1  UNL1       -0.0375
     28 C          -1.7624    2.5472   -0.6645 C.ar    1  UNL1        0.0524
     29 N          -0.7911    1.6337   -0.7802 N.ar    1  UNL1       -0.3115
     30 C          -1.2885    0.4669   -0.3215 C.ar    1  UNL1        0.0774
     31 C          -0.6604   -0.7539   -0.2277 C.ar    1  UNL1        0.0772
     32 C          -4.6396   -0.5747    1.1362 C.2     1  UNL1        0.2453
     33 O          -5.5351    0.2946    1.2253 O.2     1  UNL1       -0.2702
     34 N          -4.7951   -1.9425    1.5482 N.am    1  UNL1       -0.3072
     35 C          -3.5871   -2.6479    1.3081 C.3     1  UNL1        0.0385
     36 H           4.0177    1.6623    2.6920 H       1  UNL1        0.0388
     37 H           3.2026    3.2144    2.5995 H       1  UNL1        0.0388
     38 H           2.2785    1.6587    2.3033 H       1  UNL1        0.0388
     39 H           4.0068    3.1679    0.5128 H       1  UNL1        0.1220
     40 H           3.0961    2.0135   -1.2817 H       1  UNL1        0.0489
     41 H           0.9111    1.8364    0.8287 H       1  UNL1        0.0325
     42 H           1.3812    3.3806   -0.0524 H       1  UNL1        0.0325
     43 H           0.4970    2.6983   -1.9892 H       1  UNL1        0.0839
     44 H           2.3659   -0.4938   -3.2830 H       1  UNL1        0.0277
     45 H           3.3693   -1.2871   -2.0959 H       1  UNL1        0.0277
     46 H           1.7105   -1.9725   -2.6221 H       1  UNL1        0.0277
     47 H           3.6829   -0.1509   -0.5785 H       1  UNL1        0.0660
     48 H           4.5081   -0.3120    1.4764 H       1  UNL1        0.0524
     49 H           3.8161   -1.8198    0.8876 H       1  UNL1        0.0524
     50 H           3.4098   -1.3108    2.5323 H       1  UNL1        0.0524
     51 H           2.6321   -3.0238   -0.7805 H       1  UNL1        0.0638
     52 H           2.3496   -5.3360   -0.0717 H       1  UNL1        0.0618
     53 H           0.2037   -6.0906    0.8892 H       1  UNL1        0.0618
     54 H          -1.6123   -4.5070    1.1047 H       1  UNL1        0.0624
     55 H          -4.9339    2.3899    0.4842 H       1  UNL1        0.0624
     56 H          -4.8789    4.7000   -0.1027 H       1  UNL1        0.0618
     57 H          -2.8458    5.7012   -1.0606 H       1  UNL1        0.0618
     58 H          -0.8338    4.3018   -1.4210 H       1  UNL1        0.0638
     59 H          -5.6761   -2.3182    1.9559 H       1  UNL1        0.1493
     60 H          -3.2204   -3.0574    2.2692 H       1  UNL1        0.0512
     61 H          -3.8012   -3.4646    0.5804 H       1  UNL1        0.0512
@<TRIPOS>BOND
     1     1     2    1
     2     2     3    1
     3     3     4    1
     4     4     5    1
     5     5     6    1
     6     6     7    1
     7     7     8    1
     8     7     9    1
     9     9    10    1
    10    10    11    1
    11     7    12    1
    12    12    13   ar
    13    13    14   ar
    14    14    15   ar
    15    15    16   ar
    16    16    17   ar
    17    17    18   ar
    18    18    19   ar
    19    19    20   ar
    20    20    21   ar
    21    21    22   ar
    22    22    23   ar
    23    23    24   ar
    24    24    25   ar
    25    25    26   ar
    26    26    27   ar
    27    27    28   ar
    28    28    29   ar
    29    29    30   ar
    30    30    31   ar
    31    21    32    1
    32    32    33    2
    33    32    34   am
    34    34    35    1
    35     9     3    1
    36    31    12   ar
    37    29     5    1
    38    18    13   ar
    39    31    19   ar
    40    35    20    1
    41    30    22   ar
    42    28    23   ar
    43     1    36    1
    44     1    37    1
    45     1    38    1
    46     2    39    1
    47     3    40    1
    48     4    41    1
    49     4    42    1
    50     5    43    1
    51     8    44    1
    52     8    45    1
    53     8    46    1
    54     9    47    1
    55    11    48    1
    56    11    49    1
    57    11    50    1
    58    14    51    1
    59    15    52    1
    60    16    53    1
    61    17    54    1
    62    24    55    1
    63    25    56    1
    64    26    57    1
    65    27    58    1
    66    34    59    1
    67    35    60    1
    68    35    61    1
