@<TRIPOS>MOLECULE
*****
 51 53 0 0 0
SMALL
GASTEIGER

@<TRIPOS>ATOM
      1 O          -4.3668    1.1631    2.7845 O.2     1  UNL1       -0.2451
      2 C          -3.7700    0.5391    1.8404 C.2     1  UNL1        0.3386
      3 O          -2.6457   -0.1508    2.1885 O.3     1  UNL1       -0.4771
      4 C          -4.2830    0.5847    0.4855 C.ar    1  UNL1        0.0803
      5 C          -5.4033    1.4124    0.2473 C.ar    1  UNL1       -0.0343
      6 C          -5.9164    1.5461   -1.0192 C.ar    1  UNL1        0.0557
      7 C          -7.1072    2.4329   -1.2396 C.3     1  UNL1        0.4174
      8 F          -6.7066    3.7642   -1.2718 F       1  UNL1       -0.1659
      9 F          -7.9828    2.2286   -0.2023 F       1  UNL1       -0.1659
     10 F          -7.7254    2.1038   -2.4197 F       1  UNL1       -0.1659
     11 C          -5.3401    0.8718   -2.0683 C.ar    1  UNL1       -0.0483
     12 C          -4.2626    0.0771   -1.8267 C.ar    1  UNL1       -0.0393
     13 C          -3.7159   -0.0806   -0.5438 C.ar    1  UNL1        0.0439
     14 N          -2.6174   -0.9761   -0.3846 N.pl3   1  UNL1       -0.3267
     15 C          -2.6337   -2.3128    0.1593 C.3     1  UNL1        0.0147
     16 C          -1.2384   -2.5528    0.6656 C.3     1  UNL1       -0.0093
     17 C          -0.3856   -1.4390    0.1334 C.3     1  UNL1        0.0758
     18 O           0.1819   -0.6763    1.1230 O.3     1  UNL1       -0.3727
     19 C           1.5601   -0.6771    1.0652 C.3     1  UNL1        0.0714
     20 C           2.0808   -0.0652   -0.1859 C.3     1  UNL1        0.0714
     21 O           3.4697   -0.0561   -0.2610 O.3     1  UNL1       -0.3729
     22 C           4.1035    0.6327    0.7352 C.3     1  UNL1        0.0728
     23 C           5.5771    0.5223    0.4677 C.ar    1  UNL1       -0.0219
     24 C           6.2628    1.4349   -0.3059 C.ar    1  UNL1       -0.0564
     25 C           7.6134    1.3259   -0.5457 C.ar    1  UNL1       -0.0614
     26 C           8.3370    0.2875   -0.0141 C.ar    1  UNL1       -0.0617
     27 C           7.6801   -0.6358    0.7601 C.ar    1  UNL1       -0.0614
     28 C           6.3262   -0.5207    0.9966 C.ar    1  UNL1       -0.0564
     29 C          -1.2672   -0.6760   -0.7877 C.3     1  UNL1        0.0385
     30 H          -2.5831   -0.6444    3.0815 H       1  UNL1        0.2954
     31 H          -5.8364    1.9315    1.0941 H       1  UNL1        0.0632
     32 H          -5.7508    0.9820   -3.0713 H       1  UNL1        0.0624
     33 H          -3.7888   -0.4650   -2.6311 H       1  UNL1        0.0636
     34 H          -2.8875   -3.0648   -0.6437 H       1  UNL1        0.0464
     35 H          -3.3821   -2.3777    0.9507 H       1  UNL1        0.0464
     36 H          -1.2044   -2.5845    1.7780 H       1  UNL1        0.0306
     37 H          -0.9089   -3.5474    0.3212 H       1  UNL1        0.0306
     38 H           0.4271   -1.9186   -0.4720 H       1  UNL1        0.0612
     39 H           2.0017   -0.2396    1.9879 H       1  UNL1        0.0583
     40 H           1.8555   -1.7696    1.1260 H       1  UNL1        0.0583
     41 H           1.7357   -0.6139   -1.0748 H       1  UNL1        0.0583
     42 H           1.6652    0.9684   -0.2970 H       1  UNL1        0.0583
     43 H           3.8485    1.7128    0.7715 H       1  UNL1        0.0610
     44 H           3.9632    0.2309    1.7561 H       1  UNL1        0.0610
     45 H           5.6757    2.2493   -0.7183 H       1  UNL1        0.0621
     46 H           8.1307    2.0499   -1.1533 H       1  UNL1        0.0618
     47 H           9.3993    0.1887   -0.1938 H       1  UNL1        0.0618
     48 H           8.2476   -1.4487    1.1761 H       1  UNL1        0.0618
     49 H           5.7834   -1.2411    1.6077 H       1  UNL1        0.0621
     50 H          -1.0992   -0.9316   -1.8581 H       1  UNL1        0.0489
     51 H          -1.1169    0.4255   -0.6547 H       1  UNL1        0.0489
@<TRIPOS>BOND
     1     1     2    2
     2     2     3    1
     3     2     4    1
     4     4     5   ar
     5     5     6   ar
     6     6     7    1
     7     7     8    1
     8     7     9    1
     9     7    10    1
    10     6    11   ar
    11    11    12   ar
    12    12    13   ar
    13    13    14    1
    14    14    15    1
    15    15    16    1
    16    16    17    1
    17    17    18    1
    18    18    19    1
    19    19    20    1
    20    20    21    1
    21    21    22    1
    22    22    23    1
    23    23    24   ar
    24    24    25   ar
    25    25    26   ar
    26    26    27   ar
    27    27    28   ar
    28    17    29    1
    29    13     4   ar
    30    29    14    1
    31    28    23   ar
    32     3    30    1
    33     5    31    1
    34    11    32    1
    35    12    33    1
    36    15    34    1
    37    15    35    1
    38    16    36    1
    39    16    37    1
    40    17    38    1
    41    19    39    1
    42    19    40    1
    43    20    41    1
    44    20    42    1
    45    22    43    1
    46    22    44    1
    47    24    45    1
    48    25    46    1
    49    26    47    1
    50    27    48    1
    51    28    49    1
    52    29    50    1
    53    29    51    1
