
     RDKit          3D

 51 53  0  0  0  0  0  0  0  0999 V2000
   -4.3668    1.1631    2.7845 O   0  0  0  0  0  0  0  0  0  0  0  0
   -3.7700    0.5391    1.8404 C   0  0  0  0  0  0  0  0  0  0  0  0
   -2.6457   -0.1508    2.1885 O   0  0  0  0  0  0  0  0  0  0  0  0
   -4.2830    0.5847    0.4855 C   0  0  0  0  0  0  0  0  0  0  0  0
   -5.4033    1.4124    0.2473 C   0  0  0  0  0  0  0  0  0  0  0  0
   -5.9164    1.5461   -1.0192 C   0  0  0  0  0  0  0  0  0  0  0  0
   -7.1072    2.4329   -1.2396 C   0  0  0  0  0  0  0  0  0  0  0  0
   -6.7066    3.7642   -1.2718 F   0  0  0  0  0  0  0  0  0  0  0  0
   -7.9828    2.2286   -0.2023 F   0  0  0  0  0  0  0  0  0  0  0  0
   -7.7254    2.1038   -2.4197 F   0  0  0  0  0  0  0  0  0  0  0  0
   -5.3401    0.8718   -2.0683 C   0  0  0  0  0  0  0  0  0  0  0  0
   -4.2626    0.0771   -1.8267 C   0  0  0  0  0  0  0  0  0  0  0  0
   -3.7159   -0.0806   -0.5438 C   0  0  0  0  0  0  0  0  0  0  0  0
   -2.6174   -0.9761   -0.3846 N   0  0  0  0  0  0  0  0  0  0  0  0
   -2.6337   -2.3128    0.1593 C   0  0  0  0  0  0  0  0  0  0  0  0
   -1.2384   -2.5528    0.6656 C   0  0  0  0  0  0  0  0  0  0  0  0
   -0.3856   -1.4390    0.1334 C   0  0  2  0  0  0  0  0  0  0  0  0
    0.1819   -0.6763    1.1230 O   0  0  0  0  0  0  0  0  0  0  0  0
    1.5601   -0.6771    1.0652 C   0  0  0  0  0  0  0  0  0  0  0  0
    2.0808   -0.0652   -0.1859 C   0  0  0  0  0  0  0  0  0  0  0  0
    3.4697   -0.0561   -0.2610 O   0  0  0  0  0  0  0  0  0  0  0  0
    4.1035    0.6327    0.7352 C   0  0  0  0  0  0  0  0  0  0  0  0
    5.5771    0.5223    0.4677 C   0  0  0  0  0  0  0  0  0  0  0  0
    6.2628    1.4349   -0.3059 C   0  0  0  0  0  0  0  0  0  0  0  0
    7.6134    1.3259   -0.5457 C   0  0  0  0  0  0  0  0  0  0  0  0
    8.3370    0.2875   -0.0141 C   0  0  0  0  0  0  0  0  0  0  0  0
    7.6801   -0.6358    0.7601 C   0  0  0  0  0  0  0  0  0  0  0  0
    6.3262   -0.5207    0.9966 C   0  0  0  0  0  0  0  0  0  0  0  0
   -1.2672   -0.6760   -0.7877 C   0  0  0  0  0  0  0  0  0  0  0  0
   -2.5831   -0.6444    3.0815 H   0  0  0  0  0  0  0  0  0  0  0  0
   -5.8364    1.9315    1.0941 H   0  0  0  0  0  0  0  0  0  0  0  0
   -5.7508    0.9820   -3.0713 H   0  0  0  0  0  0  0  0  0  0  0  0
   -3.7888   -0.4650   -2.6311 H   0  0  0  0  0  0  0  0  0  0  0  0
   -2.8875   -3.0648   -0.6437 H   0  0  0  0  0  0  0  0  0  0  0  0
   -3.3821   -2.3777    0.9507 H   0  0  0  0  0  0  0  0  0  0  0  0
   -1.2044   -2.5845    1.7780 H   0  0  0  0  0  0  0  0  0  0  0  0
   -0.9089   -3.5474    0.3212 H   0  0  0  0  0  0  0  0  0  0  0  0
    0.4271   -1.9186   -0.4720 H   0  0  0  0  0  0  0  0  0  0  0  0
    2.0017   -0.2396    1.9879 H   0  0  0  0  0  0  0  0  0  0  0  0
    1.8555   -1.7696    1.1260 H   0  0  0  0  0  0  0  0  0  0  0  0
    1.7357   -0.6139   -1.0748 H   0  0  0  0  0  0  0  0  0  0  0  0
    1.6652    0.9684   -0.2970 H   0  0  0  0  0  0  0  0  0  0  0  0
    3.8485    1.7128    0.7715 H   0  0  0  0  0  0  0  0  0  0  0  0
    3.9632    0.2309    1.7561 H   0  0  0  0  0  0  0  0  0  0  0  0
    5.6757    2.2493   -0.7183 H   0  0  0  0  0  0  0  0  0  0  0  0
    8.1307    2.0499   -1.1533 H   0  0  0  0  0  0  0  0  0  0  0  0
    9.3993    0.1887   -0.1938 H   0  0  0  0  0  0  0  0  0  0  0  0
    8.2476   -1.4487    1.1761 H   0  0  0  0  0  0  0  0  0  0  0  0
    5.7834   -1.2411    1.6077 H   0  0  0  0  0  0  0  0  0  0  0  0
   -1.0992   -0.9316   -1.8581 H   0  0  0  0  0  0  0  0  0  0  0  0
   -1.1169    0.4255   -0.6547 H   0  0  0  0  0  0  0  0  0  0  0  0
  1  2  2  0
  2  3  1  0
  2  4  1  0
  4  5  2  0
  5  6  1  0
  6  7  1  0
  7  8  1  0
  7  9  1  0
  7 10  1  0
  6 11  2  0
 11 12  1  0
 12 13  2  0
 13 14  1  0
 14 15  1  0
 15 16  1  0
 16 17  1  0
 17 18  1  0
 18 19  1  0
 19 20  1  0
 20 21  1  0
 21 22  1  0
 22 23  1  0
 23 24  2  0
 24 25  1  0
 25 26  2  0
 26 27  1  0
 27 28  2  0
 17 29  1  0
 13  4  1  0
 29 14  1  0
 28 23  1  0
  3 30  1  0
  5 31  1  0
 11 32  1  0
 12 33  1  0
 15 34  1  0
 15 35  1  0
 16 36  1  0
 16 37  1  0
 17 38  1  6
 19 39  1  0
 19 40  1  0
 20 41  1  0
 20 42  1  0
 22 43  1  0
 22 44  1  0
 24 45  1  0
 25 46  1  0
 26 47  1  0
 27 48  1  0
 28 49  1  0
 29 50  1  0
 29 51  1  0
M  END
$$$$
