
     RDKit          3D

 65 70  0  0  0  0  0  0  0  0999 V2000
   -7.6953    0.2615   -1.6048 C   0  0  0  0  0  0  0  0  0  0  0  0
   -7.5648    1.3961   -0.7300 N   0  0  0  0  0  0  0  0  0  0  0  0
   -8.7598    2.1247   -0.2718 C   0  0  0  0  0  0  0  0  0  0  0  0
   -6.2965    1.8150   -0.3069 C   0  0  0  0  0  0  0  0  0  0  0  0
   -6.2051    2.8132    0.4603 O   0  0  0  0  0  0  0  0  0  0  0  0
   -5.0562    1.1327   -0.7243 C   0  0  0  0  0  0  0  0  0  0  0  0
   -4.5452    1.1386   -2.0005 C   0  0  0  0  0  0  0  0  0  0  0  0
   -3.3940    0.3922   -1.9579 C   0  0  0  0  0  0  0  0  0  0  0  0
   -2.4319    0.0163   -2.8868 C   0  0  0  0  0  0  0  0  0  0  0  0
   -1.3986   -0.7442   -2.5128 N   0  0  0  0  0  0  0  0  0  0  0  0
   -1.2406   -1.1731   -1.2524 C   0  0  0  0  0  0  0  0  0  0  0  0
   -0.1260   -2.0047   -0.8812 N   0  0  0  0  0  0  0  0  0  0  0  0
    1.1465   -1.4960   -0.5133 C   0  0  0  0  0  0  0  0  0  0  0  0
    2.1775   -2.3404   -0.1534 C   0  0  0  0  0  0  0  0  0  0  0  0
    3.4199   -1.8538    0.1972 C   0  0  0  0  0  0  0  0  0  0  0  0
    3.7141   -0.5053    0.2122 C   0  0  0  0  0  0  0  0  0  0  0  0
    4.9751    0.0143    0.5991 N   0  0  0  0  0  0  0  0  0  0  0  0
    5.3227    1.3944    0.2377 C   0  0  0  0  0  0  0  0  0  0  0  0
    6.7298    1.3927   -0.3701 C   0  0  1  0  0  0  0  0  0  0  0  0
    7.7202    1.6661    0.7182 C   0  0  0  0  0  0  0  0  0  0  0  0
    8.8046    0.6260    0.4355 C   0  0  0  0  0  0  0  0  0  0  0  0
    7.9468   -0.5550   -0.0255 C   0  0  1  0  0  0  0  0  0  0  0  0
    7.3084   -1.1362    1.1888 C   0  0  0  0  0  0  0  0  0  0  0  0
    5.8413   -0.8743    1.2893 C   0  0  0  0  0  0  0  0  0  0  0  0
    5.2177   -1.5745    2.1631 O   0  0  0  0  0  0  0  0  0  0  0  0
    7.0022    0.0657   -0.9016 N   0  0  0  0  0  0  0  0  0  0  0  0
    2.6505    0.3101   -0.1557 C   0  0  0  0  0  0  0  0  0  0  0  0
    1.4370   -0.1890   -0.4970 N   0  0  0  0  0  0  0  0  0  0  0  0
   -2.1580   -0.8209   -0.3390 N   0  0  0  0  0  0  0  0  0  0  0  0
   -3.2014   -0.0649   -0.6737 C   0  0  0  0  0  0  0  0  0  0  0  0
   -4.2308    0.4023    0.0578 N   0  0  0  0  0  0  0  0  0  0  0  0
   -4.4948    0.2068    1.4557 C   0  0  0  0  0  0  0  0  0  0  0  0
   -5.5687   -0.8761    1.6341 C   0  0  0  0  0  0  0  0  0  0  0  0
   -4.4242   -1.8495    1.8594 C   0  0  0  0  0  0  0  0  0  0  0  0
   -3.5764   -0.6522    2.2368 C   0  0  0  0  0  0  0  0  0  0  0  0
   -8.3905    0.4671   -2.4464 H   0  0  0  0  0  0  0  0  0  0  0  0
   -8.1087   -0.6199   -1.0366 H   0  0  0  0  0  0  0  0  0  0  0  0
   -6.6954   -0.0402   -1.9496 H   0  0  0  0  0  0  0  0  0  0  0  0
   -9.1001    2.8637   -1.0125 H   0  0  0  0  0  0  0  0  0  0  0  0
   -9.5197    1.3614   -0.0275 H   0  0  0  0  0  0  0  0  0  0  0  0
   -8.4868    2.6713    0.6613 H   0  0  0  0  0  0  0  0  0  0  0  0
   -4.9187    1.6110   -2.8998 H   0  0  0  0  0  0  0  0  0  0  0  0
   -2.5766    0.3767   -3.9114 H   0  0  0  0  0  0  0  0  0  0  0  0
   -0.2902   -3.0320   -0.8914 H   0  0  0  0  0  0  0  0  0  0  0  0
    1.9692   -3.4023   -0.1581 H   0  0  0  0  0  0  0  0  0  0  0  0
    4.1787   -2.5743    0.4532 H   0  0  0  0  0  0  0  0  0  0  0  0
    5.2560    2.0900    1.0923 H   0  0  0  0  0  0  0  0  0  0  0  0
    4.6666    1.7665   -0.5797 H   0  0  0  0  0  0  0  0  0  0  0  0
    6.8038    2.0851   -1.2270 H   0  0  0  0  0  0  0  0  0  0  0  0
    7.3123    1.4102    1.7300 H   0  0  0  0  0  0  0  0  0  0  0  0
    8.1244    2.6981    0.6718 H   0  0  0  0  0  0  0  0  0  0  0  0
    9.4410    1.0092   -0.3704 H   0  0  0  0  0  0  0  0  0  0  0  0
    9.3420    0.3403    1.3465 H   0  0  0  0  0  0  0  0  0  0  0  0
    8.6280   -1.2608   -0.5483 H   0  0  0  0  0  0  0  0  0  0  0  0
    7.8185   -0.8573    2.1346 H   0  0  0  0  0  0  0  0  0  0  0  0
    7.4269   -2.2591    1.1366 H   0  0  0  0  0  0  0  0  0  0  0  0
    7.3182    0.0592   -1.8758 H   0  0  0  0  0  0  0  0  0  0  0  0
    2.8149    1.3944   -0.1544 H   0  0  0  0  0  0  0  0  0  0  0  0
   -4.7611    1.1782    1.9473 H   0  0  0  0  0  0  0  0  0  0  0  0
   -6.1366   -0.6664    2.5523 H   0  0  0  0  0  0  0  0  0  0  0  0
   -6.1517   -1.0680    0.7121 H   0  0  0  0  0  0  0  0  0  0  0  0
   -4.6172   -2.5684    2.6610 H   0  0  0  0  0  0  0  0  0  0  0  0
   -4.1620   -2.3497    0.9269 H   0  0  0  0  0  0  0  0  0  0  0  0
   -2.5203   -0.6913    1.9980 H   0  0  0  0  0  0  0  0  0  0  0  0
   -3.7109   -0.4510    3.3371 H   0  0  0  0  0  0  0  0  0  0  0  0
  1  2  1  0
  2  3  1  0
  2  4  1  0
  4  5  2  0
  4  6  1  0
  6  7  2  0
  7  8  1  0
  8  9  2  0
  9 10  1  0
 10 11  2  0
 11 12  1  0
 12 13  1  0
 13 14  2  0
 14 15  1  0
 15 16  2  0
 16 17  1  0
 17 18  1  0
 18 19  1  0
 19 20  1  0
 20 21  1  0
 21 22  1  0
 22 23  1  0
 23 24  1  0
 24 25  2  0
 22 26  1  0
 16 27  1  0
 27 28  2  0
 11 29  1  0
 29 30  2  0
 30 31  1  0
 31 32  1  0
 32 33  1  0
 33 34  1  0
 34 35  1  0
 31  6  1  0
 35 32  1  0
 30  8  1  0
 28 13  1  0
 24 17  1  0
 26 19  1  0
  1 36  1  0
  1 37  1  0
  1 38  1  0
  3 39  1  0
  3 40  1  0
  3 41  1  0
  7 42  1  0
  9 43  1  0
 12 44  1  0
 14 45  1  0
 15 46  1  0
 18 47  1  0
 18 48  1  0
 19 49  1  6
 20 50  1  0
 20 51  1  0
 21 52  1  0
 21 53  1  0
 22 54  1  6
 23 55  1  0
 23 56  1  0
 26 57  1  0
 27 58  1  0
 32 59  1  0
 33 60  1  0
 33 61  1  0
 34 62  1  0
 34 63  1  0
 35 64  1  0
 35 65  1  0
M  END
$$$$
