@<TRIPOS>MOLECULE
*****
 65 70 0 0 0
SMALL
GASTEIGER

@<TRIPOS>ATOM
      1 C          -7.6953    0.2615   -1.6048 C.3     1  UNL1        0.0032
      2 N          -7.5648    1.3961   -0.7300 N.am    1  UNL1       -0.3024
      3 C          -8.7598    2.1247   -0.2718 C.3     1  UNL1        0.0032
      4 C          -6.2965    1.8150   -0.3069 C.2     1  UNL1        0.2627
      5 O          -6.2051    2.8132    0.4603 O.2     1  UNL1       -0.2684
      6 C          -5.0562    1.1327   -0.7243 C.ar    1  UNL1        0.1070
      7 C          -4.5452    1.1386   -2.0005 C.ar    1  UNL1       -0.0209
      8 C          -3.3940    0.3922   -1.9579 C.ar    1  UNL1        0.0378
      9 C          -2.4319    0.0163   -2.8868 C.ar    1  UNL1        0.0419
     10 N          -1.3986   -0.7442   -2.5128 N.ar    1  UNL1       -0.2219
     11 C          -1.2406   -1.1731   -1.2524 C.ar    1  UNL1        0.2224
     12 N          -0.1260   -2.0047   -0.8812 N.pl3   1  UNL1       -0.2684
     13 C           1.1465   -1.4960   -0.5133 C.ar    1  UNL1        0.1251
     14 C           2.1775   -2.3404   -0.1534 C.ar    1  UNL1       -0.0197
     15 C           3.4199   -1.8538    0.1972 C.ar    1  UNL1       -0.0355
     16 C           3.7141   -0.5053    0.2122 C.ar    1  UNL1        0.0545
     17 N           4.9751    0.0143    0.5991 N.am    1  UNL1       -0.2685
     18 C           5.3227    1.3944    0.2377 C.3     1  UNL1        0.0352
     19 C           6.7298    1.3927   -0.3701 C.3     1  UNL1        0.0241
     20 C           7.7202    1.6661    0.7182 C.3     1  UNL1       -0.0347
     21 C           8.8046    0.6260    0.4355 C.3     1  UNL1       -0.0356
     22 C           7.9468   -0.5550   -0.0255 C.3     1  UNL1        0.0162
     23 C           7.3084   -1.1362    1.1888 C.3     1  UNL1        0.0399
     24 C           5.8413   -0.8743    1.2893 C.2     1  UNL1        0.2213
     25 O           5.2177   -1.5745    2.1631 O.2     1  UNL1       -0.2752
     26 N           7.0022    0.0657   -0.9016 N.3     1  UNL1       -0.3086
     27 C           2.6505    0.3101   -0.1557 C.ar    1  UNL1        0.0511
     28 N           1.4370   -0.1890   -0.4970 N.ar    1  UNL1       -0.2383
     29 N          -2.1580   -0.8209   -0.3390 N.ar    1  UNL1       -0.1962
     30 C          -3.2014   -0.0649   -0.6737 C.ar    1  UNL1        0.1466
     31 N          -4.2308    0.4023    0.0578 N.ar    1  UNL1       -0.3180
     32 C          -4.4948    0.2068    1.4557 C.3     1  UNL1        0.0366
     33 C          -5.5687   -0.8761    1.6341 C.3     1  UNL1       -0.0320
     34 C          -4.4242   -1.8495    1.8594 C.3     1  UNL1       -0.0493
     35 C          -3.5764   -0.6522    2.2368 C.3     1  UNL1       -0.0320
     36 H          -8.3905    0.4671   -2.4464 H       1  UNL1        0.0428
     37 H          -8.1087   -0.6199   -1.0366 H       1  UNL1        0.0428
     38 H          -6.6954   -0.0402   -1.9496 H       1  UNL1        0.0428
     39 H          -9.1001    2.8637   -1.0125 H       1  UNL1        0.0428
     40 H          -9.5197    1.3614   -0.0275 H       1  UNL1        0.0428
     41 H          -8.4868    2.6713    0.6613 H       1  UNL1        0.0428
     42 H          -4.9187    1.6110   -2.8998 H       1  UNL1        0.0647
     43 H          -2.5766    0.3767   -3.9114 H       1  UNL1        0.0838
     44 H          -0.2902   -3.0320   -0.8914 H       1  UNL1        0.1564
     45 H           1.9692   -3.4023   -0.1581 H       1  UNL1        0.0652
     46 H           4.1787   -2.5743    0.4532 H       1  UNL1        0.0638
     47 H           5.2560    2.0900    1.0923 H       1  UNL1        0.0484
     48 H           4.6666    1.7665   -0.5797 H       1  UNL1        0.0484
     49 H           6.8038    2.0851   -1.2270 H       1  UNL1        0.0476
     50 H           7.3123    1.4102    1.7300 H       1  UNL1        0.0281
     51 H           8.1244    2.6981    0.6718 H       1  UNL1        0.0281
     52 H           9.4410    1.0092   -0.3704 H       1  UNL1        0.0281
     53 H           9.3420    0.3403    1.3465 H       1  UNL1        0.0281
     54 H           8.6280   -1.2608   -0.5483 H       1  UNL1        0.0465
     55 H           7.8185   -0.8573    2.1346 H       1  UNL1        0.0374
     56 H           7.4269   -2.2591    1.1366 H       1  UNL1        0.0374
     57 H           7.3182    0.0592   -1.8758 H       1  UNL1        0.1225
     58 H           2.8149    1.3944   -0.1544 H       1  UNL1        0.0849
     59 H          -4.7611    1.1782    1.9473 H       1  UNL1        0.0528
     60 H          -6.1366   -0.6664    2.5523 H       1  UNL1        0.0285
     61 H          -6.1517   -1.0680    0.7121 H       1  UNL1        0.0285
     62 H          -4.6172   -2.5684    2.6610 H       1  UNL1        0.0267
     63 H          -4.1620   -2.3497    0.9269 H       1  UNL1        0.0267
     64 H          -2.5203   -0.6913    1.9980 H       1  UNL1        0.0285
     65 H          -3.7109   -0.4510    3.3371 H       1  UNL1        0.0285
@<TRIPOS>BOND
     1     1     2    1
     2     2     3    1
     3     2     4   am
     4     4     5    2
     5     4     6    1
     6     6     7   ar
     7     7     8   ar
     8     8     9   ar
     9     9    10   ar
    10    10    11   ar
    11    11    12    1
    12    12    13    1
    13    13    14   ar
    14    14    15   ar
    15    15    16   ar
    16    16    17    1
    17    17    18    1
    18    18    19    1
    19    19    20    1
    20    20    21    1
    21    21    22    1
    22    22    23    1
    23    23    24    1
    24    24    25    2
    25    22    26    1
    26    16    27   ar
    27    27    28   ar
    28    11    29   ar
    29    29    30   ar
    30    30    31   ar
    31    31    32    1
    32    32    33    1
    33    33    34    1
    34    34    35    1
    35    31     6   ar
    36    35    32    1
    37    30     8   ar
    38    28    13   ar
    39    24    17   am
    40    26    19    1
    41     1    36    1
    42     1    37    1
    43     1    38    1
    44     3    39    1
    45     3    40    1
    46     3    41    1
    47     7    42    1
    48     9    43    1
    49    12    44    1
    50    14    45    1
    51    15    46    1
    52    18    47    1
    53    18    48    1
    54    19    49    1
    55    20    50    1
    56    20    51    1
    57    21    52    1
    58    21    53    1
    59    22    54    1
    60    23    55    1
    61    23    56    1
    62    26    57    1
    63    27    58    1
    64    32    59    1
    65    33    60    1
    66    33    61    1
    67    34    62    1
    68    34    63    1
    69    35    64    1
    70    35    65    1
