@<TRIPOS>MOLECULE
*****
 66 69 0 0 0
SMALL
GASTEIGER

@<TRIPOS>ATOM
      1 C          -0.0679   -2.5676   -0.8576 C.3     1  UNL1       -0.0421
      2 C           0.2423   -1.7474    0.3674 C.3     1  UNL1        0.0515
      3 C           1.6501   -1.2712    0.3594 C.ar    1  UNL1       -0.0271
      4 C           2.5041   -1.7845   -0.5932 C.ar    1  UNL1       -0.0562
      5 C           3.8430   -1.3787   -0.6546 C.ar    1  UNL1       -0.0537
      6 C           4.3413   -0.4573    0.2341 C.ar    1  UNL1       -0.0177
      7 C           5.7317   -0.0409    0.1576 C.ar    1  UNL1       -0.0114
      8 C           6.7312   -0.8819   -0.2729 C.ar    1  UNL1       -0.0374
      9 C           8.0452   -0.4097   -0.3126 C.ar    1  UNL1        0.0137
     10 N           8.3771    0.8333    0.0525 N.ar    1  UNL1       -0.2583
     11 C           9.7733    1.2901   -0.0033 C.3     1  UNL1        0.3223
     12 F          10.4764    0.3992   -0.8099 F       1  UNL1       -0.1846
     13 F          10.2550    1.3210    1.2792 F       1  UNL1       -0.1846
     14 C           7.4161    1.6579    0.4718 C.ar    1  UNL1        0.2560
     15 O           7.7787    2.8254    0.8073 O.2     1  UNL1       -0.2675
     16 C           6.1105    1.2355    0.5266 C.ar    1  UNL1        0.0108
     17 C           3.4547    0.0406    1.1811 C.ar    1  UNL1       -0.0537
     18 C           2.1375   -0.3551    1.2459 C.ar    1  UNL1       -0.0562
     19 N          -0.6920   -0.6522    0.5167 N.am    1  UNL1       -0.2605
     20 C          -1.5259   -0.5069    1.6577 C.3     1  UNL1        0.0224
     21 C          -2.8158    0.2540    1.4334 C.3     1  UNL1        0.0076
     22 C          -3.0677    0.6874    0.0397 C.3     1  UNL1        0.1440
     23 C          -4.0110    1.8370   -0.0252 C.3     1  UNL1        0.0199
     24 C          -5.3817    1.7069    0.4745 C.3     1  UNL1        0.0645
     25 C          -5.6085    1.3818    1.9130 C.3     1  UNL1       -0.0362
     26 C          -6.1049    3.0544    0.2258 C.3     1  UNL1       -0.0362
     27 O          -6.1568    0.7884   -0.2595 O.3     1  UNL1       -0.3890
     28 C          -3.4935   -0.4264   -0.8553 C.ar    1  UNL1       -0.0040
     29 C          -3.7039   -1.6964   -0.3803 C.ar    1  UNL1       -0.0548
     30 C          -4.0983   -2.7260   -1.2330 C.ar    1  UNL1       -0.0614
     31 C          -4.2906   -2.5017   -2.5838 C.ar    1  UNL1       -0.0617
     32 C          -4.0777   -1.2247   -3.0546 C.ar    1  UNL1       -0.0614
     33 C          -3.6881   -0.2148   -2.2029 C.ar    1  UNL1       -0.0548
     34 O          -1.8301    1.1850   -0.4888 O.3     1  UNL1       -0.4387
     35 C          -0.7622    0.3144   -0.5230 C.2     1  UNL1        0.4042
     36 O           0.1305    0.3622   -1.4385 O.2     1  UNL1       -0.2262
     37 H           0.5295   -3.5181   -0.7676 H       1  UNL1        0.0251
     38 H           0.2062   -2.0376   -1.7960 H       1  UNL1        0.0251
     39 H          -1.1229   -2.8735   -0.8359 H       1  UNL1        0.0251
     40 H           0.1464   -2.3866    1.2658 H       1  UNL1        0.0549
     41 H           2.2164   -2.5103   -1.3342 H       1  UNL1        0.0621
     42 H           4.5249   -1.7753   -1.3995 H       1  UNL1        0.0624
     43 H           6.5085   -1.8837   -0.5740 H       1  UNL1        0.0638
     44 H           8.8457   -1.0502   -0.6500 H       1  UNL1        0.0812
     45 H           9.8086    2.3181   -0.4148 H       1  UNL1        0.1281
     46 H           5.3696    1.9256    0.8672 H       1  UNL1        0.0678
     47 H           3.8255    0.7765    1.9007 H       1  UNL1        0.0624
     48 H           1.4731    0.0496    1.9933 H       1  UNL1        0.0621
     49 H          -1.7510   -1.5109    2.1028 H       1  UNL1        0.0467
     50 H          -0.8814   -0.0229    2.4534 H       1  UNL1        0.0467
     51 H          -2.6620    1.2154    2.0206 H       1  UNL1        0.0322
     52 H          -3.6675   -0.2451    1.9363 H       1  UNL1        0.0322
     53 H          -4.0889    2.2438   -1.0886 H       1  UNL1        0.0335
     54 H          -3.5581    2.7359    0.5075 H       1  UNL1        0.0335
     55 H          -4.8465    1.6992    2.6174 H       1  UNL1        0.0257
     56 H          -5.9132    0.2967    2.0447 H       1  UNL1        0.0257
     57 H          -6.5730    1.9069    2.2539 H       1  UNL1        0.0257
     58 H          -7.0008    3.1472    0.8395 H       1  UNL1        0.0257
     59 H          -6.3402    3.1638   -0.8618 H       1  UNL1        0.0257
     60 H          -5.4229    3.8913    0.4841 H       1  UNL1        0.0257
     61 H          -7.0715    0.8693    0.1233 H       1  UNL1        0.2101
     62 H          -3.5808   -1.9604    0.6583 H       1  UNL1        0.0622
     63 H          -4.2554   -3.7034   -0.8386 H       1  UNL1        0.0618
     64 H          -4.5984   -3.3311   -3.2129 H       1  UNL1        0.0618
     65 H          -4.2180   -1.0162   -4.1100 H       1  UNL1        0.0618
     66 H          -3.5236    0.7828   -2.5797 H       1  UNL1        0.0622
@<TRIPOS>BOND
     1     1     2    1
     2     2     3    1
     3     3     4   ar
     4     4     5   ar
     5     5     6   ar
     6     6     7    1
     7     7     8   ar
     8     8     9   ar
     9     9    10   ar
    10    10    11    1
    11    11    12    1
    12    11    13    1
    13    10    14   ar
    14    14    15    2
    15    14    16   ar
    16     6    17   ar
    17    17    18   ar
    18     2    19    1
    19    19    20    1
    20    20    21    1
    21    21    22    1
    22    22    23    1
    23    23    24    1
    24    24    25    1
    25    24    26    1
    26    24    27    1
    27    22    28    1
    28    28    29   ar
    29    29    30   ar
    30    30    31   ar
    31    31    32   ar
    32    32    33   ar
    33    22    34    1
    34    34    35    1
    35    35    36    2
    36    18     3   ar
    37    35    19   am
    38    16     7   ar
    39    33    28   ar
    40     1    37    1
    41     1    38    1
    42     1    39    1
    43     2    40    1
    44     4    41    1
    45     5    42    1
    46     8    43    1
    47     9    44    1
    48    11    45    1
    49    16    46    1
    50    17    47    1
    51    18    48    1
    52    20    49    1
    53    20    50    1
    54    21    51    1
    55    21    52    1
    56    23    53    1
    57    23    54    1
    58    25    55    1
    59    25    56    1
    60    25    57    1
    61    26    58    1
    62    26    59    1
    63    26    60    1
    64    27    61    1
    65    29    62    1
    66    30    63    1
    67    31    64    1
    68    32    65    1
    69    33    66    1
