@<TRIPOS>MOLECULE
*****
 31 32 0 0 0
SMALL
GASTEIGER

@<TRIPOS>ATOM
      1 C          -3.8749   -2.7202   -0.5775 C.3     1  UNL1        0.0788
      2 O          -2.7797   -1.8687   -0.4523 O.3     1  UNL1       -0.4945
      3 C          -2.7669   -0.5252   -0.7887 C.ar    1  UNL1        0.1272
      4 C          -3.9103    0.0936   -1.3014 C.ar    1  UNL1       -0.0194
      5 C          -3.9051    1.4298   -1.6383 C.ar    1  UNL1       -0.0583
      6 C          -2.7293    2.1225   -1.4479 C.ar    1  UNL1       -0.0610
      7 C          -1.5804    1.5088   -0.9348 C.ar    1  UNL1       -0.0511
      8 C          -1.5875    0.1734   -0.5987 C.ar    1  UNL1        0.0168
      9 C          -0.4391   -0.5364   -0.0614 C.2     1  UNL1       -0.0475
     10 C           0.7392    0.0136    0.1661 C.2     1  UNL1       -0.0136
     11 C           1.8466   -0.7827    0.7125 C.2     1  UNL1        0.1875
     12 O           1.6690   -2.0017    0.9660 O.2     1  UNL1       -0.2872
     13 C           3.1275   -0.1881    0.9606 C.ar    1  UNL1        0.0397
     14 C           3.3773    1.1359    0.7030 C.ar    1  UNL1       -0.0480
     15 C           4.6410    1.6941    0.9550 C.ar    1  UNL1       -0.0429
     16 C           5.6274    0.8793    1.4684 C.ar    1  UNL1        0.0276
     17 N           5.3772   -0.4157    1.7186 N.ar    1  UNL1       -0.2626
     18 C           4.1488   -0.9526    1.4722 C.ar    1  UNL1        0.0383
     19 H          -4.8421   -2.2497   -0.3713 H       1  UNL1        0.0660
     20 H          -3.7560   -3.5313    0.1933 H       1  UNL1        0.0660
     21 H          -3.8561   -3.2267   -1.5701 H       1  UNL1        0.0660
     22 H          -4.8033   -0.5036   -1.4280 H       1  UNL1        0.0654
     23 H          -4.7812    1.9237   -2.0361 H       1  UNL1        0.0619
     24 H          -2.7169    3.1762   -1.7110 H       1  UNL1        0.0618
     25 H          -0.6846    2.0973   -0.8051 H       1  UNL1        0.0625
     26 H          -0.5019   -1.5981    0.1881 H       1  UNL1        0.0626
     27 H           0.8428    1.0575   -0.0662 H       1  UNL1        0.0656
     28 H           2.6431    1.8187    0.3015 H       1  UNL1        0.0626
     29 H           4.8159    2.7393    0.7447 H       1  UNL1        0.0633
     30 H           6.6184    1.2436    1.6846 H       1  UNL1        0.0829
     31 H           4.0413   -2.0068    1.7058 H       1  UNL1        0.0837
@<TRIPOS>BOND
     1     1     2    1
     2     2     3    1
     3     3     4   ar
     4     4     5   ar
     5     5     6   ar
     6     6     7   ar
     7     7     8   ar
     8     8     9    1
     9     9    10    2
    10    10    11    1
    11    11    12    2
    12    11    13    1
    13    13    14   ar
    14    14    15   ar
    15    15    16   ar
    16    16    17   ar
    17    17    18   ar
    18     8     3   ar
    19    18    13   ar
    20     1    19    1
    21     1    20    1
    22     1    21    1
    23     4    22    1
    24     5    23    1
    25     6    24    1
    26     7    25    1
    27     9    26    1
    28    10    27    1
    29    14    28    1
    30    15    29    1
    31    16    30    1
    32    18    31    1
