@<TRIPOS>MOLECULE
*****
 64 64 0 0 0
SMALL
GASTEIGER

@<TRIPOS>ATOM
      1 C           7.0439   -2.1467   -1.2893 C.3     1  UNL1       -0.0653
      2 C           7.6744   -0.9309   -0.6526 C.3     1  UNL1       -0.0559
      3 C           7.4999   -1.0107    0.8477 C.3     1  UNL1       -0.0533
      4 C           6.0512   -1.0585    1.2235 C.3     1  UNL1       -0.0531
      5 C           5.2664    0.1520    0.7671 C.3     1  UNL1       -0.0530
      6 C           3.8343   -0.0415    1.2220 C.3     1  UNL1       -0.0510
      7 C           2.9467    1.1169    0.8205 C.3     1  UNL1       -0.0295
      8 C           2.9185    1.2890   -0.6877 C.3     1  UNL1        0.0477
      9 O           2.1356    2.3161   -1.1073 O.3     1  UNL1       -0.3798
     10 C           0.8237    2.3062   -0.8091 C.3     1  UNL1        0.0477
     11 C           0.0287    1.1481   -1.3175 C.3     1  UNL1       -0.0294
     12 C          -1.4327    1.2310   -0.9375 C.3     1  UNL1       -0.0498
     13 C          -1.6496    1.2624    0.5562 C.3     1  UNL1       -0.0401
     14 C          -3.1365    1.3403    0.8239 C.3     1  UNL1       -0.0006
     15 N          -3.8633    0.2235    0.2935 N.3     1  UNL1       -0.2923
     16 C          -3.5861   -1.0211    0.9431 C.3     1  UNL1        0.0279
     17 C          -4.8043   -1.8749    1.1788 C.3     1  UNL1        0.0962
     18 O          -4.3542   -3.1729    1.4169 O.3     1  UNL1       -0.3879
     19 C          -5.7404   -1.9228    0.0156 C.3     1  UNL1        0.1095
     20 O          -7.0290   -2.1526    0.5305 O.3     1  UNL1       -0.3866
     21 C          -5.7835   -0.6680   -0.7842 C.3     1  UNL1        0.1011
     22 O          -4.9027   -0.8036   -1.8655 O.3     1  UNL1       -0.3875
     23 C          -5.2502    0.4582    0.1167 C.3     1  UNL1        0.0621
     24 C          -5.6553    1.7303   -0.5215 C.3     1  UNL1        0.0622
     25 O          -7.0715    1.7447   -0.6023 O.3     1  UNL1       -0.3934
     26 H           7.1783   -3.0583   -0.6690 H       1  UNL1        0.0230
     27 H           7.5764   -2.3250   -2.2690 H       1  UNL1        0.0230
     28 H           5.9786   -2.0289   -1.4950 H       1  UNL1        0.0230
     29 H           8.7613   -0.8964   -0.9028 H       1  UNL1        0.0263
     30 H           7.1583   -0.0207   -1.0079 H       1  UNL1        0.0263
     31 H           7.9444   -1.9818    1.2010 H       1  UNL1        0.0265
     32 H           8.0340   -0.1654    1.3294 H       1  UNL1        0.0265
     33 H           5.6136   -1.9641    0.7178 H       1  UNL1        0.0265
     34 H           5.9132   -1.2438    2.3035 H       1  UNL1        0.0265
     35 H           5.2405    0.0955   -0.3555 H       1  UNL1        0.0265
     36 H           5.6786    1.0873    1.1408 H       1  UNL1        0.0265
     37 H           3.4243   -0.9931    0.8469 H       1  UNL1        0.0266
     38 H           3.8545   -0.0412    2.3433 H       1  UNL1        0.0266
     39 H           3.3217    2.0219    1.3175 H       1  UNL1        0.0287
     40 H           1.9271    0.8611    1.2165 H       1  UNL1        0.0287
     41 H           2.7469    0.3227   -1.2049 H       1  UNL1        0.0560
     42 H           3.9815    1.5679   -0.9649 H       1  UNL1        0.0560
     43 H           0.3641    3.2522   -1.1631 H       1  UNL1        0.0560
     44 H           0.7169    2.3138    0.3071 H       1  UNL1        0.0560
     45 H           0.0582    1.0265   -2.4131 H       1  UNL1        0.0287
     46 H           0.4202    0.2269   -0.8006 H       1  UNL1        0.0287
     47 H          -1.9279    0.3574   -1.4222 H       1  UNL1        0.0266
     48 H          -1.9096    2.1380   -1.3805 H       1  UNL1        0.0266
     49 H          -1.2233    2.2242    0.9164 H       1  UNL1        0.0278
     50 H          -1.1365    0.4638    1.0892 H       1  UNL1        0.0278
     51 H          -3.3366    1.5304    1.8970 H       1  UNL1        0.0427
     52 H          -3.4586    2.2537    0.2745 H       1  UNL1        0.0427
     53 H          -2.8931   -1.6042    0.3007 H       1  UNL1        0.0453
     54 H          -3.0933   -0.9178    1.9320 H       1  UNL1        0.0453
     55 H          -5.2974   -1.5404    2.1172 H       1  UNL1        0.0633
     56 H          -4.5206   -3.7946    0.6769 H       1  UNL1        0.2099
     57 H          -5.5403   -2.8036   -0.6564 H       1  UNL1        0.0646
     58 H          -7.6018   -1.3574    0.4375 H       1  UNL1        0.2100
     59 H          -6.8117   -0.4630   -1.1090 H       1  UNL1        0.0636
     60 H          -5.3133   -1.3436   -2.5829 H       1  UNL1        0.2100
     61 H          -5.7940    0.3619    1.1024 H       1  UNL1        0.0511
     62 H          -5.4124    2.6561    0.0304 H       1  UNL1        0.0573
     63 H          -5.2998    1.8350   -1.5662 H       1  UNL1        0.0573
     64 H          -7.2861    2.4323   -1.2811 H       1  UNL1        0.2095
@<TRIPOS>BOND
     1     1     2    1
     2     2     3    1
     3     3     4    1
     4     4     5    1
     5     5     6    1
     6     6     7    1
     7     7     8    1
     8     8     9    1
     9     9    10    1
    10    10    11    1
    11    11    12    1
    12    12    13    1
    13    13    14    1
    14    14    15    1
    15    15    16    1
    16    16    17    1
    17    17    18    1
    18    17    19    1
    19    19    20    1
    20    19    21    1
    21    21    22    1
    22    21    23    1
    23    23    24    1
    24    24    25    1
    25    23    15    1
    26     1    26    1
    27     1    27    1
    28     1    28    1
    29     2    29    1
    30     2    30    1
    31     3    31    1
    32     3    32    1
    33     4    33    1
    34     4    34    1
    35     5    35    1
    36     5    36    1
    37     6    37    1
    38     6    38    1
    39     7    39    1
    40     7    40    1
    41     8    41    1
    42     8    42    1
    43    10    43    1
    44    10    44    1
    45    11    45    1
    46    11    46    1
    47    12    47    1
    48    12    48    1
    49    13    49    1
    50    13    50    1
    51    14    51    1
    52    14    52    1
    53    16    53    1
    54    16    54    1
    55    17    55    1
    56    18    56    1
    57    19    57    1
    58    20    58    1
    59    21    59    1
    60    22    60    1
    61    23    61    1
    62    24    62    1
    63    24    63    1
    64    25    64    1
