@<TRIPOS>MOLECULE
*****
 49 51 0 0 0
SMALL
GASTEIGER

@<TRIPOS>ATOM
      1 C           3.8531    0.0691    2.0062 C.3     1  UNL1        0.0365
      2 O           3.4447    1.0735    1.1842 O.3     1  UNL1       -0.3811
      3 C           3.7582    1.0503   -0.1124 C.3     1  UNL1        0.0658
      4 C           3.3457   -0.1029   -0.9632 C.3     1  UNL1        0.0482
      5 C           4.1446   -1.3436   -0.8486 C.3     1  UNL1       -0.0308
      6 C           3.0683   -2.4420   -0.8556 C.3     1  UNL1       -0.0354
      7 C           1.9484   -1.7650   -1.6803 C.3     1  UNL1        0.0139
      8 N           1.9775   -0.4633   -0.9780 N.pl3   1  UNL1       -0.3098
      9 C           0.7710    0.0940   -0.4970 C.ar    1  UNL1        0.1287
     10 C           0.6085    1.4166   -0.1551 C.ar    1  UNL1        0.0186
     11 C          -0.6093    1.8733    0.3237 C.ar    1  UNL1        0.1320
     12 N          -0.8154    3.2336    0.6878 N.am    1  UNL1       -0.2704
     13 C          -1.2694    4.1448   -0.2763 C.2     1  UNL1        0.2152
     14 C          -1.5203    5.5831   -0.0178 C.3     1  UNL1        0.0125
     15 O          -1.4853    3.7297   -1.4533 O.2     1  UNL1       -0.2757
     16 N          -1.6790    1.0495    0.4739 N.ar    1  UNL1       -0.1954
     17 C          -1.5125   -0.2409    0.1375 C.ar    1  UNL1        0.2549
     18 N          -2.6334   -1.1042    0.2947 N.ar    1  UNL1       -0.2024
     19 N          -3.0586   -1.6727    1.4347 N.ar    1  UNL1       -0.1689
     20 C          -4.1511   -2.4284    1.2042 C.ar    1  UNL1        0.0607
     21 C          -4.9384   -3.2281    2.1815 C.3     1  UNL1       -0.0206
     22 C          -4.4502   -2.3495   -0.1398 C.ar    1  UNL1       -0.0178
     23 C          -3.4836   -1.5192   -0.6603 C.ar    1  UNL1        0.0453
     24 C          -3.3838   -1.1275   -2.0857 C.3     1  UNL1       -0.0221
     25 N          -0.3387   -0.6729   -0.3221 N.ar    1  UNL1       -0.1956
     26 H           3.4535   -0.9409    1.7839 H       1  UNL1        0.0523
     27 H           3.5074    0.2710    3.0572 H       1  UNL1        0.0523
     28 H           4.9718   -0.0676    2.0085 H       1  UNL1        0.0523
     29 H           4.9240    0.9783   -0.1360 H       1  UNL1        0.0578
     30 H           3.6364    2.0548   -0.6179 H       1  UNL1        0.0578
     31 H           3.5271    0.2259   -2.0838 H       1  UNL1        0.0523
     32 H           4.7356   -1.5684   -1.7836 H       1  UNL1        0.0284
     33 H           4.8041   -1.3937    0.0280 H       1  UNL1        0.0284
     34 H           2.6746   -2.5233    0.1680 H       1  UNL1        0.0281
     35 H           3.4130   -3.3656   -1.3155 H       1  UNL1        0.0281
     36 H           1.0141   -2.3038   -1.5463 H       1  UNL1        0.0464
     37 H           2.2539   -1.6180   -2.7198 H       1  UNL1        0.0464
     38 H           1.3908    2.1437   -0.2466 H       1  UNL1        0.0686
     39 H          -0.6345    3.5650    1.6599 H       1  UNL1        0.1562
     40 H          -0.7764    6.1602   -0.5939 H       1  UNL1        0.0323
     41 H          -1.3902    5.8362    1.0504 H       1  UNL1        0.0323
     42 H          -2.5239    5.8593   -0.3601 H       1  UNL1        0.0323
     43 H          -6.0090   -3.2896    1.9235 H       1  UNL1        0.0293
     44 H          -4.5037   -4.2539    2.1991 H       1  UNL1        0.0293
     45 H          -4.8750   -2.7320    3.1767 H       1  UNL1        0.0293
     46 H          -5.2793   -2.8576   -0.6079 H       1  UNL1        0.0654
     47 H          -2.3098   -1.2211   -2.4044 H       1  UNL1        0.0293
     48 H          -3.6257   -0.0494   -2.1943 H       1  UNL1        0.0293
     49 H          -3.9698   -1.7670   -2.7588 H       1  UNL1        0.0293
@<TRIPOS>BOND
     1     1     2    1
     2     2     3    1
     3     3     4    1
     4     4     5    1
     5     5     6    1
     6     6     7    1
     7     7     8    1
     8     8     9    1
     9     9    10   ar
    10    10    11   ar
    11    11    12    1
    12    12    13   am
    13    13    14    1
    14    13    15    2
    15    11    16   ar
    16    16    17   ar
    17    17    18    1
    18    18    19   ar
    19    19    20   ar
    20    20    21    1
    21    20    22   ar
    22    22    23   ar
    23    23    24    1
    24    17    25   ar
    25     8     4    1
    26    25     9   ar
    27    23    18   ar
    28     1    26    1
    29     1    27    1
    30     1    28    1
    31     3    29    1
    32     3    30    1
    33     4    31    1
    34     5    32    1
    35     5    33    1
    36     6    34    1
    37     6    35    1
    38     7    36    1
    39     7    37    1
    40    10    38    1
    41    12    39    1
    42    14    40    1
    43    14    41    1
    44    14    42    1
    45    21    43    1
    46    21    44    1
    47    21    45    1
    48    22    46    1
    49    24    47    1
    50    24    48    1
    51    24    49    1
