
     RDKit          3D

 49 51  0  0  0  0  0  0  0  0999 V2000
    3.8531    0.0691    2.0062 C   0  0  0  0  0  0  0  0  0  0  0  0
    3.4447    1.0735    1.1842 O   0  0  0  0  0  0  0  0  0  0  0  0
    3.7582    1.0503   -0.1124 C   0  0  0  0  0  0  0  0  0  0  0  0
    3.3457   -0.1029   -0.9632 C   0  0  1  0  0  0  0  0  0  0  0  0
    4.1446   -1.3436   -0.8486 C   0  0  0  0  0  0  0  0  0  0  0  0
    3.0683   -2.4420   -0.8556 C   0  0  0  0  0  0  0  0  0  0  0  0
    1.9484   -1.7650   -1.6803 C   0  0  0  0  0  0  0  0  0  0  0  0
    1.9775   -0.4633   -0.9780 N   0  0  0  0  0  0  0  0  0  0  0  0
    0.7710    0.0940   -0.4970 C   0  0  0  0  0  0  0  0  0  0  0  0
    0.6085    1.4166   -0.1551 C   0  0  0  0  0  0  0  0  0  0  0  0
   -0.6093    1.8733    0.3237 C   0  0  0  0  0  0  0  0  0  0  0  0
   -0.8154    3.2336    0.6878 N   0  0  0  0  0  0  0  0  0  0  0  0
   -1.2694    4.1448   -0.2763 C   0  0  0  0  0  0  0  0  0  0  0  0
   -1.5203    5.5831   -0.0178 C   0  0  0  0  0  0  0  0  0  0  0  0
   -1.4853    3.7297   -1.4533 O   0  0  0  0  0  0  0  0  0  0  0  0
   -1.6790    1.0495    0.4739 N   0  0  0  0  0  0  0  0  0  0  0  0
   -1.5125   -0.2409    0.1375 C   0  0  0  0  0  0  0  0  0  0  0  0
   -2.6334   -1.1042    0.2947 N   0  0  0  0  0  0  0  0  0  0  0  0
   -3.0586   -1.6727    1.4347 N   0  0  0  0  0  0  0  0  0  0  0  0
   -4.1511   -2.4284    1.2042 C   0  0  0  0  0  0  0  0  0  0  0  0
   -4.9384   -3.2281    2.1815 C   0  0  0  0  0  0  0  0  0  0  0  0
   -4.4502   -2.3495   -0.1398 C   0  0  0  0  0  0  0  0  0  0  0  0
   -3.4836   -1.5192   -0.6603 C   0  0  0  0  0  0  0  0  0  0  0  0
   -3.3838   -1.1275   -2.0857 C   0  0  0  0  0  0  0  0  0  0  0  0
   -0.3387   -0.6729   -0.3221 N   0  0  0  0  0  0  0  0  0  0  0  0
    3.4535   -0.9409    1.7839 H   0  0  0  0  0  0  0  0  0  0  0  0
    3.5074    0.2710    3.0572 H   0  0  0  0  0  0  0  0  0  0  0  0
    4.9718   -0.0676    2.0085 H   0  0  0  0  0  0  0  0  0  0  0  0
    4.9240    0.9783   -0.1360 H   0  0  0  0  0  0  0  0  0  0  0  0
    3.6364    2.0548   -0.6179 H   0  0  0  0  0  0  0  0  0  0  0  0
    3.5271    0.2259   -2.0838 H   0  0  0  0  0  0  0  0  0  0  0  0
    4.7356   -1.5684   -1.7836 H   0  0  0  0  0  0  0  0  0  0  0  0
    4.8041   -1.3937    0.0280 H   0  0  0  0  0  0  0  0  0  0  0  0
    2.6746   -2.5233    0.1680 H   0  0  0  0  0  0  0  0  0  0  0  0
    3.4130   -3.3656   -1.3155 H   0  0  0  0  0  0  0  0  0  0  0  0
    1.0141   -2.3038   -1.5463 H   0  0  0  0  0  0  0  0  0  0  0  0
    2.2539   -1.6180   -2.7198 H   0  0  0  0  0  0  0  0  0  0  0  0
    1.3908    2.1437   -0.2466 H   0  0  0  0  0  0  0  0  0  0  0  0
   -0.6345    3.5650    1.6599 H   0  0  0  0  0  0  0  0  0  0  0  0
   -0.7764    6.1602   -0.5939 H   0  0  0  0  0  0  0  0  0  0  0  0
   -1.3902    5.8362    1.0504 H   0  0  0  0  0  0  0  0  0  0  0  0
   -2.5239    5.8593   -0.3601 H   0  0  0  0  0  0  0  0  0  0  0  0
   -6.0090   -3.2896    1.9235 H   0  0  0  0  0  0  0  0  0  0  0  0
   -4.5037   -4.2539    2.1991 H   0  0  0  0  0  0  0  0  0  0  0  0
   -4.8750   -2.7320    3.1767 H   0  0  0  0  0  0  0  0  0  0  0  0
   -5.2793   -2.8576   -0.6079 H   0  0  0  0  0  0  0  0  0  0  0  0
   -2.3098   -1.2211   -2.4044 H   0  0  0  0  0  0  0  0  0  0  0  0
   -3.6257   -0.0494   -2.1943 H   0  0  0  0  0  0  0  0  0  0  0  0
   -3.9698   -1.7670   -2.7588 H   0  0  0  0  0  0  0  0  0  0  0  0
  1  2  1  0
  2  3  1  0
  3  4  1  0
  4  5  1  0
  5  6  1  0
  6  7  1  0
  7  8  1  0
  8  9  1  0
  9 10  2  0
 10 11  1  0
 11 12  1  0
 12 13  1  0
 13 14  1  0
 13 15  2  0
 11 16  2  0
 16 17  1  0
 17 18  1  0
 18 19  1  0
 19 20  2  0
 20 21  1  0
 20 22  1  0
 22 23  2  0
 23 24  1  0
 17 25  2  0
  8  4  1  0
 25  9  1  0
 23 18  1  0
  1 26  1  0
  1 27  1  0
  1 28  1  0
  3 29  1  0
  3 30  1  0
  4 31  1  6
  5 32  1  0
  5 33  1  0
  6 34  1  0
  6 35  1  0
  7 36  1  0
  7 37  1  0
 10 38  1  0
 12 39  1  0
 14 40  1  0
 14 41  1  0
 14 42  1  0
 21 43  1  0
 21 44  1  0
 21 45  1  0
 22 46  1  0
 24 47  1  0
 24 48  1  0
 24 49  1  0
M  END
$$$$
