@<TRIPOS>MOLECULE
*****
 47 50 0 0 0
SMALL
GASTEIGER

@<TRIPOS>ATOM
      1 C           5.5773    0.9708   -1.2978 C.3     1  UNL1        0.0376
      2 O           4.9294   -0.2191   -1.2303 O.3     1  UNL1       -0.3725
      3 C           4.3071   -0.5596   -0.0600 C.3     1  UNL1        0.0898
      4 C           3.6541   -1.9357   -0.3484 C.3     1  UNL1       -0.0318
      5 C           5.2374   -0.7727    1.0979 C.3     1  UNL1       -0.0318
      6 C           3.2537    0.3923    0.3408 C.ar    1  UNL1        0.0023
      7 C           3.5006    1.6171    0.9139 C.ar    1  UNL1        0.0335
      8 N           2.5115    2.4630    1.2469 N.ar    1  UNL1       -0.2623
      9 C           1.2189    2.1624    1.0403 C.ar    1  UNL1        0.0353
     10 C           0.9107    0.9361    0.4640 C.ar    1  UNL1        0.0006
     11 C          -0.5024    0.6608    0.2620 C.ar    1  UNL1       -0.0160
     12 C          -1.3755    1.6738   -0.0051 C.ar    1  UNL1       -0.0520
     13 C          -2.7433    1.4291   -0.2024 C.ar    1  UNL1       -0.0369
     14 C          -3.1945    0.1500   -0.1230 C.ar    1  UNL1        0.0526
     15 C          -2.3274   -0.9157    0.1473 C.ar    1  UNL1       -0.0225
     16 C          -0.9761   -0.6195    0.3369 C.ar    1  UNL1       -0.0488
     17 C          -2.7594   -2.3296    0.1844 C.3     1  UNL1       -0.0188
     18 C          -4.2117   -2.5235    0.3082 C.3     1  UNL1        0.0118
     19 C          -5.0408   -1.3786   -0.1046 C.ar    1  UNL1        0.1383
     20 N          -6.3943   -1.3502   -0.3511 N.ar    1  UNL1       -0.1340
     21 N          -6.7122   -0.1250   -0.6292 N.ar    1  UNL1       -0.1343
     22 C          -5.6000    0.6860   -0.5783 C.ar    1  UNL1        0.1348
     23 C          -5.6865    2.1132   -0.8553 C.3     1  UNL1       -0.0041
     24 N          -4.5936   -0.1381   -0.2515 N.ar    1  UNL1       -0.2829
     25 C           1.9093    0.0691    0.1216 C.ar    1  UNL1       -0.0452
     26 H           4.8772    1.8018   -1.1511 H       1  UNL1        0.0524
     27 H           6.4225    1.0173   -0.5736 H       1  UNL1        0.0524
     28 H           6.0208    1.0566   -2.3207 H       1  UNL1        0.0524
     29 H           3.0435   -2.2625    0.4980 H       1  UNL1        0.0261
     30 H           3.1390   -1.8926   -1.3113 H       1  UNL1        0.0261
     31 H           4.5052   -2.6587   -0.4383 H       1  UNL1        0.0261
     32 H           4.6302   -0.9974    1.9867 H       1  UNL1        0.0261
     33 H           5.9420    0.0619    1.2437 H       1  UNL1        0.0261
     34 H           5.8526   -1.6820    0.8950 H       1  UNL1        0.0261
     35 H           4.5073    1.9387    1.1316 H       1  UNL1        0.0833
     36 H           0.4428    2.8660    1.3199 H       1  UNL1        0.0836
     37 H          -1.0800    2.7150   -0.0819 H       1  UNL1        0.0624
     38 H          -3.4000    2.2360   -0.4049 H       1  UNL1        0.0638
     39 H          -0.3293   -1.4632    0.5459 H       1  UNL1        0.0627
     40 H          -2.2136   -2.8050    1.0477 H       1  UNL1        0.0318
     41 H          -2.4298   -2.8753   -0.7423 H       1  UNL1        0.0318
     42 H          -4.5359   -3.4543   -0.2467 H       1  UNL1        0.0347
     43 H          -4.4836   -2.7876    1.3935 H       1  UNL1        0.0347
     44 H          -6.7707    2.3624   -1.1360 H       1  UNL1        0.0308
     45 H          -5.5467    2.7803    0.0213 H       1  UNL1        0.0308
     46 H          -5.1663    2.4557   -1.7851 H       1  UNL1        0.0308
     47 H           1.6805   -0.8695   -0.3189 H       1  UNL1        0.0628
@<TRIPOS>BOND
     1     1     2    1
     2     2     3    1
     3     3     4    1
     4     3     5    1
     5     3     6    1
     6     6     7   ar
     7     7     8   ar
     8     8     9   ar
     9     9    10   ar
    10    10    11    1
    11    11    12   ar
    12    12    13   ar
    13    13    14   ar
    14    14    15   ar
    15    15    16   ar
    16    15    17    1
    17    17    18    1
    18    18    19    1
    19    19    20   ar
    20    20    21   ar
    21    21    22   ar
    22    22    23    1
    23    22    24   ar
    24    10    25   ar
    25    25     6   ar
    26    16    11   ar
    27    24    19   ar
    28    24    14    1
    29     1    26    1
    30     1    27    1
    31     1    28    1
    32     4    29    1
    33     4    30    1
    34     4    31    1
    35     5    32    1
    36     5    33    1
    37     5    34    1
    38     7    35    1
    39     9    36    1
    40    12    37    1
    41    13    38    1
    42    16    39    1
    43    17    40    1
    44    17    41    1
    45    18    42    1
    46    18    43    1
    47    23    44    1
    48    23    45    1
    49    23    46    1
    50    25    47    1
