
     RDKit          3D

 47 50  0  0  0  0  0  0  0  0999 V2000
    5.5773    0.9708   -1.2978 C   0  0  0  0  0  0  0  0  0  0  0  0
    4.9294   -0.2191   -1.2303 O   0  0  0  0  0  0  0  0  0  0  0  0
    4.3071   -0.5596   -0.0600 C   0  0  0  0  0  0  0  0  0  0  0  0
    3.6541   -1.9357   -0.3484 C   0  0  0  0  0  0  0  0  0  0  0  0
    5.2374   -0.7727    1.0979 C   0  0  0  0  0  0  0  0  0  0  0  0
    3.2537    0.3923    0.3408 C   0  0  0  0  0  0  0  0  0  0  0  0
    3.5006    1.6171    0.9139 C   0  0  0  0  0  0  0  0  0  0  0  0
    2.5115    2.4630    1.2469 N   0  0  0  0  0  0  0  0  0  0  0  0
    1.2189    2.1624    1.0403 C   0  0  0  0  0  0  0  0  0  0  0  0
    0.9107    0.9361    0.4640 C   0  0  0  0  0  0  0  0  0  0  0  0
   -0.5024    0.6608    0.2620 C   0  0  0  0  0  0  0  0  0  0  0  0
   -1.3755    1.6738   -0.0051 C   0  0  0  0  0  0  0  0  0  0  0  0
   -2.7433    1.4291   -0.2024 C   0  0  0  0  0  0  0  0  0  0  0  0
   -3.1945    0.1500   -0.1230 C   0  0  0  0  0  0  0  0  0  0  0  0
   -2.3274   -0.9157    0.1473 C   0  0  0  0  0  0  0  0  0  0  0  0
   -0.9761   -0.6195    0.3369 C   0  0  0  0  0  0  0  0  0  0  0  0
   -2.7594   -2.3296    0.1844 C   0  0  0  0  0  0  0  0  0  0  0  0
   -4.2117   -2.5235    0.3082 C   0  0  0  0  0  0  0  0  0  0  0  0
   -5.0408   -1.3786   -0.1046 C   0  0  0  0  0  0  0  0  0  0  0  0
   -6.3943   -1.3502   -0.3511 N   0  0  0  0  0  0  0  0  0  0  0  0
   -6.7122   -0.1250   -0.6292 N   0  0  0  0  0  0  0  0  0  0  0  0
   -5.6000    0.6860   -0.5783 C   0  0  0  0  0  0  0  0  0  0  0  0
   -5.6865    2.1132   -0.8553 C   0  0  0  0  0  0  0  0  0  0  0  0
   -4.5936   -0.1381   -0.2515 N   0  0  0  0  0  0  0  0  0  0  0  0
    1.9093    0.0691    0.1216 C   0  0  0  0  0  0  0  0  0  0  0  0
    4.8772    1.8018   -1.1511 H   0  0  0  0  0  0  0  0  0  0  0  0
    6.4225    1.0173   -0.5736 H   0  0  0  0  0  0  0  0  0  0  0  0
    6.0208    1.0566   -2.3207 H   0  0  0  0  0  0  0  0  0  0  0  0
    3.0435   -2.2625    0.4980 H   0  0  0  0  0  0  0  0  0  0  0  0
    3.1390   -1.8926   -1.3113 H   0  0  0  0  0  0  0  0  0  0  0  0
    4.5052   -2.6587   -0.4383 H   0  0  0  0  0  0  0  0  0  0  0  0
    4.6302   -0.9974    1.9867 H   0  0  0  0  0  0  0  0  0  0  0  0
    5.9420    0.0619    1.2437 H   0  0  0  0  0  0  0  0  0  0  0  0
    5.8526   -1.6820    0.8950 H   0  0  0  0  0  0  0  0  0  0  0  0
    4.5073    1.9387    1.1316 H   0  0  0  0  0  0  0  0  0  0  0  0
    0.4428    2.8660    1.3199 H   0  0  0  0  0  0  0  0  0  0  0  0
   -1.0800    2.7150   -0.0819 H   0  0  0  0  0  0  0  0  0  0  0  0
   -3.4000    2.2360   -0.4049 H   0  0  0  0  0  0  0  0  0  0  0  0
   -0.3293   -1.4632    0.5459 H   0  0  0  0  0  0  0  0  0  0  0  0
   -2.2136   -2.8050    1.0477 H   0  0  0  0  0  0  0  0  0  0  0  0
   -2.4298   -2.8753   -0.7423 H   0  0  0  0  0  0  0  0  0  0  0  0
   -4.5359   -3.4543   -0.2467 H   0  0  0  0  0  0  0  0  0  0  0  0
   -4.4836   -2.7876    1.3935 H   0  0  0  0  0  0  0  0  0  0  0  0
   -6.7707    2.3624   -1.1360 H   0  0  0  0  0  0  0  0  0  0  0  0
   -5.5467    2.7803    0.0213 H   0  0  0  0  0  0  0  0  0  0  0  0
   -5.1663    2.4557   -1.7851 H   0  0  0  0  0  0  0  0  0  0  0  0
    1.6805   -0.8695   -0.3189 H   0  0  0  0  0  0  0  0  0  0  0  0
  1  2  1  0
  2  3  1  0
  3  4  1  0
  3  5  1  0
  3  6  1  0
  6  7  2  0
  7  8  1  0
  8  9  2  0
  9 10  1  0
 10 11  1  0
 11 12  2  0
 12 13  1  0
 13 14  2  0
 14 15  1  0
 15 16  2  0
 15 17  1  0
 17 18  1  0
 18 19  1  0
 19 20  2  0
 20 21  1  0
 21 22  2  0
 22 23  1  0
 22 24  1  0
 10 25  2  0
 25  6  1  0
 16 11  1  0
 24 19  1  0
 24 14  1  0
  1 26  1  0
  1 27  1  0
  1 28  1  0
  4 29  1  0
  4 30  1  0
  4 31  1  0
  5 32  1  0
  5 33  1  0
  5 34  1  0
  7 35  1  0
  9 36  1  0
 12 37  1  0
 13 38  1  0
 16 39  1  0
 17 40  1  0
 17 41  1  0
 18 42  1  0
 18 43  1  0
 23 44  1  0
 23 45  1  0
 23 46  1  0
 25 47  1  0
M  END
$$$$
