@<TRIPOS>MOLECULE
*****
 26 28 0 0 0
SMALL
GASTEIGER

@<TRIPOS>ATOM
      1 N           4.5635    0.5500    0.3597 N.pl3   1  UNL1       -0.3417
      2 C           3.1534    0.5016    0.2369 C.ar    1  UNL1        0.1389
      3 N           2.5313    1.6810    0.0123 N.ar    1  UNL1       -0.1340
      4 N           1.2092    1.7546   -0.1198 N.ar    1  UNL1       -0.1472
      5 C           0.5142    0.6123   -0.0216 C.ar    1  UNL1        0.0969
      6 C           1.0743   -0.6124    0.2038 C.ar    1  UNL1       -0.0161
      7 C           0.3510   -1.8979    0.3197 C.3     1  UNL1       -0.0215
      8 C          -1.1139   -1.8140    0.1730 C.3     1  UNL1       -0.0230
      9 C          -1.6779   -0.4765   -0.0687 C.ar    1  UNL1       -0.0378
     10 C          -3.0502   -0.4093   -0.2044 C.ar    1  UNL1       -0.0579
     11 C          -3.6761    0.8068   -0.4346 C.ar    1  UNL1       -0.0615
     12 C          -2.9437    1.9804   -0.5338 C.ar    1  UNL1       -0.0611
     13 C          -1.5632    1.8780   -0.3923 C.ar    1  UNL1       -0.0522
     14 C          -0.9394    0.6676   -0.1632 C.ar    1  UNL1        0.0056
     15 C           2.4557   -0.6780    0.3402 C.ar    1  UNL1       -0.0151
     16 H           5.1360    1.3236   -0.0427 H       1  UNL1        0.1438
     17 H           5.2504   -0.0683    0.8046 H       1  UNL1        0.1438
     18 H           0.5971   -2.2991    1.3469 H       1  UNL1        0.0317
     19 H           0.8484   -2.5994   -0.3833 H       1  UNL1        0.0317
     20 H          -1.4036   -2.4425   -0.7184 H       1  UNL1        0.0317
     21 H          -1.6527   -2.2798    1.0336 H       1  UNL1        0.0317
     22 H          -3.6769   -1.2806   -0.1384 H       1  UNL1        0.0620
     23 H          -4.7485    0.9259   -0.5501 H       1  UNL1        0.0618
     24 H          -3.3584    2.9668   -0.7119 H       1  UNL1        0.0618
     25 H          -0.9398    2.7655   -0.4610 H       1  UNL1        0.0624
     26 H           3.0596   -1.5561    0.5204 H       1  UNL1        0.0656
@<TRIPOS>BOND
     1     1     2    1
     2     2     3   ar
     3     3     4   ar
     4     4     5   ar
     5     5     6   ar
     6     6     7    1
     7     7     8    1
     8     8     9    1
     9     9    10   ar
    10    10    11   ar
    11    11    12   ar
    12    12    13   ar
    13    13    14   ar
    14     6    15   ar
    15    15     2   ar
    16    14     5    1
    17    14     9   ar
    18     1    16    1
    19     1    17    1
    20     7    18    1
    21     7    19    1
    22     8    20    1
    23     8    21    1
    24    10    22    1
    25    11    23    1
    26    12    24    1
    27    13    25    1
    28    15    26    1
