
     RDKit          3D

 56 58  0  0  0  0  0  0  0  0999 V2000
   -5.8072   -1.6046    1.0441 C   0  0  0  0  0  0  0  0  0  0  0  0
   -5.4319   -0.1868    0.8157 C   0  0  0  0  0  0  0  0  0  0  0  0
   -4.8256    0.5070    1.8990 N   0  0  0  0  0  0  0  0  0  0  0  0
   -4.6168    1.9185    1.5854 C   0  0  0  0  0  0  0  0  0  0  0  0
   -5.9429    2.6516    1.4612 C   0  0  0  0  0  0  0  0  0  0  0  0
   -3.6350   -0.0840    2.4433 C   0  0  0  0  0  0  0  0  0  0  0  0
   -2.5859   -0.1843    1.4014 C   0  0  0  0  0  0  0  0  0  0  0  0
   -2.4202   -1.3383    0.6755 C   0  0  0  0  0  0  0  0  0  0  0  0
   -1.4327   -1.4168   -0.3092 C   0  0  0  0  0  0  0  0  0  0  0  0
   -0.6021   -0.3535   -0.5822 C   0  0  0  0  0  0  0  0  0  0  0  0
    0.4252   -0.4736   -1.6011 C   0  0  0  0  0  0  0  0  0  0  0  0
    0.6037   -1.5964   -2.1370 O   0  0  0  0  0  0  0  0  0  0  0  0
    1.2587    0.5848   -2.0511 N   0  0  0  0  0  0  0  0  0  0  0  0
    2.2540    0.4072   -3.0451 C   0  0  0  0  0  0  0  0  0  0  0  0
    1.9593    0.5442   -4.3961 C   0  0  0  0  0  0  0  0  0  0  0  0
    2.9854    0.3568   -5.3088 C   0  0  0  0  0  0  0  0  0  0  0  0
    4.2621    0.0430   -4.8890 C   0  0  0  0  0  0  0  0  0  0  0  0
    5.5248   -0.1874   -6.0609 Cl  0  0  0  0  0  0  0  0  0  0  0  0
    4.5543   -0.0939   -3.5259 C   0  0  0  0  0  0  0  0  0  0  0  0
    3.5329    0.0932   -2.6198 C   0  0  0  0  0  0  0  0  0  0  0  0
    3.7537   -0.0242   -1.1926 C   0  0  0  0  0  0  0  0  0  0  0  0
    2.8198    0.1461   -0.3495 O   0  0  0  0  0  0  0  0  0  0  0  0
    5.0215   -0.3360   -0.6346 N   0  0  0  0  0  0  0  0  0  0  0  0
    5.2050   -0.4402    0.7890 C   0  0  0  0  0  0  0  0  0  0  0  0
    5.0235   -1.6680    1.3847 C   0  0  0  0  0  0  0  0  0  0  0  0
    5.1896   -1.8250    2.7524 C   0  0  0  0  0  0  0  0  0  0  0  0
    5.5394   -0.7349    3.5124 C   0  0  0  0  0  0  0  0  0  0  0  0
    5.7720   -0.8734    5.2647 Cl  0  0  0  0  0  0  0  0  0  0  0  0
    5.7182    0.4951    2.8944 C   0  0  0  0  0  0  0  0  0  0  0  0
    5.5433    0.5911    1.5584 N   0  0  0  0  0  0  0  0  0  0  0  0
   -0.7675    0.8075    0.1474 C   0  0  0  0  0  0  0  0  0  0  0  0
   -1.7415    0.8964    1.1243 C   0  0  0  0  0  0  0  0  0  0  0  0
   -6.9065   -1.7433    0.9250 H   0  0  0  0  0  0  0  0  0  0  0  0
   -5.3697   -2.3224    0.2928 H   0  0  0  0  0  0  0  0  0  0  0  0
   -5.5675   -1.9398    2.0582 H   0  0  0  0  0  0  0  0  0  0  0  0
   -6.3044    0.3971    0.4414 H   0  0  0  0  0  0  0  0  0  0  0  0
   -4.6901   -0.1754   -0.0391 H   0  0  0  0  0  0  0  0  0  0  0  0
   -4.0349    2.3831    2.4088 H   0  0  0  0  0  0  0  0  0  0  0  0
   -4.0670    1.9957    0.6553 H   0  0  0  0  0  0  0  0  0  0  0  0
   -6.7535    2.1027    1.9837 H   0  0  0  0  0  0  0  0  0  0  0  0
   -5.8102    3.6768    1.8728 H   0  0  0  0  0  0  0  0  0  0  0  0
   -6.1845    2.7811    0.3859 H   0  0  0  0  0  0  0  0  0  0  0  0
   -3.8615   -1.1149    2.7617 H   0  0  0  0  0  0  0  0  0  0  0  0
   -3.2335    0.5006    3.3026 H   0  0  0  0  0  0  0  0  0  0  0  0
   -3.0494   -2.2258    0.8594 H   0  0  0  0  0  0  0  0  0  0  0  0
   -1.3587   -2.3503   -0.8413 H   0  0  0  0  0  0  0  0  0  0  0  0
    1.1321    1.5251   -1.6334 H   0  0  0  0  0  0  0  0  0  0  0  0
    0.9665    0.7867   -4.6982 H   0  0  0  0  0  0  0  0  0  0  0  0
    2.7800    0.4582   -6.3666 H   0  0  0  0  0  0  0  0  0  0  0  0
    5.5608   -0.3383   -3.2427 H   0  0  0  0  0  0  0  0  0  0  0  0
    5.8159   -0.4863   -1.2908 H   0  0  0  0  0  0  0  0  0  0  0  0
    4.7482   -2.5489    0.8188 H   0  0  0  0  0  0  0  0  0  0  0  0
    5.0562   -2.7712    3.2569 H   0  0  0  0  0  0  0  0  0  0  0  0
    5.9938    1.3350    3.5176 H   0  0  0  0  0  0  0  0  0  0  0  0
   -0.1211    1.6573   -0.0537 H   0  0  0  0  0  0  0  0  0  0  0  0
   -1.8780    1.7958    1.7055 H   0  0  0  0  0  0  0  0  0  0  0  0
  1  2  1  0
  2  3  1  0
  3  4  1  0
  4  5  1  0
  3  6  1  0
  6  7  1  0
  7  8  2  0
  8  9  1  0
  9 10  2  0
 10 11  1  0
 11 12  2  0
 11 13  1  0
 13 14  1  0
 14 15  2  0
 15 16  1  0
 16 17  2  0
 17 18  1  0
 17 19  1  0
 19 20  2  0
 20 21  1  0
 21 22  2  0
 21 23  1  0
 23 24  1  0
 24 25  2  0
 25 26  1  0
 26 27  2  0
 27 28  1  0
 27 29  1  0
 29 30  2  0
 10 31  1  0
 31 32  2  0
 32  7  1  0
 20 14  1  0
 30 24  1  0
  1 33  1  0
  1 34  1  0
  1 35  1  0
  2 36  1  0
  2 37  1  0
  4 38  1  0
  4 39  1  0
  5 40  1  0
  5 41  1  0
  5 42  1  0
  6 43  1  0
  6 44  1  0
  8 45  1  0
  9 46  1  0
 13 47  1  0
 15 48  1  0
 16 49  1  0
 19 50  1  0
 23 51  1  0
 25 52  1  0
 26 53  1  0
 29 54  1  0
 31 55  1  0
 32 56  1  0
M  END
$$$$
