@<TRIPOS>MOLECULE
*****
 56 58 0 0 0
SMALL
GASTEIGER

@<TRIPOS>ATOM
      1 C          -5.8072   -1.6046    1.0441 C.3     1  UNL1       -0.0523
      2 C          -5.4319   -0.1868    0.8157 C.3     1  UNL1       -0.0036
      3 N          -4.8256    0.5070    1.8990 N.3     1  UNL1       -0.2987
      4 C          -4.6168    1.9185    1.5854 C.3     1  UNL1       -0.0036
      5 C          -5.9429    2.6516    1.4612 C.3     1  UNL1       -0.0523
      6 C          -3.6350   -0.0840    2.4433 C.3     1  UNL1        0.0240
      7 C          -2.5859   -0.1843    1.4014 C.ar    1  UNL1       -0.0333
      8 C          -2.4202   -1.3383    0.6755 C.ar    1  UNL1       -0.0566
      9 C          -1.4327   -1.4168   -0.3092 C.ar    1  UNL1       -0.0493
     10 C          -0.6021   -0.3535   -0.5822 C.ar    1  UNL1        0.0370
     11 C           0.4252   -0.4736   -1.6011 C.2     1  UNL1        0.2483
     12 O           0.6037   -1.5964   -2.1370 O.2     1  UNL1       -0.2699
     13 N           1.2587    0.5848   -2.0511 N.am    1  UNL1       -0.2808
     14 C           2.2540    0.4072   -3.0451 C.ar    1  UNL1        0.0459
     15 C           1.9593    0.5442   -4.3961 C.ar    1  UNL1       -0.0384
     16 C           2.9854    0.3568   -5.3088 C.ar    1  UNL1       -0.0416
     17 C           4.2621    0.0430   -4.8890 C.ar    1  UNL1        0.0418
     18 CL          5.5248   -0.1874   -6.0609 Cl      1  UNL1       -0.0835
     19 C           4.5543   -0.0939   -3.5259 C.ar    1  UNL1       -0.0295
     20 C           3.5329    0.0932   -2.6198 C.ar    1  UNL1        0.0596
     21 C           3.7537   -0.0242   -1.1926 C.2     1  UNL1        0.2511
     22 O           2.8198    0.1461   -0.3495 O.2     1  UNL1       -0.2697
     23 N           5.0215   -0.3360   -0.6346 N.am    1  UNL1       -0.2663
     24 C           5.2050   -0.4402    0.7890 C.ar    1  UNL1        0.1252
     25 C           5.0235   -1.6680    1.3847 C.ar    1  UNL1       -0.0201
     26 C           5.1896   -1.8250    2.7524 C.ar    1  UNL1       -0.0387
     27 C           5.5394   -0.7349    3.5124 C.ar    1  UNL1        0.0592
     28 CL          5.7720   -0.8734    5.2647 Cl      1  UNL1       -0.0820
     29 C           5.7182    0.4951    2.8944 C.ar    1  UNL1        0.0480
     30 N           5.5433    0.5911    1.5584 N.ar    1  UNL1       -0.2387
     31 C          -0.7675    0.8075    0.1474 C.ar    1  UNL1       -0.0493
     32 C          -1.7415    0.8964    1.1243 C.ar    1  UNL1       -0.0566
     33 H          -6.9065   -1.7433    0.9250 H       1  UNL1        0.0242
     34 H          -5.3697   -2.3224    0.2928 H       1  UNL1        0.0242
     35 H          -5.5675   -1.9398    2.0582 H       1  UNL1        0.0242
     36 H          -6.3044    0.3971    0.4414 H       1  UNL1        0.0424
     37 H          -4.6901   -0.1754   -0.0391 H       1  UNL1        0.0424
     38 H          -4.0349    2.3831    2.4088 H       1  UNL1        0.0424
     39 H          -4.0670    1.9957    0.6553 H       1  UNL1        0.0424
     40 H          -6.7535    2.1027    1.9837 H       1  UNL1        0.0242
     41 H          -5.8102    3.6768    1.8728 H       1  UNL1        0.0242
     42 H          -6.1845    2.7811    0.3859 H       1  UNL1        0.0242
     43 H          -3.8615   -1.1149    2.7617 H       1  UNL1        0.0476
     44 H          -3.2335    0.5006    3.3026 H       1  UNL1        0.0476
     45 H          -3.0494   -2.2258    0.8594 H       1  UNL1        0.0621
     46 H          -1.3587   -2.3503   -0.8413 H       1  UNL1        0.0625
     47 H           1.1321    1.5251   -1.6334 H       1  UNL1        0.1552
     48 H           0.9665    0.7867   -4.6982 H       1  UNL1        0.0637
     49 H           2.7800    0.4582   -6.3666 H       1  UNL1        0.0633
     50 H           5.5608   -0.3383   -3.2427 H       1  UNL1        0.0640
     51 H           5.8159   -0.4863   -1.2908 H       1  UNL1        0.1566
     52 H           4.7482   -2.5489    0.8188 H       1  UNL1        0.0652
     53 H           5.0562   -2.7712    3.2569 H       1  UNL1        0.0634
     54 H           5.9938    1.3350    3.5176 H       1  UNL1        0.0845
     55 H          -0.1211    1.6573   -0.0537 H       1  UNL1        0.0625
     56 H          -1.8780    1.7958    1.7055 H       1  UNL1        0.0621
@<TRIPOS>BOND
     1     1     2    1
     2     2     3    1
     3     3     4    1
     4     4     5    1
     5     3     6    1
     6     6     7    1
     7     7     8   ar
     8     8     9   ar
     9     9    10   ar
    10    10    11    1
    11    11    12    2
    12    11    13   am
    13    13    14    1
    14    14    15   ar
    15    15    16   ar
    16    16    17   ar
    17    17    18    1
    18    17    19   ar
    19    19    20   ar
    20    20    21    1
    21    21    22    2
    22    21    23   am
    23    23    24    1
    24    24    25   ar
    25    25    26   ar
    26    26    27   ar
    27    27    28    1
    28    27    29   ar
    29    29    30   ar
    30    10    31   ar
    31    31    32   ar
    32    32     7   ar
    33    20    14   ar
    34    30    24   ar
    35     1    33    1
    36     1    34    1
    37     1    35    1
    38     2    36    1
    39     2    37    1
    40     4    38    1
    41     4    39    1
    42     5    40    1
    43     5    41    1
    44     5    42    1
    45     6    43    1
    46     6    44    1
    47     8    45    1
    48     9    46    1
    49    13    47    1
    50    15    48    1
    51    16    49    1
    52    19    50    1
    53    23    51    1
    54    25    52    1
    55    26    53    1
    56    29    54    1
    57    31    55    1
    58    32    56    1
