@<TRIPOS>MOLECULE
*****
 48 51 0 0 0
SMALL
GASTEIGER

@<TRIPOS>ATOM
      1 O           9.0128   -1.7010   -1.7124 O.2     1  UNL1       -0.2681
      2 C           8.5319   -1.7153   -0.5276 C.2     1  UNL1        0.2665
      3 N           9.3393   -2.2353    0.4918 N.am    1  UNL1       -0.1935
      4 O          10.5821   -2.6977    0.1893 O.3     1  UNL1       -0.2949
      5 C           7.1887   -1.1990   -0.2947 C.ar    1  UNL1        0.0387
      6 C           6.4665   -0.6959   -1.3775 C.ar    1  UNL1       -0.0489
      7 C           5.1963   -0.1888   -1.2608 C.ar    1  UNL1       -0.0489
      8 C           4.6076   -0.1771   -0.0128 C.ar    1  UNL1        0.0371
      9 C           3.2645    0.3453    0.1825 C.2     1  UNL1        0.2483
     10 O           2.7824    0.3241    1.3590 O.2     1  UNL1       -0.2699
     11 N           2.4586    0.8780   -0.8627 N.am    1  UNL1       -0.2814
     12 C           1.1581    1.3579   -0.5384 C.ar    1  UNL1        0.0354
     13 C           0.9329    2.6576   -0.1741 C.ar    1  UNL1       -0.0404
     14 C          -0.3357    3.0755    0.1278 C.ar    1  UNL1       -0.0583
     15 C          -1.3914    2.1682    0.0608 C.ar    1  UNL1       -0.0404
     16 C          -1.1872    0.8642   -0.3014 C.ar    1  UNL1        0.0345
     17 N          -2.2601   -0.0324   -0.3652 N.pl3   1  UNL1       -0.2937
     18 C          -3.6339    0.3659   -0.0876 C.ar    1  UNL1        0.1629
     19 N          -4.2754    1.2372    0.2000 N.ar    1  UNL1       -0.2324
     20 C          -5.5751    1.3099    0.3917 C.ar    1  UNL1        0.0446
     21 C          -6.2648    0.1553    0.2177 C.ar    1  UNL1        0.0420
     22 C          -7.6585   -0.1603    0.3322 C.ar    1  UNL1        0.0084
     23 C          -8.1368   -1.4236    0.1053 C.ar    1  UNL1       -0.0506
     24 C          -9.5067   -1.6999    0.2262 C.ar    1  UNL1       -0.0430
     25 C         -10.3831   -0.6992    0.5751 C.ar    1  UNL1        0.0276
     26 N          -9.8872    0.5304    0.7918 N.ar    1  UNL1       -0.2626
     27 C          -8.5566    0.8175    0.6787 C.ar    1  UNL1        0.0358
     28 S          -4.9521   -0.9883   -0.2231 S.2     1  UNL1       -0.0521
     29 C           0.0997    0.4624   -0.6020 C.ar    1  UNL1       -0.0192
     30 C           5.3150   -0.6728    1.0640 C.ar    1  UNL1       -0.0489
     31 C           6.5963   -1.1843    0.9461 C.ar    1  UNL1       -0.0489
     32 H           8.9751   -2.2609    1.4722 H       1  UNL1        0.1825
     33 H          11.1929   -1.9008    0.1860 H       1  UNL1        0.2414
     34 H           6.9354   -0.7096   -2.3480 H       1  UNL1        0.0625
     35 H           4.6949    0.1842   -2.1402 H       1  UNL1        0.0625
     36 H           2.8456    0.8966   -1.8139 H       1  UNL1        0.1551
     37 H           1.7955    3.3206   -0.1396 H       1  UNL1        0.0636
     38 H          -0.5099    4.0956    0.4135 H       1  UNL1        0.0619
     39 H          -2.3680    2.5638    0.3120 H       1  UNL1        0.0636
     40 H          -2.0790   -1.0175   -0.6187 H       1  UNL1        0.1541
     41 H          -6.0781    2.2498    0.6768 H       1  UNL1        0.0842
     42 H          -7.4806   -2.2530   -0.1745 H       1  UNL1        0.0625
     43 H          -9.9105   -2.6850    0.0532 H       1  UNL1        0.0633
     44 H         -11.4632   -0.8972    0.6750 H       1  UNL1        0.0829
     45 H          -8.2707    1.8379    0.8752 H       1  UNL1        0.0836
     46 H           0.2502   -0.5641   -0.8853 H       1  UNL1        0.0655
     47 H           4.8310   -0.6561    2.0513 H       1  UNL1        0.0625
     48 H           7.1109   -1.5592    1.8054 H       1  UNL1        0.0625
@<TRIPOS>BOND
     1     1     2    2
     2     2     3   am
     3     3     4    1
     4     2     5    1
     5     5     6   ar
     6     6     7   ar
     7     7     8   ar
     8     8     9    1
     9     9    10    2
    10     9    11   am
    11    11    12    1
    12    12    13   ar
    13    13    14   ar
    14    14    15   ar
    15    15    16   ar
    16    16    17    1
    17    17    18    1
    18    18    19   ar
    19    19    20   ar
    20    20    21   ar
    21    21    22    1
    22    22    23   ar
    23    23    24   ar
    24    24    25   ar
    25    25    26   ar
    26    26    27   ar
    27    21    28   ar
    28    16    29   ar
    29     8    30   ar
    30    30    31   ar
    31    31     5   ar
    32    29    12   ar
    33    28    18   ar
    34    27    22   ar
    35     3    32    1
    36     4    33    1
    37     6    34    1
    38     7    35    1
    39    11    36    1
    40    13    37    1
    41    14    38    1
    42    15    39    1
    43    17    40    1
    44    20    41    1
    45    23    42    1
    46    24    43    1
    47    25    44    1
    48    27    45    1
    49    29    46    1
    50    30    47    1
    51    31    48    1
