
     RDKit          3D

 48 51  0  0  0  0  0  0  0  0999 V2000
    9.0128   -1.7010   -1.7124 O   0  0  0  0  0  0  0  0  0  0  0  0
    8.5319   -1.7153   -0.5276 C   0  0  0  0  0  0  0  0  0  0  0  0
    9.3393   -2.2353    0.4918 N   0  0  0  0  0  0  0  0  0  0  0  0
   10.5821   -2.6977    0.1893 O   0  0  0  0  0  0  0  0  0  0  0  0
    7.1887   -1.1990   -0.2947 C   0  0  0  0  0  0  0  0  0  0  0  0
    6.4665   -0.6959   -1.3775 C   0  0  0  0  0  0  0  0  0  0  0  0
    5.1963   -0.1888   -1.2608 C   0  0  0  0  0  0  0  0  0  0  0  0
    4.6076   -0.1771   -0.0128 C   0  0  0  0  0  0  0  0  0  0  0  0
    3.2645    0.3453    0.1825 C   0  0  0  0  0  0  0  0  0  0  0  0
    2.7824    0.3241    1.3590 O   0  0  0  0  0  0  0  0  0  0  0  0
    2.4586    0.8780   -0.8627 N   0  0  0  0  0  0  0  0  0  0  0  0
    1.1581    1.3579   -0.5384 C   0  0  0  0  0  0  0  0  0  0  0  0
    0.9329    2.6576   -0.1741 C   0  0  0  0  0  0  0  0  0  0  0  0
   -0.3357    3.0755    0.1278 C   0  0  0  0  0  0  0  0  0  0  0  0
   -1.3914    2.1682    0.0608 C   0  0  0  0  0  0  0  0  0  0  0  0
   -1.1872    0.8642   -0.3014 C   0  0  0  0  0  0  0  0  0  0  0  0
   -2.2601   -0.0324   -0.3652 N   0  0  0  0  0  0  0  0  0  0  0  0
   -3.6339    0.3659   -0.0876 C   0  0  0  0  0  0  0  0  0  0  0  0
   -4.2754    1.2372    0.2000 N   0  0  0  0  0  0  0  0  0  0  0  0
   -5.5751    1.3099    0.3917 C   0  0  0  0  0  0  0  0  0  0  0  0
   -6.2648    0.1553    0.2177 C   0  0  0  0  0  0  0  0  0  0  0  0
   -7.6585   -0.1603    0.3322 C   0  0  0  0  0  0  0  0  0  0  0  0
   -8.1368   -1.4236    0.1053 C   0  0  0  0  0  0  0  0  0  0  0  0
   -9.5067   -1.6999    0.2262 C   0  0  0  0  0  0  0  0  0  0  0  0
  -10.3831   -0.6992    0.5751 C   0  0  0  0  0  0  0  0  0  0  0  0
   -9.8872    0.5304    0.7918 N   0  0  0  0  0  0  0  0  0  0  0  0
   -8.5566    0.8175    0.6787 C   0  0  0  0  0  0  0  0  0  0  0  0
   -4.9521   -0.9883   -0.2231 S   0  0  0  0  0  0  0  0  0  0  0  0
    0.0997    0.4624   -0.6020 C   0  0  0  0  0  0  0  0  0  0  0  0
    5.3150   -0.6728    1.0640 C   0  0  0  0  0  0  0  0  0  0  0  0
    6.5963   -1.1843    0.9461 C   0  0  0  0  0  0  0  0  0  0  0  0
    8.9751   -2.2609    1.4722 H   0  0  0  0  0  0  0  0  0  0  0  0
   11.1929   -1.9008    0.1860 H   0  0  0  0  0  0  0  0  0  0  0  0
    6.9354   -0.7096   -2.3480 H   0  0  0  0  0  0  0  0  0  0  0  0
    4.6949    0.1842   -2.1402 H   0  0  0  0  0  0  0  0  0  0  0  0
    2.8456    0.8966   -1.8139 H   0  0  0  0  0  0  0  0  0  0  0  0
    1.7955    3.3206   -0.1396 H   0  0  0  0  0  0  0  0  0  0  0  0
   -0.5099    4.0956    0.4135 H   0  0  0  0  0  0  0  0  0  0  0  0
   -2.3680    2.5638    0.3120 H   0  0  0  0  0  0  0  0  0  0  0  0
   -2.0790   -1.0175   -0.6187 H   0  0  0  0  0  0  0  0  0  0  0  0
   -6.0781    2.2498    0.6768 H   0  0  0  0  0  0  0  0  0  0  0  0
   -7.4806   -2.2530   -0.1745 H   0  0  0  0  0  0  0  0  0  0  0  0
   -9.9105   -2.6850    0.0532 H   0  0  0  0  0  0  0  0  0  0  0  0
  -11.4632   -0.8972    0.6750 H   0  0  0  0  0  0  0  0  0  0  0  0
   -8.2707    1.8379    0.8752 H   0  0  0  0  0  0  0  0  0  0  0  0
    0.2502   -0.5641   -0.8853 H   0  0  0  0  0  0  0  0  0  0  0  0
    4.8310   -0.6561    2.0513 H   0  0  0  0  0  0  0  0  0  0  0  0
    7.1109   -1.5592    1.8054 H   0  0  0  0  0  0  0  0  0  0  0  0
  1  2  2  0
  2  3  1  0
  3  4  1  0
  2  5  1  0
  5  6  2  0
  6  7  1  0
  7  8  2  0
  8  9  1  0
  9 10  2  0
  9 11  1  0
 11 12  1  0
 12 13  2  0
 13 14  1  0
 14 15  2  0
 15 16  1  0
 16 17  1  0
 17 18  1  0
 18 19  2  0
 19 20  1  0
 20 21  2  0
 21 22  1  0
 22 23  2  0
 23 24  1  0
 24 25  2  0
 25 26  1  0
 26 27  2  0
 21 28  1  0
 16 29  2  0
  8 30  1  0
 30 31  2  0
 31  5  1  0
 29 12  1  0
 28 18  1  0
 27 22  1  0
  3 32  1  0
  4 33  1  0
  6 34  1  0
  7 35  1  0
 11 36  1  0
 13 37  1  0
 14 38  1  0
 15 39  1  0
 17 40  1  0
 20 41  1  0
 23 42  1  0
 24 43  1  0
 25 44  1  0
 27 45  1  0
 29 46  1  0
 30 47  1  0
 31 48  1  0
M  END
$$$$
