@<TRIPOS>MOLECULE
*****
 44 46 0 0 0
SMALL
GASTEIGER

@<TRIPOS>ATOM
      1 C          -1.2777    3.3193    0.1669 C.3     1  UNL1        0.0788
      2 O          -1.3704    2.0960    0.8441 O.3     1  UNL1       -0.4948
      3 C          -2.1895    1.0452    0.5521 C.ar    1  UNL1        0.1241
      4 C          -3.0571    1.1570   -0.5378 C.ar    1  UNL1       -0.0190
      5 C          -3.9037    0.1194   -0.8578 C.ar    1  UNL1       -0.0478
      6 C          -3.8780   -1.0271   -0.0841 C.ar    1  UNL1        0.0176
      7 C          -4.7325   -2.1524   -0.3914 C.2     1  UNL1        0.1601
      8 C          -5.6373   -2.1793   -1.5311 C.3     1  UNL1       -0.0014
      9 O          -4.6932   -3.1741    0.3724 O.2     1  UNL1       -0.2924
     10 C          -3.0176   -1.1149    0.9808 C.ar    1  UNL1       -0.0438
     11 C          -2.1541   -0.0754    1.3175 C.ar    1  UNL1        0.0051
     12 C          -1.2154   -0.3395    2.4401 C.3     1  UNL1        0.0297
     13 S           0.2854   -1.1642    1.9534 S.3     1  UNL1       -0.0828
     14 C           1.4023   -0.2584    0.9321 C.ar    1  UNL1        0.1707
     15 N           1.3520    0.9877    0.4403 N.ar    1  UNL1       -0.2217
     16 C           2.4155    1.2898   -0.3161 C.ar    1  UNL1        0.0929
     17 C           2.8475    2.3850   -1.0341 C.ar    1  UNL1        0.0011
     18 C           4.0360    2.3973   -1.7466 C.ar    1  UNL1        0.1255
     19 F           4.4168    3.5071   -2.4404 F       1  UNL1       -0.2054
     20 C           4.8051    1.2494   -1.7209 C.ar    1  UNL1       -0.0244
     21 C           4.3697    0.1624   -1.0045 C.ar    1  UNL1       -0.0333
     22 C           3.1801    0.1361   -0.2861 C.ar    1  UNL1        0.0701
     23 N           2.5710   -0.7896    0.4626 N.ar    1  UNL1       -0.3078
     24 C           3.0376   -2.1303    0.7382 C.3     1  UNL1        0.1226
     25 C           3.8800   -2.0833    1.9450 C.2     1  UNL1        0.3248
     26 O           3.3742   -2.1839    3.0745 O.2     1  UNL1       -0.2490
     27 O           5.2475   -1.9249    1.8216 O.3     1  UNL1       -0.4794
     28 H          -0.6714    4.0145    0.8102 H       1  UNL1        0.0660
     29 H          -2.2592    3.8185    0.0608 H       1  UNL1        0.0660
     30 H          -0.7835    3.2788   -0.8041 H       1  UNL1        0.0660
     31 H          -3.0559    2.0621   -1.1239 H       1  UNL1        0.0654
     32 H          -4.5836    0.1885   -1.6949 H       1  UNL1        0.0626
     33 H          -6.6441   -1.7777   -1.2561 H       1  UNL1        0.0309
     34 H          -5.7834   -3.2481   -1.8778 H       1  UNL1        0.0309
     35 H          -5.2007   -1.5906   -2.3690 H       1  UNL1        0.0309
     36 H          -3.0025   -2.0286    1.5883 H       1  UNL1        0.0629
     37 H          -1.7513   -0.9955    3.1650 H       1  UNL1        0.0430
     38 H          -0.9998    0.6241    2.9909 H       1  UNL1        0.0430
     39 H           2.2439    3.2797   -1.0534 H       1  UNL1        0.0668
     40 H           5.7285    1.2678   -2.2785 H       1  UNL1        0.0647
     41 H           4.9691   -0.7445   -0.9784 H       1  UNL1        0.0640
     42 H           3.6157   -2.4415   -0.1689 H       1  UNL1        0.0608
     43 H           2.1743   -2.8028    0.8804 H       1  UNL1        0.0608
     44 H           5.9096   -2.1590    2.5451 H       1  UNL1        0.2951
@<TRIPOS>BOND
     1     1     2    1
     2     2     3    1
     3     3     4   ar
     4     4     5   ar
     5     5     6   ar
     6     6     7    1
     7     7     8    1
     8     7     9    2
     9     6    10   ar
    10    10    11   ar
    11    11    12    1
    12    12    13    1
    13    13    14    1
    14    14    15   ar
    15    15    16   ar
    16    16    17   ar
    17    17    18   ar
    18    18    19    1
    19    18    20   ar
    20    20    21   ar
    21    21    22   ar
    22    22    23   ar
    23    23    24    1
    24    24    25    1
    25    25    26    2
    26    25    27    1
    27    11     3   ar
    28    23    14   ar
    29    22    16   ar
    30     1    28    1
    31     1    29    1
    32     1    30    1
    33     4    31    1
    34     5    32    1
    35     8    33    1
    36     8    34    1
    37     8    35    1
    38    10    36    1
    39    12    37    1
    40    12    38    1
    41    17    39    1
    42    20    40    1
    43    21    41    1
    44    24    42    1
    45    24    43    1
    46    27    44    1
