@<TRIPOS>MOLECULE
*****
 52 56 0 0 0
SMALL
GASTEIGER

@<TRIPOS>ATOM
      1 O          -6.7346    0.0799    1.0762 O.2     1  UNL1       -0.2918
      2 C          -5.5701   -0.1899    0.6965 C.2     1  UNL1        0.1704
      3 C          -4.6977   -0.9665    1.5789 C.3     1  UNL1        0.0506
      4 C          -3.2591   -0.9868    1.1085 C.3     1  UNL1        0.1205
      5 C          -2.5090    0.2498    1.5772 C.3     1  UNL1        0.0034
      6 C          -1.1580    0.2037    0.9358 C.3     1  UNL1        0.0198
      7 N          -0.4845   -1.0583    1.0819 N.am    1  UNL1       -0.2854
      8 C           0.8636   -1.1506    0.6752 C.2     1  UNL1        0.3024
      9 O           1.4912   -2.2262    0.7834 O.2     1  UNL1       -0.2526
     10 N           1.5609   -0.0491    0.1339 N.am    1  UNL1       -0.2958
     11 C           2.9246   -0.0565   -0.3017 C.3     1  UNL1        0.0320
     12 C           3.1407    0.6999   -1.6240 C.3     1  UNL1       -0.0254
     13 C           3.7924    1.1205   -0.3510 C.3     1  UNL1        0.0043
     14 C           5.2518    0.8939   -0.2222 C.ar    1  UNL1       -0.0425
     15 C           5.8717   -0.2685   -0.6337 C.ar    1  UNL1       -0.0582
     16 C           7.2380   -0.4610   -0.5036 C.ar    1  UNL1       -0.0615
     17 C           8.0124    0.5168    0.0460 C.ar    1  UNL1       -0.0617
     18 C           7.4199    1.7011    0.4715 C.ar    1  UNL1       -0.0615
     19 C           6.0530    1.8648    0.3285 C.ar    1  UNL1       -0.0582
     20 C          -1.1190   -2.2270    1.6218 C.3     1  UNL1        0.0198
     21 C          -2.5941   -2.1700    1.7555 C.3     1  UNL1        0.0034
     22 O          -3.1528   -1.0207   -0.3004 O.3     1  UNL1       -0.4845
     23 C          -3.8859   -0.1658   -1.0829 C.ar    1  UNL1        0.1318
     24 C          -3.4959    0.2938   -2.3120 C.ar    1  UNL1       -0.0192
     25 C          -4.2762    1.1564   -3.0599 C.ar    1  UNL1       -0.0583
     26 C          -5.4907    1.5733   -2.5584 C.ar    1  UNL1       -0.0609
     27 C          -5.9066    1.1175   -1.3094 C.ar    1  UNL1       -0.0477
     28 C          -5.1173    0.2689   -0.5958 C.ar    1  UNL1        0.0592
     29 H          -4.7077   -0.6452    2.6314 H       1  UNL1        0.0384
     30 H          -5.0472   -2.0324    1.5382 H       1  UNL1        0.0384
     31 H          -3.0698    1.1235    1.1920 H       1  UNL1        0.0319
     32 H          -2.4652    0.3073    2.6912 H       1  UNL1        0.0319
     33 H          -0.5396    1.0161    1.4182 H       1  UNL1        0.0466
     34 H          -1.2572    0.5196   -0.1227 H       1  UNL1        0.0466
     35 H           1.0256    0.8442    0.0482 H       1  UNL1        0.1505
     36 H           3.4258   -1.0402   -0.1865 H       1  UNL1        0.0505
     37 H           3.6927    0.1082   -2.3793 H       1  UNL1        0.0290
     38 H           2.3210    1.2930   -2.0243 H       1  UNL1        0.0290
     39 H           3.4830    2.1183    0.0115 H       1  UNL1        0.0367
     40 H           5.3046   -1.0575   -1.0682 H       1  UNL1        0.0620
     41 H           7.6785   -1.3857   -0.8394 H       1  UNL1        0.0618
     42 H           9.0714    0.3741    0.1497 H       1  UNL1        0.0618
     43 H           8.0469    2.4515    0.8984 H       1  UNL1        0.0618
     44 H           5.6256    2.8109    0.6758 H       1  UNL1        0.0620
     45 H          -0.6011   -2.4250    2.6066 H       1  UNL1        0.0466
     46 H          -0.7799   -3.0862    0.9742 H       1  UNL1        0.0466
     47 H          -3.0646   -3.1314    1.4314 H       1  UNL1        0.0319
     48 H          -2.8290   -2.0919    2.8577 H       1  UNL1        0.0319
     49 H          -2.5345   -0.0301   -2.7209 H       1  UNL1        0.0654
     50 H          -3.9665    1.5251   -4.0423 H       1  UNL1        0.0619
     51 H          -6.1197    2.2481   -3.1240 H       1  UNL1        0.0618
     52 H          -6.8618    1.4426   -0.9091 H       1  UNL1        0.0626
@<TRIPOS>BOND
     1     1     2    2
     2     2     3    1
     3     3     4    1
     4     4     5    1
     5     5     6    1
     6     6     7    1
     7     7     8   am
     8     8     9    2
     9     8    10   am
    10    10    11    1
    11    11    12    1
    12    12    13    1
    13    13    14    1
    14    14    15   ar
    15    15    16   ar
    16    16    17   ar
    17    17    18   ar
    18    18    19   ar
    19     7    20    1
    20    20    21    1
    21     4    22    1
    22    22    23    1
    23    23    24   ar
    24    24    25   ar
    25    25    26   ar
    26    26    27   ar
    27    27    28   ar
    28    28     2    1
    29    21     4    1
    30    28    23   ar
    31    13    11    1
    32    19    14   ar
    33     3    29    1
    34     3    30    1
    35     5    31    1
    36     5    32    1
    37     6    33    1
    38     6    34    1
    39    10    35    1
    40    11    36    1
    41    12    37    1
    42    12    38    1
    43    13    39    1
    44    15    40    1
    45    16    41    1
    46    17    42    1
    47    18    43    1
    48    19    44    1
    49    20    45    1
    50    20    46    1
    51    21    47    1
    52    21    48    1
    53    24    49    1
    54    25    50    1
    55    26    51    1
    56    27    52    1
