
     RDKit          3D

 55 58  0  0  0  0  0  0  0  0999 V2000
   -3.6611    0.5156    2.5494 C   0  0  0  0  0  0  0  0  0  0  0  0
   -3.9345   -0.3927    1.3746 C   0  0  0  0  0  0  0  0  0  0  0  0
   -4.2221   -1.7904    1.8533 C   0  0  0  0  0  0  0  0  0  0  0  0
   -5.1109    0.1305    0.5827 C   0  0  0  0  0  0  0  0  0  0  0  0
   -5.0137   -0.2277   -0.8774 C   0  0  0  0  0  0  0  0  0  0  0  0
   -3.7954    0.3463   -1.5203 C   0  0  0  0  0  0  0  0  0  0  0  0
   -3.9223    1.8683   -1.4725 C   0  0  0  0  0  0  0  0  0  0  0  0
   -3.6685   -0.0623   -2.9471 C   0  0  0  0  0  0  0  0  0  0  0  0
   -2.5872   -0.0946   -0.7787 C   0  0  0  0  0  0  0  0  0  0  0  0
   -2.6926   -0.4182    0.5620 C   0  0  0  0  0  0  0  0  0  0  0  0
   -1.5431   -0.8028    1.2284 C   0  0  0  0  0  0  0  0  0  0  0  0
   -0.3489   -0.8537    0.5577 C   0  0  0  0  0  0  0  0  0  0  0  0
   -0.1918   -0.5415   -0.7733 C   0  0  0  0  0  0  0  0  0  0  0  0
   -1.3509   -0.1631   -1.4116 C   0  0  0  0  0  0  0  0  0  0  0  0
    1.0442   -0.5314   -1.5203 C   0  0  0  0  0  0  0  0  0  0  0  0
    1.1967   -0.6945   -2.7597 O   0  0  0  0  0  0  0  0  0  0  0  0
    2.3574   -0.3190   -0.9408 C   0  0  0  0  0  0  0  0  0  0  0  0
    3.5735   -0.7826   -1.3751 C   0  0  0  0  0  0  0  0  0  0  0  0
    4.7197   -0.4387   -0.6948 C   0  0  0  0  0  0  0  0  0  0  0  0
    4.7345    0.3668    0.4325 C   0  0  0  0  0  0  0  0  0  0  0  0
    3.4932    0.8136    0.8406 C   0  0  0  0  0  0  0  0  0  0  0  0
    2.2956    0.4996    0.1929 C   0  0  0  0  0  0  0  0  0  0  0  0
    5.8469    0.7333    1.1303 C   0  0  0  0  0  0  0  0  0  0  0  0
    7.0772    0.2666    0.6848 C   0  0  0  0  0  0  0  0  0  0  0  0
    7.0998   -0.5427   -0.4394 C   0  0  0  0  0  0  0  0  0  0  0  0
    5.9511   -0.9045   -1.1368 C   0  0  0  0  0  0  0  0  0  0  0  0
    8.3728    0.5780    1.3103 C   0  0  0  0  0  0  0  0  0  0  0  0
    8.4279    1.4179    2.4399 O   0  0  0  0  0  0  0  0  0  0  0  0
    9.4858    0.1473    0.9159 O   0  0  0  0  0  0  0  0  0  0  0  0
   -3.1469   -0.0148    3.3882 H   0  0  0  0  0  0  0  0  0  0  0  0
   -3.0668    1.3842    2.1994 H   0  0  0  0  0  0  0  0  0  0  0  0
   -4.5855    0.9461    2.9985 H   0  0  0  0  0  0  0  0  0  0  0  0
   -5.2965   -1.9219    2.1361 H   0  0  0  0  0  0  0  0  0  0  0  0
   -3.6026   -2.0222    2.7415 H   0  0  0  0  0  0  0  0  0  0  0  0
   -4.0167   -2.5516    1.0659 H   0  0  0  0  0  0  0  0  0  0  0  0
   -5.1738    1.2230    0.7457 H   0  0  0  0  0  0  0  0  0  0  0  0
   -6.0531   -0.3363    0.9552 H   0  0  0  0  0  0  0  0  0  0  0  0
   -5.1366   -1.3011   -1.0170 H   0  0  0  0  0  0  0  0  0  0  0  0
   -5.8944    0.2821   -1.3665 H   0  0  0  0  0  0  0  0  0  0  0  0
   -4.8494    2.1238   -2.0192 H   0  0  0  0  0  0  0  0  0  0  0  0
   -3.8860    2.2616   -0.4511 H   0  0  0  0  0  0  0  0  0  0  0  0
   -3.0747    2.2536   -2.0992 H   0  0  0  0  0  0  0  0  0  0  0  0
   -4.6540   -0.0885   -3.4904 H   0  0  0  0  0  0  0  0  0  0  0  0
   -3.0667    0.7210   -3.4713 H   0  0  0  0  0  0  0  0  0  0  0  0
   -3.2079   -1.0659   -3.0283 H   0  0  0  0  0  0  0  0  0  0  0  0
   -1.5596   -1.0671    2.2739 H   0  0  0  0  0  0  0  0  0  0  0  0
    0.5383   -1.1728    1.1153 H   0  0  0  0  0  0  0  0  0  0  0  0
   -1.3513    0.1079   -2.4759 H   0  0  0  0  0  0  0  0  0  0  0  0
    3.5519   -1.4058   -2.2479 H   0  0  0  0  0  0  0  0  0  0  0  0
    3.4713    1.4570    1.7375 H   0  0  0  0  0  0  0  0  0  0  0  0
    1.4067    0.9566    0.6573 H   0  0  0  0  0  0  0  0  0  0  0  0
    5.8460    1.3545    1.9983 H   0  0  0  0  0  0  0  0  0  0  0  0
    8.0655   -0.9187   -0.8060 H   0  0  0  0  0  0  0  0  0  0  0  0
    6.0095   -1.5318   -2.0034 H   0  0  0  0  0  0  0  0  0  0  0  0
    9.1001    2.2037    2.4562 H   0  0  0  0  0  0  0  0  0  0  0  0
  1  2  1  0
  2  3  1  0
  2  4  1  0
  4  5  1  0
  5  6  1  0
  6  7  1  0
  6  8  1  0
  6  9  1  0
  9 10  2  0
 10 11  1  0
 11 12  2  0
 12 13  1  0
 13 14  2  0
 13 15  1  0
 15 16  2  0
 15 17  1  0
 17 18  2  0
 18 19  1  0
 19 20  2  0
 20 21  1  0
 21 22  2  0
 20 23  1  0
 23 24  2  0
 24 25  1  0
 25 26  2  0
 24 27  1  0
 27 28  1  0
 27 29  2  0
 10  2  1  0
 22 17  1  0
 14  9  1  0
 26 19  1  0
  1 30  1  0
  1 31  1  0
  1 32  1  0
  3 33  1  0
  3 34  1  0
  3 35  1  0
  4 36  1  0
  4 37  1  0
  5 38  1  0
  5 39  1  0
  7 40  1  0
  7 41  1  0
  7 42  1  0
  8 43  1  0
  8 44  1  0
  8 45  1  0
 11 46  1  0
 12 47  1  0
 14 48  1  0
 18 49  1  0
 21 50  1  0
 22 51  1  0
 23 52  1  0
 25 53  1  0
 26 54  1  0
 28 55  1  0
M  END
$$$$
