@<TRIPOS>MOLECULE
*****
 65 64 0 0 0
SMALL
GASTEIGER

@<TRIPOS>ATOM
      1 C          -8.8439    1.3183    1.4413 C.3     1  UNL1       -0.0440
      2 C          -8.1030    0.7804    0.2632 C.2     1  UNL1       -0.0796
      3 C          -7.7887    1.5797   -0.9533 C.3     1  UNL1       -0.0440
      4 C          -7.6949   -0.5053    0.3053 C.2     1  UNL1       -0.0850
      5 C          -6.9522   -1.2956   -0.7002 C.3     1  UNL1       -0.0308
      6 C          -5.6711   -1.7790   -0.1213 C.3     1  UNL1       -0.0286
      7 C          -4.7363   -0.7408    0.3333 C.2     1  UNL1       -0.0762
      8 C          -5.0449    0.2320    1.4056 C.3     1  UNL1       -0.0438
      9 C          -3.4765   -0.5137   -0.1192 C.2     1  UNL1       -0.0847
     10 C          -2.4828    0.4853    0.2678 C.3     1  UNL1       -0.0308
     11 C          -1.2314   -0.0642    0.8717 C.3     1  UNL1       -0.0286
     12 C          -0.5243   -0.9481   -0.0507 C.2     1  UNL1       -0.0762
     13 C          -0.9497   -2.2411   -0.6472 C.3     1  UNL1       -0.0438
     14 C           0.7300   -0.5751   -0.4194 C.2     1  UNL1       -0.0847
     15 C           1.7063    0.4939   -0.1977 C.3     1  UNL1       -0.0308
     16 C           2.9676    0.0370    0.4356 C.3     1  UNL1       -0.0285
     17 C           3.7666   -0.9631   -0.2629 C.2     1  UNL1       -0.0741
     18 C           3.3977   -2.3574   -0.6241 C.3     1  UNL1       -0.0437
     19 C           5.0318   -0.6523   -0.6422 C.2     1  UNL1       -0.0591
     20 C           5.9494    0.5074   -0.5589 C.3     1  UNL1        0.0775
     21 O           7.1225    0.2197    0.1381 O.3     1  UNL1       -0.2823
     22 P           8.0554    1.6291    0.1294 P.3     1  UNL1        0.4837
     23 O           7.2857    2.9096    0.9040 O.3     1  UNL1       -0.3022
     24 O           8.2935    2.0437   -1.3216 O.2     1  UNL1       -0.2269
     25 O           9.5365    1.2478    0.8616 O.3     1  UNL1       -0.1862
     26 P          10.7841    1.6163   -0.1977 P.3     1  UNL1        0.4808
     27 O          10.9436    0.4272   -1.3839 O.3     1  UNL1       -0.3023
     28 O          12.2528    1.7676    0.6369 O.3     1  UNL1       -0.3023
     29 O          10.4454    2.9171   -0.8983 O.2     1  UNL1       -0.2271
     30 H          -9.4700    0.5011    1.8421 H       1  UNL1        0.0274
     31 H          -8.1371    1.7035    2.2245 H       1  UNL1        0.0274
     32 H          -9.5274    2.1092    1.0830 H       1  UNL1        0.0274
     33 H          -6.7457    1.9843   -0.8653 H       1  UNL1        0.0274
     34 H          -7.8189    1.0041   -1.8882 H       1  UNL1        0.0274
     35 H          -8.4296    2.4898   -1.0132 H       1  UNL1        0.0274
     36 H          -7.9012   -1.1293    1.1649 H       1  UNL1        0.0572
     37 H          -7.6211   -2.1404   -0.9951 H       1  UNL1        0.0310
     38 H          -6.7104   -0.6824   -1.6068 H       1  UNL1        0.0310
     39 H          -5.8040   -2.4998    0.7066 H       1  UNL1        0.0313
     40 H          -5.1361   -2.3413   -0.9376 H       1  UNL1        0.0313
     41 H          -5.9575   -0.0286    1.9983 H       1  UNL1        0.0274
     42 H          -4.2280    0.2658    2.1791 H       1  UNL1        0.0274
     43 H          -5.2067    1.2361    0.9722 H       1  UNL1        0.0274
     44 H          -3.2738   -1.2285   -0.9009 H       1  UNL1        0.0572
     45 H          -2.9003    1.2117    1.0049 H       1  UNL1        0.0310
     46 H          -2.2501    1.1346   -0.6267 H       1  UNL1        0.0310
     47 H          -1.5320   -0.5925    1.8216 H       1  UNL1        0.0313
     48 H          -0.5802    0.7704    1.2188 H       1  UNL1        0.0313
     49 H          -1.2410   -2.0924   -1.6910 H       1  UNL1        0.0274
     50 H          -0.0360   -2.9070   -0.6834 H       1  UNL1        0.0274
     51 H          -1.7088   -2.7006    0.0119 H       1  UNL1        0.0274
     52 H           1.3246   -1.1653   -1.1154 H       1  UNL1        0.0572
     53 H           1.9057    1.1182   -1.1008 H       1  UNL1        0.0310
     54 H           1.2439    1.2170    0.5458 H       1  UNL1        0.0310
     55 H           2.7057   -0.3387    1.4794 H       1  UNL1        0.0313
     56 H           3.5638    0.9565    0.6650 H       1  UNL1        0.0313
     57 H           2.6231   -2.7691    0.0527 H       1  UNL1        0.0274
     58 H           4.2865   -3.0425   -0.4494 H       1  UNL1        0.0274
     59 H           3.1869   -2.4991   -1.7033 H       1  UNL1        0.0274
     60 H           5.6880   -1.3737   -1.1682 H       1  UNL1        0.0594
     61 H           5.3838    1.3410   -0.0490 H       1  UNL1        0.0610
     62 H           6.1378    0.8673   -1.6028 H       1  UNL1        0.0610
     63 H           7.1725    3.6965    0.3037 H       1  UNL1        0.2220
     64 H          10.1295   -0.1260   -1.3702 H       1  UNL1        0.2220
     65 H          12.0945    1.5927    1.5980 H       1  UNL1        0.2220
@<TRIPOS>BOND
     1     1     2    1
     2     2     3    1
     3     2     4    2
     4     4     5    1
     5     5     6    1
     6     6     7    1
     7     7     8    1
     8     7     9    2
     9     9    10    1
    10    10    11    1
    11    11    12    1
    12    12    13    1
    13    12    14    2
    14    14    15    1
    15    15    16    1
    16    16    17    1
    17    17    18    1
    18    17    19    2
    19    19    20    1
    20    20    21    1
    21    21    22    1
    22    22    23    1
    23    22    24    2
    24    22    25    1
    25    25    26    1
    26    26    27    1
    27    26    28    1
    28    26    29    2
    29     1    30    1
    30     1    31    1
    31     1    32    1
    32     3    33    1
    33     3    34    1
    34     3    35    1
    35     4    36    1
    36     5    37    1
    37     5    38    1
    38     6    39    1
    39     6    40    1
    40     8    41    1
    41     8    42    1
    42     8    43    1
    43     9    44    1
    44    10    45    1
    45    10    46    1
    46    11    47    1
    47    11    48    1
    48    13    49    1
    49    13    50    1
    50    13    51    1
    51    14    52    1
    52    15    53    1
    53    15    54    1
    54    16    55    1
    55    16    56    1
    56    18    57    1
    57    18    58    1
    58    18    59    1
    59    19    60    1
    60    20    61    1
    61    20    62    1
    62    23    63    1
    63    27    64    1
    64    28    65    1
