@<TRIPOS>MOLECULE
*****
 33 35 0 0 0
SMALL
GASTEIGER

@<TRIPOS>ATOM
      1 C          -5.0851   -0.4474   -1.1920 C.3     1  UNL1       -0.0396
      2 C          -3.5996   -0.4610   -1.1122 C.ar    1  UNL1       -0.0484
      3 C          -2.8980   -1.1727   -2.0496 C.ar    1  UNL1       -0.0384
      4 C          -1.5260   -1.2293   -2.0366 C.ar    1  UNL1        0.0671
      5 CL         -0.6049   -2.1257   -3.2147 Cl      1  UNL1       -0.0813
      6 C          -0.8407   -0.5361   -1.0325 C.ar    1  UNL1        0.0907
      7 N           0.4945   -0.5957   -1.0263 N.ar    1  UNL1       -0.2452
      8 C           1.2150    0.0581   -0.0744 C.ar    1  UNL1        0.0725
      9 C           2.6852   -0.0341   -0.1041 C.ar    1  UNL1        0.0004
     10 C           3.2770   -0.7818   -1.0985 C.ar    1  UNL1       -0.0515
     11 C           4.6500   -0.9300   -1.2121 C.ar    1  UNL1       -0.0471
     12 C           5.4299   -0.2778   -0.2586 C.ar    1  UNL1        0.0179
     13 BR          7.3266   -0.4341   -0.3487 Br      1  UNL1       -0.0503
     14 C           4.8881    0.4792    0.7520 C.ar    1  UNL1       -0.0471
     15 C           3.5006    0.5840    0.8047 C.ar    1  UNL1       -0.0515
     16 C           0.5324    0.7697    0.8642 C.ar    1  UNL1       -0.0211
     17 C          -0.8584    0.8595    0.8959 C.ar    1  UNL1        0.0700
     18 C          -1.4688    1.6404    1.9352 C.2     1  UNL1        0.3375
     19 O          -0.6983    2.2146    2.7803 O.2     1  UNL1       -0.2451
     20 O          -2.7921    1.8565    2.1461 O.3     1  UNL1       -0.4771
     21 C          -1.5674    0.1862   -0.0822 C.ar    1  UNL1        0.0161
     22 C          -2.9331    0.2251   -0.1191 C.ar    1  UNL1       -0.0488
     23 H          -5.5309    0.4340   -0.7107 H       1  UNL1        0.0278
     24 H          -5.4794   -1.3955   -0.8045 H       1  UNL1        0.0278
     25 H          -5.3925   -0.3979   -2.2728 H       1  UNL1        0.0278
     26 H          -3.4571   -1.7079   -2.8267 H       1  UNL1        0.0635
     27 H           2.6835   -1.2941   -1.8462 H       1  UNL1        0.0624
     28 H           5.0963   -1.5230   -2.0024 H       1  UNL1        0.0629
     29 H           5.5221    0.9738    1.4779 H       1  UNL1        0.0629
     30 H           3.0696    1.1769    1.5957 H       1  UNL1        0.0624
     31 H           1.0798    1.2918    1.6224 H       1  UNL1        0.0647
     32 H          -3.2334    1.8186    3.0725 H       1  UNL1        0.2954
     33 H          -3.4848    0.7757    0.6055 H       1  UNL1        0.0627
@<TRIPOS>BOND
     1     1     2    1
     2     2     3   ar
     3     3     4   ar
     4     4     5    1
     5     4     6   ar
     6     6     7   ar
     7     7     8   ar
     8     8     9    1
     9     9    10   ar
    10    10    11   ar
    11    11    12   ar
    12    12    13    1
    13    12    14   ar
    14    14    15   ar
    15     8    16   ar
    16    16    17   ar
    17    17    18    1
    18    18    19    2
    19    18    20    1
    20    17    21   ar
    21    21    22   ar
    22    22     2   ar
    23    21     6   ar
    24    15     9   ar
    25     1    23    1
    26     1    24    1
    27     1    25    1
    28     3    26    1
    29    10    27    1
    30    11    28    1
    31    14    29    1
    32    15    30    1
    33    16    31    1
    34    20    32    1
    35    22    33    1
