
     RDKit          3D

 33 35  0  0  0  0  0  0  0  0999 V2000
   -5.0851   -0.4474   -1.1920 C   0  0  0  0  0  0  0  0  0  0  0  0
   -3.5996   -0.4610   -1.1122 C   0  0  0  0  0  0  0  0  0  0  0  0
   -2.8980   -1.1727   -2.0496 C   0  0  0  0  0  0  0  0  0  0  0  0
   -1.5260   -1.2293   -2.0366 C   0  0  0  0  0  0  0  0  0  0  0  0
   -0.6049   -2.1257   -3.2147 Cl  0  0  0  0  0  0  0  0  0  0  0  0
   -0.8407   -0.5361   -1.0325 C   0  0  0  0  0  0  0  0  0  0  0  0
    0.4945   -0.5957   -1.0263 N   0  0  0  0  0  0  0  0  0  0  0  0
    1.2150    0.0581   -0.0744 C   0  0  0  0  0  0  0  0  0  0  0  0
    2.6852   -0.0341   -0.1041 C   0  0  0  0  0  0  0  0  0  0  0  0
    3.2770   -0.7818   -1.0985 C   0  0  0  0  0  0  0  0  0  0  0  0
    4.6500   -0.9300   -1.2121 C   0  0  0  0  0  0  0  0  0  0  0  0
    5.4299   -0.2778   -0.2586 C   0  0  0  0  0  0  0  0  0  0  0  0
    7.3266   -0.4341   -0.3487 Br  0  0  0  0  0  0  0  0  0  0  0  0
    4.8881    0.4792    0.7520 C   0  0  0  0  0  0  0  0  0  0  0  0
    3.5006    0.5840    0.8047 C   0  0  0  0  0  0  0  0  0  0  0  0
    0.5324    0.7697    0.8642 C   0  0  0  0  0  0  0  0  0  0  0  0
   -0.8584    0.8595    0.8959 C   0  0  0  0  0  0  0  0  0  0  0  0
   -1.4688    1.6404    1.9352 C   0  0  0  0  0  0  0  0  0  0  0  0
   -0.6983    2.2146    2.7803 O   0  0  0  0  0  0  0  0  0  0  0  0
   -2.7921    1.8565    2.1461 O   0  0  0  0  0  0  0  0  0  0  0  0
   -1.5674    0.1862   -0.0822 C   0  0  0  0  0  0  0  0  0  0  0  0
   -2.9331    0.2251   -0.1191 C   0  0  0  0  0  0  0  0  0  0  0  0
   -5.5309    0.4340   -0.7107 H   0  0  0  0  0  0  0  0  0  0  0  0
   -5.4794   -1.3955   -0.8045 H   0  0  0  0  0  0  0  0  0  0  0  0
   -5.3925   -0.3979   -2.2728 H   0  0  0  0  0  0  0  0  0  0  0  0
   -3.4571   -1.7079   -2.8267 H   0  0  0  0  0  0  0  0  0  0  0  0
    2.6835   -1.2941   -1.8462 H   0  0  0  0  0  0  0  0  0  0  0  0
    5.0963   -1.5230   -2.0024 H   0  0  0  0  0  0  0  0  0  0  0  0
    5.5221    0.9738    1.4779 H   0  0  0  0  0  0  0  0  0  0  0  0
    3.0696    1.1769    1.5957 H   0  0  0  0  0  0  0  0  0  0  0  0
    1.0798    1.2918    1.6224 H   0  0  0  0  0  0  0  0  0  0  0  0
   -3.2334    1.8186    3.0725 H   0  0  0  0  0  0  0  0  0  0  0  0
   -3.4848    0.7757    0.6055 H   0  0  0  0  0  0  0  0  0  0  0  0
  1  2  1  0
  2  3  2  0
  3  4  1  0
  4  5  1  0
  4  6  2  0
  6  7  1  0
  7  8  2  0
  8  9  1  0
  9 10  2  0
 10 11  1  0
 11 12  2  0
 12 13  1  0
 12 14  1  0
 14 15  2  0
  8 16  1  0
 16 17  2  0
 17 18  1  0
 18 19  2  0
 18 20  1  0
 17 21  1  0
 21 22  2  0
 22  2  1  0
 21  6  1  0
 15  9  1  0
  1 23  1  0
  1 24  1  0
  1 25  1  0
  3 26  1  0
 10 27  1  0
 11 28  1  0
 14 29  1  0
 15 30  1  0
 16 31  1  0
 20 32  1  0
 22 33  1  0
M  END
$$$$
