
     RDKit          3D

 53 54  0  0  0  0  0  0  0  0999 V2000
   -4.9075    2.2286   -0.7942 C   0  0  0  0  0  0  0  0  0  0  0  0
   -6.2091    1.0762   -0.4758 S   0  0  0  0  0  6  0  0  0  0  0  0
   -7.2326    1.7288    0.3884 O   0  0  0  0  0  0  0  0  0  0  0  0
   -6.8589    0.7064   -1.7987 O   0  0  0  0  0  0  0  0  0  0  0  0
   -5.5680   -0.3738    0.2677 N   0  0  0  0  0  0  0  0  0  0  0  0
   -4.6480   -0.9794   -0.6408 C   0  0  0  0  0  0  0  0  0  0  0  0
   -4.0317   -2.2356   -0.1410 C   0  0  0  0  0  0  0  0  0  0  0  0
   -3.1223   -1.9720    1.3362 S   0  0  0  0  0  6  0  0  0  0  0  0
   -2.5360   -3.3016    1.8051 O   0  0  0  0  0  0  0  0  0  0  0  0
   -4.0332   -1.5376    2.4327 O   0  0  0  0  0  0  0  0  0  0  0  0
   -1.8662   -0.8114    1.1408 N   0  0  0  0  0  0  0  0  0  0  0  0
   -0.8893   -1.2215    0.1647 C   0  0  1  0  0  0  0  0  0  0  0  0
   -0.7399   -0.1164   -0.8513 C   0  0  0  0  0  0  0  0  0  0  0  0
    0.6130    0.5490   -0.5600 C   0  0  0  0  0  0  0  0  0  0  0  0
    0.8268    0.1806    0.8773 C   0  0  2  0  0  0  0  0  0  0  0  0
    2.1975    0.4889    1.3961 C   0  0  2  0  0  0  0  0  0  0  0  0
    2.4365    1.8852    1.2811 N   0  0  0  0  0  0  0  0  0  0  0  0
    3.2545   -0.3536    0.8626 C   0  0  0  0  0  0  0  0  0  0  0  0
    3.2706   -1.6229    1.0084 O   0  0  0  0  0  0  0  0  0  0  0  0
    4.3405    0.2166    0.1390 N   0  0  0  0  0  0  0  0  0  0  0  0
    4.5829    1.5911   -0.2109 C   0  0  0  0  0  0  0  0  0  0  0  0
    5.6213    1.5377   -1.3013 C   0  0  0  0  0  0  0  0  0  0  0  0
    6.4842    0.3727   -0.8527 C   0  0  0  0  0  0  0  0  0  0  0  0
    5.4417   -0.5836   -0.3602 C   0  0  0  0  0  0  0  0  0  0  0  0
    0.4643   -1.2725    0.8909 C   0  0  0  0  0  0  0  0  0  0  0  0
   -4.9026    2.9695    0.0458 H   0  0  0  0  0  0  0  0  0  0  0  0
   -3.9191    1.7653   -0.8304 H   0  0  0  0  0  0  0  0  0  0  0  0
   -5.1598    2.7652   -1.7496 H   0  0  0  0  0  0  0  0  0  0  0  0
   -5.0317   -0.0445    1.1253 H   0  0  0  0  0  0  0  0  0  0  0  0
   -5.2068   -1.2496   -1.5931 H   0  0  0  0  0  0  0  0  0  0  0  0
   -3.8816   -0.2475   -1.0104 H   0  0  0  0  0  0  0  0  0  0  0  0
   -4.8231   -3.0075    0.1141 H   0  0  0  0  0  0  0  0  0  0  0  0
   -3.4256   -2.7455   -0.9284 H   0  0  0  0  0  0  0  0  0  0  0  0
   -2.3063    0.0945    0.9130 H   0  0  0  0  0  0  0  0  0  0  0  0
   -1.1188   -2.2066   -0.2886 H   0  0  0  0  0  0  0  0  0  0  0  0
   -0.8125   -0.4572   -1.8830 H   0  0  0  0  0  0  0  0  0  0  0  0
   -1.5155    0.6772   -0.7165 H   0  0  0  0  0  0  0  0  0  0  0  0
    1.3251    0.0925   -1.2494 H   0  0  0  0  0  0  0  0  0  0  0  0
    0.5373    1.6467   -0.7370 H   0  0  0  0  0  0  0  0  0  0  0  0
    0.0931    0.7230    1.4823 H   0  0  0  0  0  0  0  0  0  0  0  0
    2.1505    0.2698    2.5065 H   0  0  0  0  0  0  0  0  0  0  0  0
    2.6904    2.3467    2.1819 H   0  0  0  0  0  0  0  0  0  0  0  0
    1.7237    2.3852    0.7397 H   0  0  0  0  0  0  0  0  0  0  0  0
    5.0206    2.1751    0.6246 H   0  0  0  0  0  0  0  0  0  0  0  0
    3.6824    2.1088   -0.6327 H   0  0  0  0  0  0  0  0  0  0  0  0
    5.1413    1.2683   -2.2883 H   0  0  0  0  0  0  0  0  0  0  0  0
    6.1850    2.4808   -1.3919 H   0  0  0  0  0  0  0  0  0  0  0  0
    7.1283    0.7313   -0.0265 H   0  0  0  0  0  0  0  0  0  0  0  0
    7.0857   -0.0465   -1.6879 H   0  0  0  0  0  0  0  0  0  0  0  0
    5.8492   -1.2641    0.4179 H   0  0  0  0  0  0  0  0  0  0  0  0
    5.1038   -1.2223   -1.2004 H   0  0  0  0  0  0  0  0  0  0  0  0
    1.1096   -1.8663    0.1821 H   0  0  0  0  0  0  0  0  0  0  0  0
    0.3859   -1.7252    1.8766 H   0  0  0  0  0  0  0  0  0  0  0  0
  1  2  1  0
  2  3  2  0
  2  4  2  0
  2  5  1  0
  5  6  1  0
  6  7  1  0
  7  8  1  0
  8  9  2  0
  8 10  2  0
  8 11  1  0
 11 12  1  0
 12 13  1  0
 13 14  1  0
 14 15  1  0
 15 16  1  0
 16 17  1  0
 16 18  1  0
 18 19  2  0
 18 20  1  0
 20 21  1  0
 21 22  1  0
 22 23  1  0
 23 24  1  0
 15 25  1  0
 25 12  1  0
 24 20  1  0
  1 26  1  0
  1 27  1  0
  1 28  1  0
  5 29  1  0
  6 30  1  0
  6 31  1  0
  7 32  1  0
  7 33  1  0
 11 34  1  0
 12 35  1  6
 13 36  1  0
 13 37  1  0
 14 38  1  0
 14 39  1  0
 15 40  1  1
 16 41  1  1
 17 42  1  0
 17 43  1  0
 21 44  1  0
 21 45  1  0
 22 46  1  0
 22 47  1  0
 23 48  1  0
 23 49  1  0
 24 50  1  0
 24 51  1  0
 25 52  1  0
 25 53  1  0
M  END
$$$$
