@<TRIPOS>MOLECULE
*****
 53 54 0 0 0
SMALL
GASTEIGER

@<TRIPOS>ATOM
      1 C          -4.9075    2.2286   -0.7942 C.3     1  UNL1        0.0705
      2 S          -6.2091    1.0762   -0.4758 S.O2    1  UNL1        0.0266
      3 O          -7.2326    1.7288    0.3884 O.2     1  UNL1       -0.1585
      4 O          -6.8589    0.7064   -1.7987 O.2     1  UNL1       -0.1585
      5 N          -5.5680   -0.3738    0.2677 N.3     1  UNL1       -0.1932
      6 C          -4.6480   -0.9794   -0.6408 C.3     1  UNL1        0.0379
      7 C          -4.0317   -2.2356   -0.1410 C.3     1  UNL1        0.0958
      8 S          -3.1223   -1.9720    1.3362 S.O2    1  UNL1        0.0309
      9 O          -2.5360   -3.3016    1.8051 O.2     1  UNL1       -0.1582
     10 O          -4.0332   -1.5376    2.4327 O.2     1  UNL1       -0.1582
     11 N          -1.8662   -0.8114    1.1408 N.3     1  UNL1       -0.1914
     12 C          -0.8893   -1.2215    0.1647 C.3     1  UNL1        0.0288
     13 C          -0.7399   -0.1164   -0.8513 C.3     1  UNL1       -0.0356
     14 C           0.6130    0.5490   -0.5600 C.3     1  UNL1       -0.0468
     15 C           0.8268    0.1806    0.8773 C.3     1  UNL1       -0.0158
     16 C           2.1975    0.4889    1.3961 C.3     1  UNL1        0.0854
     17 N           2.4365    1.8852    1.2811 N.3     1  UNL1       -0.3197
     18 C           3.2545   -0.3536    0.8626 C.2     1  UNL1        0.2327
     19 O           3.2706   -1.6229    1.0084 O.2     1  UNL1       -0.2739
     20 N           4.3405    0.2166    0.1390 N.am    1  UNL1       -0.3002
     21 C           4.5829    1.5911   -0.2109 C.3     1  UNL1        0.0148
     22 C           5.6213    1.5377   -1.3013 C.3     1  UNL1       -0.0357
     23 C           6.4842    0.3727   -0.8527 C.3     1  UNL1       -0.0357
     24 C           5.4417   -0.5836   -0.3602 C.3     1  UNL1        0.0148
     25 C           0.4643   -1.2725    0.8909 C.3     1  UNL1       -0.0313
     26 H          -4.9026    2.9695    0.0458 H       1  UNL1        0.0479
     27 H          -3.9191    1.7653   -0.8304 H       1  UNL1        0.0479
     28 H          -5.1598    2.7652   -1.7496 H       1  UNL1        0.0479
     29 H          -5.0317   -0.0445    1.1253 H       1  UNL1        0.1476
     30 H          -5.2068   -1.2496   -1.5931 H       1  UNL1        0.0458
     31 H          -3.8816   -0.2475   -1.0104 H       1  UNL1        0.0458
     32 H          -4.8231   -3.0075    0.1141 H       1  UNL1        0.0529
     33 H          -3.4256   -2.7455   -0.9284 H       1  UNL1        0.0529
     34 H          -2.3063    0.0945    0.9130 H       1  UNL1        0.1479
     35 H          -1.1188   -2.2066   -0.2886 H       1  UNL1        0.0477
     36 H          -0.8125   -0.4572   -1.8830 H       1  UNL1        0.0281
     37 H          -1.5155    0.6772   -0.7165 H       1  UNL1        0.0281
     38 H           1.3251    0.0925   -1.2494 H       1  UNL1        0.0269
     39 H           0.5373    1.6467   -0.7370 H       1  UNL1        0.0269
     40 H           0.0931    0.7230    1.4823 H       1  UNL1        0.0321
     41 H           2.1505    0.2698    2.5065 H       1  UNL1        0.0557
     42 H           2.6904    2.3467    2.1819 H       1  UNL1        0.1189
     43 H           1.7237    2.3852    0.7397 H       1  UNL1        0.1189
     44 H           5.0206    2.1751    0.6246 H       1  UNL1        0.0464
     45 H           3.6824    2.1088   -0.6327 H       1  UNL1        0.0464
     46 H           5.1413    1.2683   -2.2883 H       1  UNL1        0.0281
     47 H           6.1850    2.4808   -1.3919 H       1  UNL1        0.0281
     48 H           7.1283    0.7313   -0.0265 H       1  UNL1        0.0281
     49 H           7.0857   -0.0465   -1.6879 H       1  UNL1        0.0281
     50 H           5.8492   -1.2641    0.4179 H       1  UNL1        0.0464
     51 H           5.1038   -1.2223   -1.2004 H       1  UNL1        0.0464
     52 H           1.1096   -1.8663    0.1821 H       1  UNL1        0.0284
     53 H           0.3859   -1.7252    1.8766 H       1  UNL1        0.0284
@<TRIPOS>BOND
     1     1     2    1
     2     2     3    2
     3     2     4    2
     4     2     5    1
     5     5     6    1
     6     6     7    1
     7     7     8    1
     8     8     9    2
     9     8    10    2
    10     8    11    1
    11    11    12    1
    12    12    13    1
    13    13    14    1
    14    14    15    1
    15    15    16    1
    16    16    17    1
    17    16    18    1
    18    18    19    2
    19    18    20   am
    20    20    21    1
    21    21    22    1
    22    22    23    1
    23    23    24    1
    24    15    25    1
    25    25    12    1
    26    24    20    1
    27     1    26    1
    28     1    27    1
    29     1    28    1
    30     5    29    1
    31     6    30    1
    32     6    31    1
    33     7    32    1
    34     7    33    1
    35    11    34    1
    36    12    35    1
    37    13    36    1
    38    13    37    1
    39    14    38    1
    40    14    39    1
    41    15    40    1
    42    16    41    1
    43    17    42    1
    44    17    43    1
    45    21    44    1
    46    21    45    1
    47    22    46    1
    48    22    47    1
    49    23    48    1
    50    23    49    1
    51    24    50    1
    52    24    51    1
    53    25    52    1
    54    25    53    1
