@<TRIPOS>MOLECULE
*****
 45 48 0 0 0
SMALL
GASTEIGER

@<TRIPOS>ATOM
      1 C          -2.7985   -1.5361   -1.9160 C.3     1  UNL1       -0.0352
      2 C          -2.2593   -0.5691   -0.8565 C.3     1  UNL1        0.0950
      3 C          -0.9855   -0.0290   -1.4315 C.ar    1  UNL1        0.0168
      4 C           0.2331   -0.3100   -0.8303 C.ar    1  UNL1       -0.0323
      5 C           1.4096    0.1791   -1.3449 C.ar    1  UNL1        0.0342
      6 N           2.6378   -0.1322   -0.6985 N.am    1  UNL1       -0.2802
      7 C           3.2054    0.6639    0.3289 C.2     1  UNL1        0.2666
      8 O           2.5643    1.6932    0.6634 O.2     1  UNL1       -0.2682
      9 C           4.4788    0.3056    0.9715 C.ar    1  UNL1        0.1257
     10 C           5.0014    1.0990    1.9642 C.ar    1  UNL1       -0.0298
     11 C           6.2114    0.7691    2.5831 C.ar    1  UNL1       -0.0397
     12 C           6.8824   -0.3694    2.1855 C.ar    1  UNL1        0.0591
     13 CL          8.4149   -0.8364    2.9312 Cl      1  UNL1       -0.0820
     14 C           6.3325   -1.1453    1.1865 C.ar    1  UNL1        0.0467
     15 N           5.1660   -0.7913    0.6178 N.ar    1  UNL1       -0.2489
     16 C           1.3160    0.9565   -2.4796 C.ar    1  UNL1       -0.0377
     17 C           0.1097    1.2410   -3.0838 C.ar    1  UNL1       -0.0243
     18 C          -1.0731    0.7489   -2.5659 C.ar    1  UNL1        0.1290
     19 F          -2.2715    1.0317   -3.1687 F       1  UNL1       -0.2051
     20 C          -3.2391    0.5390   -0.5988 C.3     1  UNL1        0.0166
     21 C          -4.1251    0.3079    0.5860 C.3     1  UNL1        0.1163
     22 C          -4.2358    1.3740    1.5972 C.3     1  UNL1       -0.0091
     23 C          -5.3905    1.0655    0.7504 C.3     1  UNL1       -0.0091
     24 O          -4.0574   -1.0466    1.0236 O.2     1  UNL1       -0.4592
     25 C          -2.8065   -1.5858    1.2424 C.2     1  UNL1        0.2765
     26 N          -2.4898   -2.3471    2.3907 N.pl3   1  UNL1       -0.3133
     27 N          -1.9270   -1.3447    0.3102 N.2     1  UNL1       -0.2257
     28 H          -1.9835   -2.0894   -2.3855 H       1  UNL1        0.0256
     29 H          -3.3883   -0.9112   -2.6196 H       1  UNL1        0.0256
     30 H          -3.4501   -2.2574   -1.3511 H       1  UNL1        0.0256
     31 H           0.2649   -0.9279    0.0646 H       1  UNL1        0.0640
     32 H           3.1994   -0.9965   -0.9627 H       1  UNL1        0.1552
     33 H           4.4914    2.0052    2.2981 H       1  UNL1        0.0641
     34 H           6.6465    1.3599    3.3556 H       1  UNL1        0.0633
     35 H           6.8794   -2.0369    0.8905 H       1  UNL1        0.0844
     36 H           2.2359    1.3456   -2.8916 H       1  UNL1        0.0637
     37 H           0.0293    1.8548   -3.9807 H       1  UNL1        0.0647
     38 H          -3.8372    0.6872   -1.5428 H       1  UNL1        0.0330
     39 H          -2.7076    1.5207   -0.4394 H       1  UNL1        0.0330
     40 H          -4.2964    1.1361    2.6938 H       1  UNL1        0.0305
     41 H          -3.7198    2.3545    1.4375 H       1  UNL1        0.0305
     42 H          -5.6537    1.7303   -0.1138 H       1  UNL1        0.0305
     43 H          -6.2589    0.5681    1.2055 H       1  UNL1        0.0305
     44 H          -3.1952   -2.9875    2.8065 H       1  UNL1        0.1466
     45 H          -1.5605   -2.2868    2.8399 H       1  UNL1        0.1466
@<TRIPOS>BOND
     1     2     1    1
     2     2     3    1
     3     3     4   ar
     4     4     5   ar
     5     5     6    1
     6     6     7   am
     7     7     8    2
     8     7     9    1
     9     9    10   ar
    10    10    11   ar
    11    11    12   ar
    12    12    13    1
    13    12    14   ar
    14    14    15   ar
    15     5    16   ar
    16    16    17   ar
    17    17    18   ar
    18    18    19    1
    19     2    20    1
    20    20    21    1
    21    21    22    1
    22    22    23    1
    23    21    24    1
    24    24    25    1
    25    25    26    1
    26    25    27    2
    27    27     2    1
    28    18     3   ar
    29    23    21    1
    30    15     9   ar
    31     1    28    1
    32     1    29    1
    33     1    30    1
    34     4    31    1
    35     6    32    1
    36    10    33    1
    37    11    34    1
    38    14    35    1
    39    16    36    1
    40    17    37    1
    41    20    38    1
    42    20    39    1
    43    22    40    1
    44    22    41    1
    45    23    42    1
    46    23    43    1
    47    26    44    1
    48    26    45    1
