
     RDKit          3D

 45 48  0  0  0  0  0  0  0  0999 V2000
   -2.7985   -1.5361   -1.9160 C   0  0  0  0  0  0  0  0  0  0  0  0
   -2.2593   -0.5691   -0.8565 C   0  0  1  0  0  0  0  0  0  0  0  0
   -0.9855   -0.0290   -1.4315 C   0  0  0  0  0  0  0  0  0  0  0  0
    0.2331   -0.3100   -0.8303 C   0  0  0  0  0  0  0  0  0  0  0  0
    1.4096    0.1791   -1.3449 C   0  0  0  0  0  0  0  0  0  0  0  0
    2.6378   -0.1322   -0.6985 N   0  0  0  0  0  0  0  0  0  0  0  0
    3.2054    0.6639    0.3289 C   0  0  0  0  0  0  0  0  0  0  0  0
    2.5643    1.6932    0.6634 O   0  0  0  0  0  0  0  0  0  0  0  0
    4.4788    0.3056    0.9715 C   0  0  0  0  0  0  0  0  0  0  0  0
    5.0014    1.0990    1.9642 C   0  0  0  0  0  0  0  0  0  0  0  0
    6.2114    0.7691    2.5831 C   0  0  0  0  0  0  0  0  0  0  0  0
    6.8824   -0.3694    2.1855 C   0  0  0  0  0  0  0  0  0  0  0  0
    8.4149   -0.8364    2.9312 Cl  0  0  0  0  0  0  0  0  0  0  0  0
    6.3325   -1.1453    1.1865 C   0  0  0  0  0  0  0  0  0  0  0  0
    5.1660   -0.7913    0.6178 N   0  0  0  0  0  0  0  0  0  0  0  0
    1.3160    0.9565   -2.4796 C   0  0  0  0  0  0  0  0  0  0  0  0
    0.1097    1.2410   -3.0838 C   0  0  0  0  0  0  0  0  0  0  0  0
   -1.0731    0.7489   -2.5659 C   0  0  0  0  0  0  0  0  0  0  0  0
   -2.2715    1.0317   -3.1687 F   0  0  0  0  0  0  0  0  0  0  0  0
   -3.2391    0.5390   -0.5988 C   0  0  0  0  0  0  0  0  0  0  0  0
   -4.1251    0.3079    0.5860 C   0  0  0  0  0  0  0  0  0  0  0  0
   -4.2358    1.3740    1.5972 C   0  0  0  0  0  0  0  0  0  0  0  0
   -5.3905    1.0655    0.7504 C   0  0  0  0  0  0  0  0  0  0  0  0
   -4.0574   -1.0466    1.0236 O   0  0  0  0  0  0  0  0  0  0  0  0
   -2.8065   -1.5858    1.2424 C   0  0  0  0  0  0  0  0  0  0  0  0
   -2.4898   -2.3471    2.3907 N   0  0  0  0  0  0  0  0  0  0  0  0
   -1.9270   -1.3447    0.3102 N   0  0  0  0  0  0  0  0  0  0  0  0
   -1.9835   -2.0894   -2.3855 H   0  0  0  0  0  0  0  0  0  0  0  0
   -3.3883   -0.9112   -2.6196 H   0  0  0  0  0  0  0  0  0  0  0  0
   -3.4501   -2.2574   -1.3511 H   0  0  0  0  0  0  0  0  0  0  0  0
    0.2649   -0.9279    0.0646 H   0  0  0  0  0  0  0  0  0  0  0  0
    3.1994   -0.9965   -0.9627 H   0  0  0  0  0  0  0  0  0  0  0  0
    4.4914    2.0052    2.2981 H   0  0  0  0  0  0  0  0  0  0  0  0
    6.6465    1.3599    3.3556 H   0  0  0  0  0  0  0  0  0  0  0  0
    6.8794   -2.0369    0.8905 H   0  0  0  0  0  0  0  0  0  0  0  0
    2.2359    1.3456   -2.8916 H   0  0  0  0  0  0  0  0  0  0  0  0
    0.0293    1.8548   -3.9807 H   0  0  0  0  0  0  0  0  0  0  0  0
   -3.8372    0.6872   -1.5428 H   0  0  0  0  0  0  0  0  0  0  0  0
   -2.7076    1.5207   -0.4394 H   0  0  0  0  0  0  0  0  0  0  0  0
   -4.2964    1.1361    2.6938 H   0  0  0  0  0  0  0  0  0  0  0  0
   -3.7198    2.3545    1.4375 H   0  0  0  0  0  0  0  0  0  0  0  0
   -5.6537    1.7303   -0.1138 H   0  0  0  0  0  0  0  0  0  0  0  0
   -6.2589    0.5681    1.2055 H   0  0  0  0  0  0  0  0  0  0  0  0
   -3.1952   -2.9875    2.8065 H   0  0  0  0  0  0  0  0  0  0  0  0
   -1.5605   -2.2868    2.8399 H   0  0  0  0  0  0  0  0  0  0  0  0
  2  1  1  6
  2  3  1  0
  3  4  2  0
  4  5  1  0
  5  6  1  0
  6  7  1  0
  7  8  2  0
  7  9  1  0
  9 10  2  0
 10 11  1  0
 11 12  2  0
 12 13  1  0
 12 14  1  0
 14 15  2  0
  5 16  2  0
 16 17  1  0
 17 18  2  0
 18 19  1  0
  2 20  1  0
 20 21  1  0
 21 22  1  0
 22 23  1  0
 21 24  1  0
 24 25  1  0
 25 26  1  0
 25 27  2  0
 27  2  1  0
 18  3  1  0
 23 21  1  0
 15  9  1  0
  1 28  1  0
  1 29  1  0
  1 30  1  0
  4 31  1  0
  6 32  1  0
 10 33  1  0
 11 34  1  0
 14 35  1  0
 16 36  1  0
 17 37  1  0
 20 38  1  0
 20 39  1  0
 22 40  1  0
 22 41  1  0
 23 42  1  0
 23 43  1  0
 26 44  1  0
 26 45  1  0
M  END
$$$$
