@<TRIPOS>MOLECULE
*****
 120 121 0 0 0
SMALL
GASTEIGER

@<TRIPOS>ATOM
      1 C          -4.7425    6.5308    0.3878 C.3     1  UNK1       -0.0524
      2 C          -5.4735    5.2412    0.6197 C.3     1  UNK1       -0.0040
      3 N          -4.8292    4.3392    1.5161 N.3     1  UNK1       -0.3028
      4 C          -4.8605    4.8465    2.8588 C.3     1  UNK1       -0.0040
      5 C          -4.0282    6.0471    3.1381 C.3     1  UNK1       -0.0524
      6 C          -5.4639    3.0317    1.5302 C.3     1  UNK1       -0.0011
      7 C          -5.3053    2.2873    0.2568 C.3     1  UNK1       -0.0401
      8 C          -3.8645    1.9981   -0.1113 C.3     1  UNK1       -0.0498
      9 C          -3.7802    1.2869   -1.4324 C.3     1  UNK1       -0.0259
     10 C          -4.4811   -0.0113   -1.5196 C.3     1  UNK1        0.0994
     11 N          -4.1214   -1.0777   -0.6861 N.am    1  UNK1       -0.3025
     12 C          -2.7724   -1.3980   -0.4301 C.2     1  UNK1        0.2340
     13 O          -1.9022   -0.6943   -0.9651 O.2     1  UNK1       -0.2738
     14 C          -2.3567   -2.5460    0.4461 C.3     1  UNK1        0.0996
     15 C          -2.9834   -2.3593    1.7807 C.3     1  UNK1       -0.0236
     16 C          -2.6595   -3.4398    2.7671 C.3     1  UNK1       -0.0446
     17 C          -3.0951   -4.8040    2.3182 C.3     1  UNK1       -0.0626
     18 C          -1.2355   -3.4672    3.2018 C.3     1  UNK1       -0.0626
     19 N          -0.9346   -2.7180    0.4558 N.am    1  UNK1       -0.3025
     20 C          -0.2861   -3.7760   -0.2681 C.2     1  UNK1        0.2337
     21 O          -1.0518   -4.5335   -0.9167 O.2     1  UNK1       -0.2738
     22 C           1.1546   -4.0190   -0.2996 C.3     1  UNK1        0.0966
     23 C           1.5278   -5.4532   -0.0712 C.3     1  UNK1       -0.0381
     24 N           1.9523   -3.1718    0.5308 N.am    1  UNK1       -0.3027
     25 C           2.8099   -2.1515    0.1013 C.2     1  UNK1        0.2343
     26 O           2.9056   -1.9209   -1.1294 O.2     1  UNK1       -0.2738
     27 C           3.6342   -1.3031    1.0298 C.3     1  UNK1        0.1036
     28 C           2.6496   -0.6835    2.0255 C.3     1  UNK1       -0.0006
     29 C           3.3676    0.1687    2.9978 C.ar    1  UNK1       -0.0451
     30 C           3.8180   -0.3691    4.1821 C.ar    1  UNK1       -0.0585
     31 C           4.5110    0.3824    5.1156 C.ar    1  UNK1       -0.0615
     32 C           4.7488    1.7285    4.8237 C.ar    1  UNK1       -0.0617
     33 C           4.3095    2.2958    3.6453 C.ar    1  UNK1       -0.0615
     34 C           3.6140    1.4841    2.7411 C.ar    1  UNK1       -0.0585
     35 N           4.3562   -0.2985    0.3120 N.am    1  UNK1       -0.2997
     36 C           5.7712   -0.3031    0.3244 C.2     0  UNK0        0.2447
     37 O           6.3615   -1.2120    0.9802 O.2     0  UNK0       -0.2702
     38 C           6.5844    0.6686   -0.3692 C.ar    0  UNK0        0.0367
     39 C           7.9559    0.5583   -0.4213 C.ar    0  UNK0       -0.0494
     40 C           8.7403    1.4927   -1.0888 C.ar    0  UNK0       -0.0576
     41 C           8.1704    2.5689   -1.7247 C.ar    0  UNK0       -0.0448
     42 C           8.9979    3.5592   -2.4476 C.3     0  UNK0       -0.0215
     43 C           9.6935    2.9293   -3.6459 C.3     0  UNK0       -0.0587
     44 C          10.0440    4.2092   -1.5929 C.3     0  UNK0       -0.0587
     45 C           6.7967    2.6910   -1.6788 C.ar    0  UNK0       -0.0576
     46 C           6.0352    1.7510   -1.0110 C.ar    0  UNK0       -0.0494
     47 C          -4.4453   -0.5013   -2.9313 C.2     1  UNK1        0.2340
     48 O          -4.7432    0.2516   -3.8717 O.2     1  UNK1       -0.2738
     49 N          -4.0661   -1.8443   -3.2272 N.am    2  UNK2       -0.2991
     50 C          -3.9875   -2.4293   -4.5257 C.3     2  UNK2        0.1437
     51 C          -2.5625   -2.8640   -4.7991 C.3     2  UNK2        0.0730
     52 O          -2.1887   -3.8054   -3.8220 O.3     2  UNK2       -0.3926
     53 C          -4.9154   -3.5945   -4.6787 C.2     2  UNK2        0.3297
     54 O          -4.9205   -4.2137   -5.7729 O.2     2  UNK2       -0.2487
     55 O          -5.7516   -4.0067   -3.6785 O.3     2  UNK2       -0.4666
     56 C          -6.6465   -5.0957   -3.7572 C.3     2  UNK2        0.0817
     57 H          -4.6976    6.6452   -0.7492 H       1  UNK1        0.0242
     58 H          -5.3096    7.4377    0.6955 H       1  UNK1        0.0242
     59 H          -3.6877    6.5299    0.6799 H       1  UNK1        0.0242
     60 H          -5.7565    4.7493   -0.3499 H       1  UNK1        0.0424
     61 H          -6.4874    5.5526    1.0318 H       1  UNK1        0.0424
     62 H          -5.9363    5.1725    3.0247 H       1  UNK1        0.0424
     63 H          -4.7147    4.0463    3.6210 H       1  UNK1        0.0424
     64 H          -3.9650    6.0963    4.2785 H       1  UNK1        0.0242
     65 H          -2.9616    5.9635    2.8406 H       1  UNK1        0.0242
     66 H          -4.5208    6.9850    2.8713 H       1  UNK1        0.0242
     67 H          -5.0063    2.4503    2.3481 H       1  UNK1        0.0426
     68 H          -6.5308    3.1584    1.7395 H       1  UNK1        0.0426
     69 H          -5.8548    2.7239   -0.5977 H       1  UNK1        0.0278
     70 H          -5.7767    1.2702    0.4199 H       1  UNK1        0.0278
     71 H          -3.3922    1.4828    0.7321 H       1  UNK1        0.0266
     72 H          -3.3771    3.0020   -0.1827 H       1  UNK1        0.0266
     73 H          -2.7535    1.2762   -1.8493 H       1  UNK1        0.0288
     74 H          -4.3341    1.9697   -2.1557 H       1  UNK1        0.0288
     75 H          -5.5751    0.2416   -1.3231 H       1  UNK1        0.0594
     76 H          -4.9063   -1.6538   -0.2402 H       1  UNK1        0.1495
     77 H          -2.7776   -3.4867   -0.0357 H       1  UNK1        0.0594
     78 H          -4.0773   -2.2053    1.6982 H       1  UNK1        0.0290
     79 H          -2.5995   -1.4048    2.2443 H       1  UNK1        0.0290
     80 H          -3.2694   -3.2211    3.6945 H       1  UNK1        0.0296
     81 H          -2.6893   -5.0850    1.3168 H       1  UNK1        0.0232
     82 H          -4.1831   -4.9706    2.3959 H       1  UNK1        0.0232
     83 H          -2.6257   -5.5216    3.0397 H       1  UNK1        0.0232
     84 H          -0.8896   -2.4211    3.3006 H       1  UNK1        0.0232
     85 H          -0.5742   -4.0852    2.5843 H       1  UNK1        0.0232
     86 H          -1.2048   -3.9057    4.2408 H       1  UNK1        0.0232
     87 H          -0.3348   -2.0762    0.9910 H       1  UNK1        0.1495
     88 H           1.4892   -3.7846   -1.3649 H       1  UNK1        0.0592
     89 H           2.6159   -5.5602    0.1255 H       1  UNK1        0.0252
     90 H           1.3507   -6.0801   -0.9946 H       1  UNK1        0.0252
     91 H           0.9724   -5.9387    0.7413 H       1  UNK1        0.0252
     92 H           1.8884   -3.3365    1.5796 H       1  UNK1        0.1495
     93 H           4.3560   -1.9491    1.5683 H       1  UNK1        0.0598
     94 H           1.8591   -0.1184    1.4581 H       1  UNK1        0.0336
     95 H           2.1218   -1.5391    2.5037 H       1  UNK1        0.0336
     96 H           3.6435   -1.4083    4.4265 H       1  UNK1        0.0620
     97 H           4.8626   -0.0383    6.0424 H       1  UNK1        0.0618
     98 H           5.2975    2.2978    5.5743 H       1  UNK1        0.0618
     99 H           4.5166    3.3381    3.4659 H       1  UNK1        0.0618
    100 H           3.2910    1.9850    1.8329 H       1  UNK1        0.0620
    101 H           3.8584    0.4396   -0.2250 H       1  UNK1        0.1498
    102 H           8.4608   -0.2595    0.0524 H       0  UNK0        0.0625
    103 H           9.8214    1.4005   -1.1268 H       0  UNK0        0.0621
    104 H           8.3021    4.3729   -2.8013 H       0  UNK0        0.0343
    105 H           9.0331    2.2178   -4.1693 H       0  UNK0        0.0235
    106 H           9.9432    3.7249   -4.4074 H       0  UNK0        0.0235
    107 H          10.6597    2.4637   -3.3566 H       0  UNK0        0.0235
    108 H          10.1699    5.2675   -1.9163 H       0  UNK0        0.0235
    109 H           9.7917    4.2573   -0.5190 H       0  UNK0        0.0235
    110 H          11.0412    3.7183   -1.7708 H       0  UNK0        0.0235
    111 H           6.3656    3.5564   -2.1886 H       0  UNK0        0.0621
    112 H           4.9691    1.9006   -1.0064 H       0  UNK0        0.0625
    113 H          -3.8245   -2.4515   -2.3973 H       2  UNK2        0.1496
    114 H          -4.2436   -1.6906   -5.3424 H       2  UNK2        0.0638
    115 H          -1.8582   -2.0321   -4.7734 H       2  UNK2        0.0581
    116 H          -2.4925   -3.3876   -5.7938 H       2  UNK2        0.0581
    117 H          -3.0386   -4.1561   -3.4007 H       2  UNK2        0.2095
    118 H          -6.5307   -5.7343   -2.8424 H       2  UNK2        0.0661
    119 H          -7.6664   -4.7192   -3.8801 H       2  UNK2        0.0661
    120 H          -6.3121   -5.7547   -4.6123 H       2  UNK2        0.0661
@<TRIPOS>BOND
     1     1     2    1
     2     2     3    1
     3     3     4    1
     4     4     5    1
     5     3     6    1
     6     6     7    1
     7     7     8    1
     8     8     9    1
     9     9    10    1
    10    10    11    1
    11    11    12   am
    12    12    13    2
    13    12    14    1
    14    14    15    1
    15    15    16    1
    16    16    17    1
    17    16    18    1
    18    14    19    1
    19    19    20   am
    20    20    21    2
    21    20    22    1
    22    22    23    1
    23    22    24    1
    24    24    25   am
    25    25    26    2
    26    25    27    1
    27    27    28    1
    28    28    29    1
    29    29    30   ar
    30    30    31   ar
    31    31    32   ar
    32    32    33   ar
    33    33    34   ar
    34    27    35    1
    35    35    36   am
    36    36    37    2
    37    36    38    1
    38    38    39   ar
    39    39    40   ar
    40    40    41   ar
    41    41    42    1
    42    42    43    1
    43    42    44    1
    44    41    45   ar
    45    45    46   ar
    46    10    47    1
    47    47    48    2
    48    47    49   am
    49    49    50    1
    50    50    51    1
    51    51    52    1
    52    50    53    1
    53    53    54    2
    54    53    55    1
    55    55    56    1
    56    34    29   ar
    57    46    38   ar
    58     1    57    1
    59     1    58    1
    60     1    59    1
    61     2    60    1
    62     2    61    1
    63     4    62    1
    64     4    63    1
    65     5    64    1
    66     5    65    1
    67     5    66    1
    68     6    67    1
    69     6    68    1
    70     7    69    1
    71     7    70    1
    72     8    71    1
    73     8    72    1
    74     9    73    1
    75     9    74    1
    76    10    75    1
    77    11    76    1
    78    14    77    1
    79    15    78    1
    80    15    79    1
    81    16    80    1
    82    17    81    1
    83    17    82    1
    84    17    83    1
    85    18    84    1
    86    18    85    1
    87    18    86    1
    88    19    87    1
    89    22    88    1
    90    23    89    1
    91    23    90    1
    92    23    91    1
    93    24    92    1
    94    27    93    1
    95    28    94    1
    96    28    95    1
    97    30    96    1
    98    31    97    1
    99    32    98    1
   100    33    99    1
   101    34   100    1
   102    35   101    1
   103    39   102    1
   104    40   103    1
   105    42   104    1
   106    43   105    1
   107    43   106    1
   108    43   107    1
   109    44   108    1
   110    44   109    1
   111    44   110    1
   112    45   111    1
   113    46   112    1
   114    49   113    1
   115    50   114    1
   116    51   115    1
   117    51   116    1
   118    52   117    1
   119    56   118    1
   120    56   119    1
   121    56   120    1
