@<TRIPOS>MOLECULE
*****
 17 18 0 0 0
SMALL
GASTEIGER

@<TRIPOS>ATOM
      1 CL          4.2325   -0.7921    0.3159 Cl      1  UNL1       -0.0416
      2 C           2.6364   -0.0883    0.1685 C.ar    1  UNL1        0.2170
      3 C           1.5604   -0.9522    0.1625 C.ar    1  UNL1        0.1029
      4 CL          1.7738   -2.6833    0.2963 Cl      1  UNL1       -0.0781
      5 C           0.2541   -0.5319    0.0528 C.ar    1  UNL1        0.0118
      6 C          -0.8201   -1.4049    0.0475 C.ar    1  UNL1       -0.0523
      7 C          -2.1169   -0.9450   -0.0644 C.ar    1  UNL1       -0.0611
      8 C          -2.2933    0.4161   -0.1702 C.ar    1  UNL1       -0.0609
      9 C          -1.2735    1.3398   -0.1718 C.ar    1  UNL1       -0.0471
     10 C           0.0083    0.8233   -0.0569 C.ar    1  UNL1        0.0681
     11 C           1.1311    1.6245   -0.0436 C.ar    1  UNL1        0.3459
     12 O           0.9183    2.8732   -0.1438 O.2     1  UNL1       -0.2445
     13 O           2.3598    1.1926    0.0621 O.2     1  UNL1       -0.4086
     14 H          -0.6373   -2.4478    0.1315 H       1  UNL1        0.0624
     15 H          -2.9864   -1.6125   -0.0714 H       1  UNL1        0.0618
     16 H          -3.3244    0.7819   -0.2592 H       1  UNL1        0.0618
     17 H          -1.4227    2.4067   -0.2555 H       1  UNL1        0.0626
@<TRIPOS>BOND
     1     1     2    1
     2     2     3   ar
     3     3     4    1
     4     3     5   ar
     5     5     6   ar
     6     6     7   ar
     7     7     8   ar
     8     8     9   ar
     9     9    10   ar
    10    10    11   ar
    11    11    12    2
    12    11    13   ar
    13    13     2   ar
    14    10     5   ar
    15     6    14    1
    16     7    15    1
    17     8    16    1
    18     9    17    1
