@<TRIPOS>MOLECULE
*****
 88 93 0 0 0
SMALL
GASTEIGER

@<TRIPOS>ATOM
      1 C         -10.9288   -2.3140   -0.4942 C.3     1  UNL1        0.0790
      2 O         -10.7212   -0.9334   -0.3916 O.3     1  UNL1       -0.4915
      3 C          -9.5321   -0.3114   -0.0829 C.ar    1  UNL1        0.1615
      4 C          -8.3799   -1.0142    0.1688 C.ar    1  UNL1       -0.0160
      5 C          -7.1985   -0.3325    0.4771 C.ar    1  UNL1       -0.0537
      6 C          -7.1597    1.0427    0.5355 C.ar    1  UNL1       -0.0297
      7 C          -5.9183    1.7841    0.8544 C.3     1  UNL1        0.0243
      8 N          -5.1548    2.1387   -0.3252 N.3     1  UNL1       -0.2952
      9 C          -3.9762    2.9026    0.0053 C.3     1  UNL1        0.0150
     10 C          -2.7282    2.4687   -0.7052 C.3     1  UNL1        0.0250
     11 N          -2.6061    1.0508   -0.8257 N.pl3   1  UNL1       -0.3274
     12 C          -1.3648    0.4548   -1.0782 C.ar    1  UNL1        0.0299
     13 C          -1.2027   -0.9071   -0.8558 C.ar    1  UNL1       -0.0389
     14 C          -0.0009   -1.5360   -1.1177 C.ar    1  UNL1       -0.0387
     15 C           1.0681   -0.7929   -1.6140 C.ar    1  UNL1        0.0338
     16 N           2.3180   -1.4188   -1.9059 N.am    1  UNL1       -0.2814
     17 C           3.4067   -1.5115   -1.0184 C.2     1  UNL1        0.2502
     18 O           3.2827   -0.9960    0.1190 O.2     1  UNL1       -0.2698
     19 C           4.6401   -2.1853   -1.4016 C.ar    1  UNL1        0.0619
     20 C           4.8028   -2.8195   -2.6235 C.ar    1  UNL1       -0.0024
     21 C           5.9580   -3.4914   -2.9915 C.ar    1  UNL1        0.1623
     22 O           6.1267   -4.1218   -4.2025 O.3     1  UNL1       -0.4914
     23 C           5.1676   -4.1675   -5.2187 C.3     1  UNL1        0.0790
     24 C           6.9893   -3.5027   -2.0441 C.ar    1  UNL1        0.1633
     25 O           8.1462   -4.1806   -2.4176 O.3     1  UNL1       -0.4914
     26 C           9.2723   -4.2746   -1.5635 C.3     1  UNL1        0.0790
     27 C           6.8310   -2.8731   -0.8311 C.ar    1  UNL1        0.0057
     28 C           5.6751   -2.2099   -0.4838 C.ar    1  UNL1        0.0495
     29 N           5.6074   -1.5624    0.7969 N.am    1  UNL1       -0.2807
     30 C           6.0106   -0.2226    0.9669 C.2     1  UNL1        0.2498
     31 O           6.4314    0.3671   -0.0882 O.2     1  UNL1       -0.2698
     32 C           5.9879    0.5220    2.2154 C.ar    1  UNL1        0.0557
     33 C           5.5256   -0.0699    3.3664 C.ar    1  UNL1        0.0404
     34 N           5.5045    0.6157    4.5509 N.ar    1  UNL1       -0.2542
     35 C           5.9347    1.8862    4.6235 C.ar    1  UNL1        0.0710
     36 C           5.9168    2.5898    5.8320 C.ar    1  UNL1       -0.0357
     37 C           6.3673    3.8986    5.8834 C.ar    1  UNL1       -0.0597
     38 C           6.8434    4.5553    4.7729 C.ar    1  UNL1       -0.0611
     39 C           6.8510    3.8322    3.5779 C.ar    1  UNL1       -0.0525
     40 C           6.4074    2.5287    3.5046 C.ar    1  UNL1        0.0011
     41 C           6.4261    1.8253    2.3017 C.ar    1  UNL1       -0.0390
     42 C           0.9049    0.5530   -1.8317 C.ar    1  UNL1       -0.0387
     43 C          -0.2858    1.1964   -1.5758 C.ar    1  UNL1       -0.0389
     44 C          -3.7926    0.2123   -0.7105 C.3     1  UNL1        0.0250
     45 C          -4.9275    1.0743   -1.2409 C.3     1  UNL1        0.0150
     46 C          -8.3288    1.7207    0.2793 C.ar    1  UNL1       -0.0119
     47 C          -9.4947    1.0595   -0.0244 C.ar    1  UNL1        0.1618
     48 O         -10.6487    1.8247   -0.2731 O.3     1  UNL1       -0.4914
     49 C         -10.6386    3.2248   -0.2167 C.3     1  UNL1        0.0790
     50 H         -11.9781   -2.6017   -0.2272 H       1  UNL1        0.0660
     51 H         -10.2412   -2.9313    0.0918 H       1  UNL1        0.0660
     52 H         -10.8195   -2.6350   -1.5610 H       1  UNL1        0.0660
     53 H          -8.3613   -2.1014    0.1335 H       1  UNL1        0.0655
     54 H          -6.2999   -0.8983    0.6727 H       1  UNL1        0.0622
     55 H          -6.1762    2.7392    1.3703 H       1  UNL1        0.0476
     56 H          -5.3144    1.1907    1.5756 H       1  UNL1        0.0476
     57 H          -4.1818    3.9626   -0.3062 H       1  UNL1        0.0442
     58 H          -3.8474    2.9323    1.1106 H       1  UNL1        0.0442
     59 H          -1.8619    2.8082   -0.0714 H       1  UNL1        0.0476
     60 H          -2.5877    3.0095   -1.6696 H       1  UNL1        0.0476
     61 H          -2.0456   -1.4821   -0.4653 H       1  UNL1        0.0637
     62 H           0.1621   -2.5837   -0.9574 H       1  UNL1        0.0637
     63 H           2.3879   -1.8267   -2.8627 H       1  UNL1        0.1551
     64 H           4.0027   -2.8066   -3.3454 H       1  UNL1        0.0663
     65 H           5.7112   -4.0915   -6.2050 H       1  UNL1        0.0660
     66 H           4.6603   -5.1560   -5.2350 H       1  UNL1        0.0660
     67 H           4.4307   -3.3582   -5.2198 H       1  UNL1        0.0660
     68 H           9.0907   -5.0485   -0.8103 H       1  UNL1        0.0660
     69 H           9.3838   -3.2509   -1.1090 H       1  UNL1        0.0660
     70 H          10.2053   -4.4462   -2.1446 H       1  UNL1        0.0660
     71 H           7.6512   -2.8947   -0.1001 H       1  UNL1        0.0674
     72 H           5.2557   -2.0834    1.6207 H       1  UNL1        0.1552
     73 H           5.1674   -1.0803    3.3804 H       1  UNL1        0.0837
     74 H           5.5572    2.1306    6.7300 H       1  UNL1        0.0639
     75 H           6.3616    4.4667    6.8171 H       1  UNL1        0.0618
     76 H           7.2043    5.5921    4.8035 H       1  UNL1        0.0618
     77 H           7.2093    4.2828    2.6633 H       1  UNL1        0.0624
     78 H           6.7889    2.3153    1.4335 H       1  UNL1        0.0632
     79 H           1.7633    1.1143   -2.2228 H       1  UNL1        0.0637
     80 H          -0.4061    2.2460   -1.7477 H       1  UNL1        0.0637
     81 H          -3.7175   -0.7184   -1.3017 H       1  UNL1        0.0476
     82 H          -3.9411   -0.0528    0.3363 H       1  UNL1        0.0476
     83 H          -4.5779    1.5070   -2.2012 H       1  UNL1        0.0442
     84 H          -5.8152    0.4592   -1.3489 H       1  UNL1        0.0442
     85 H          -8.3136    2.8105    0.3212 H       1  UNL1        0.0658
     86 H          -9.9016    3.6894   -0.9157 H       1  UNL1        0.0660
     87 H         -10.3993    3.5912    0.8171 H       1  UNL1        0.0660
     88 H         -11.6210    3.6203   -0.4789 H       1  UNL1        0.0660
@<TRIPOS>BOND
     1     1     2    1
     2     2     3    1
     3     3     4   ar
     4     4     5   ar
     5     5     6   ar
     6     6     7    1
     7     7     8    1
     8     8     9    1
     9     9    10    1
    10    10    11    1
    11    11    12    1
    12    12    13   ar
    13    13    14   ar
    14    14    15   ar
    15    15    16    1
    16    16    17   am
    17    17    18    2
    18    17    19    1
    19    19    20   ar
    20    20    21   ar
    21    21    22    1
    22    22    23    1
    23    21    24   ar
    24    24    25    1
    25    25    26    1
    26    24    27   ar
    27    27    28   ar
    28    28    29    1
    29    29    30   am
    30    30    31    2
    31    30    32    1
    32    32    33   ar
    33    33    34   ar
    34    34    35   ar
    35    35    36   ar
    36    36    37   ar
    37    37    38   ar
    38    38    39   ar
    39    39    40   ar
    40    40    41   ar
    41    15    42   ar
    42    42    43   ar
    43    11    44    1
    44    44    45    1
    45     6    46   ar
    46    46    47   ar
    47    47    48    1
    48    48    49    1
    49    47     3   ar
    50    45     8    1
    51    43    12   ar
    52    28    19   ar
    53    41    32   ar
    54    40    35   ar
    55     1    50    1
    56     1    51    1
    57     1    52    1
    58     4    53    1
    59     5    54    1
    60     7    55    1
    61     7    56    1
    62     9    57    1
    63     9    58    1
    64    10    59    1
    65    10    60    1
    66    13    61    1
    67    14    62    1
    68    16    63    1
    69    20    64    1
    70    23    65    1
    71    23    66    1
    72    23    67    1
    73    26    68    1
    74    26    69    1
    75    26    70    1
    76    27    71    1
    77    29    72    1
    78    33    73    1
    79    36    74    1
    80    37    75    1
    81    38    76    1
    82    39    77    1
    83    41    78    1
    84    42    79    1
    85    43    80    1
    86    44    81    1
    87    44    82    1
    88    45    83    1
    89    45    84    1
    90    46    85    1
    91    49    86    1
    92    49    87    1
    93    49    88    1
