
     RDKit          3D

 88 93  0  0  0  0  0  0  0  0999 V2000
  -10.9288   -2.3140   -0.4942 C   0  0  0  0  0  0  0  0  0  0  0  0
  -10.7212   -0.9334   -0.3916 O   0  0  0  0  0  0  0  0  0  0  0  0
   -9.5321   -0.3114   -0.0829 C   0  0  0  0  0  0  0  0  0  0  0  0
   -8.3799   -1.0142    0.1688 C   0  0  0  0  0  0  0  0  0  0  0  0
   -7.1985   -0.3325    0.4771 C   0  0  0  0  0  0  0  0  0  0  0  0
   -7.1597    1.0427    0.5355 C   0  0  0  0  0  0  0  0  0  0  0  0
   -5.9183    1.7841    0.8544 C   0  0  0  0  0  0  0  0  0  0  0  0
   -5.1548    2.1387   -0.3252 N   0  0  0  0  0  0  0  0  0  0  0  0
   -3.9762    2.9026    0.0053 C   0  0  0  0  0  0  0  0  0  0  0  0
   -2.7282    2.4687   -0.7052 C   0  0  0  0  0  0  0  0  0  0  0  0
   -2.6061    1.0508   -0.8257 N   0  0  0  0  0  0  0  0  0  0  0  0
   -1.3648    0.4548   -1.0782 C   0  0  0  0  0  0  0  0  0  0  0  0
   -1.2027   -0.9071   -0.8558 C   0  0  0  0  0  0  0  0  0  0  0  0
   -0.0009   -1.5360   -1.1177 C   0  0  0  0  0  0  0  0  0  0  0  0
    1.0681   -0.7929   -1.6140 C   0  0  0  0  0  0  0  0  0  0  0  0
    2.3180   -1.4188   -1.9059 N   0  0  0  0  0  0  0  0  0  0  0  0
    3.4067   -1.5115   -1.0184 C   0  0  0  0  0  0  0  0  0  0  0  0
    3.2827   -0.9960    0.1190 O   0  0  0  0  0  0  0  0  0  0  0  0
    4.6401   -2.1853   -1.4016 C   0  0  0  0  0  0  0  0  0  0  0  0
    4.8028   -2.8195   -2.6235 C   0  0  0  0  0  0  0  0  0  0  0  0
    5.9580   -3.4914   -2.9915 C   0  0  0  0  0  0  0  0  0  0  0  0
    6.1267   -4.1218   -4.2025 O   0  0  0  0  0  0  0  0  0  0  0  0
    5.1676   -4.1675   -5.2187 C   0  0  0  0  0  0  0  0  0  0  0  0
    6.9893   -3.5027   -2.0441 C   0  0  0  0  0  0  0  0  0  0  0  0
    8.1462   -4.1806   -2.4176 O   0  0  0  0  0  0  0  0  0  0  0  0
    9.2723   -4.2746   -1.5635 C   0  0  0  0  0  0  0  0  0  0  0  0
    6.8310   -2.8731   -0.8311 C   0  0  0  0  0  0  0  0  0  0  0  0
    5.6751   -2.2099   -0.4838 C   0  0  0  0  0  0  0  0  0  0  0  0
    5.6074   -1.5624    0.7969 N   0  0  0  0  0  0  0  0  0  0  0  0
    6.0106   -0.2226    0.9669 C   0  0  0  0  0  0  0  0  0  0  0  0
    6.4314    0.3671   -0.0882 O   0  0  0  0  0  0  0  0  0  0  0  0
    5.9879    0.5220    2.2154 C   0  0  0  0  0  0  0  0  0  0  0  0
    5.5256   -0.0699    3.3664 C   0  0  0  0  0  0  0  0  0  0  0  0
    5.5045    0.6157    4.5509 N   0  0  0  0  0  0  0  0  0  0  0  0
    5.9347    1.8862    4.6235 C   0  0  0  0  0  0  0  0  0  0  0  0
    5.9168    2.5898    5.8320 C   0  0  0  0  0  0  0  0  0  0  0  0
    6.3673    3.8986    5.8834 C   0  0  0  0  0  0  0  0  0  0  0  0
    6.8434    4.5553    4.7729 C   0  0  0  0  0  0  0  0  0  0  0  0
    6.8510    3.8322    3.5779 C   0  0  0  0  0  0  0  0  0  0  0  0
    6.4074    2.5287    3.5046 C   0  0  0  0  0  0  0  0  0  0  0  0
    6.4261    1.8253    2.3017 C   0  0  0  0  0  0  0  0  0  0  0  0
    0.9049    0.5530   -1.8317 C   0  0  0  0  0  0  0  0  0  0  0  0
   -0.2858    1.1964   -1.5758 C   0  0  0  0  0  0  0  0  0  0  0  0
   -3.7926    0.2123   -0.7105 C   0  0  0  0  0  0  0  0  0  0  0  0
   -4.9275    1.0743   -1.2409 C   0  0  0  0  0  0  0  0  0  0  0  0
   -8.3288    1.7207    0.2793 C   0  0  0  0  0  0  0  0  0  0  0  0
   -9.4947    1.0595   -0.0244 C   0  0  0  0  0  0  0  0  0  0  0  0
  -10.6487    1.8247   -0.2731 O   0  0  0  0  0  0  0  0  0  0  0  0
  -10.6386    3.2248   -0.2167 C   0  0  0  0  0  0  0  0  0  0  0  0
  -11.9781   -2.6017   -0.2272 H   0  0  0  0  0  0  0  0  0  0  0  0
  -10.2412   -2.9313    0.0918 H   0  0  0  0  0  0  0  0  0  0  0  0
  -10.8195   -2.6350   -1.5610 H   0  0  0  0  0  0  0  0  0  0  0  0
   -8.3613   -2.1014    0.1335 H   0  0  0  0  0  0  0  0  0  0  0  0
   -6.2999   -0.8983    0.6727 H   0  0  0  0  0  0  0  0  0  0  0  0
   -6.1762    2.7392    1.3703 H   0  0  0  0  0  0  0  0  0  0  0  0
   -5.3144    1.1907    1.5756 H   0  0  0  0  0  0  0  0  0  0  0  0
   -4.1818    3.9626   -0.3062 H   0  0  0  0  0  0  0  0  0  0  0  0
   -3.8474    2.9323    1.1106 H   0  0  0  0  0  0  0  0  0  0  0  0
   -1.8619    2.8082   -0.0714 H   0  0  0  0  0  0  0  0  0  0  0  0
   -2.5877    3.0095   -1.6696 H   0  0  0  0  0  0  0  0  0  0  0  0
   -2.0456   -1.4821   -0.4653 H   0  0  0  0  0  0  0  0  0  0  0  0
    0.1621   -2.5837   -0.9574 H   0  0  0  0  0  0  0  0  0  0  0  0
    2.3879   -1.8267   -2.8627 H   0  0  0  0  0  0  0  0  0  0  0  0
    4.0027   -2.8066   -3.3454 H   0  0  0  0  0  0  0  0  0  0  0  0
    5.7112   -4.0915   -6.2050 H   0  0  0  0  0  0  0  0  0  0  0  0
    4.6603   -5.1560   -5.2350 H   0  0  0  0  0  0  0  0  0  0  0  0
    4.4307   -3.3582   -5.2198 H   0  0  0  0  0  0  0  0  0  0  0  0
    9.0907   -5.0485   -0.8103 H   0  0  0  0  0  0  0  0  0  0  0  0
    9.3838   -3.2509   -1.1090 H   0  0  0  0  0  0  0  0  0  0  0  0
   10.2053   -4.4462   -2.1446 H   0  0  0  0  0  0  0  0  0  0  0  0
    7.6512   -2.8947   -0.1001 H   0  0  0  0  0  0  0  0  0  0  0  0
    5.2557   -2.0834    1.6207 H   0  0  0  0  0  0  0  0  0  0  0  0
    5.1674   -1.0803    3.3804 H   0  0  0  0  0  0  0  0  0  0  0  0
    5.5572    2.1306    6.7300 H   0  0  0  0  0  0  0  0  0  0  0  0
    6.3616    4.4667    6.8171 H   0  0  0  0  0  0  0  0  0  0  0  0
    7.2043    5.5921    4.8035 H   0  0  0  0  0  0  0  0  0  0  0  0
    7.2093    4.2828    2.6633 H   0  0  0  0  0  0  0  0  0  0  0  0
    6.7889    2.3153    1.4335 H   0  0  0  0  0  0  0  0  0  0  0  0
    1.7633    1.1143   -2.2228 H   0  0  0  0  0  0  0  0  0  0  0  0
   -0.4061    2.2460   -1.7477 H   0  0  0  0  0  0  0  0  0  0  0  0
   -3.7175   -0.7184   -1.3017 H   0  0  0  0  0  0  0  0  0  0  0  0
   -3.9411   -0.0528    0.3363 H   0  0  0  0  0  0  0  0  0  0  0  0
   -4.5779    1.5070   -2.2012 H   0  0  0  0  0  0  0  0  0  0  0  0
   -5.8152    0.4592   -1.3489 H   0  0  0  0  0  0  0  0  0  0  0  0
   -8.3136    2.8105    0.3212 H   0  0  0  0  0  0  0  0  0  0  0  0
   -9.9016    3.6894   -0.9157 H   0  0  0  0  0  0  0  0  0  0  0  0
  -10.3993    3.5912    0.8171 H   0  0  0  0  0  0  0  0  0  0  0  0
  -11.6210    3.6203   -0.4789 H   0  0  0  0  0  0  0  0  0  0  0  0
  1  2  1  0
  2  3  1  0
  3  4  2  0
  4  5  1  0
  5  6  2  0
  6  7  1  0
  7  8  1  0
  8  9  1  0
  9 10  1  0
 10 11  1  0
 11 12  1  0
 12 13  2  0
 13 14  1  0
 14 15  2  0
 15 16  1  0
 16 17  1  0
 17 18  2  0
 17 19  1  0
 19 20  2  0
 20 21  1  0
 21 22  1  0
 22 23  1  0
 21 24  2  0
 24 25  1  0
 25 26  1  0
 24 27  1  0
 27 28  2  0
 28 29  1  0
 29 30  1  0
 30 31  2  0
 30 32  1  0
 32 33  2  0
 33 34  1  0
 34 35  2  0
 35 36  1  0
 36 37  2  0
 37 38  1  0
 38 39  2  0
 39 40  1  0
 40 41  2  0
 15 42  1  0
 42 43  2  0
 11 44  1  0
 44 45  1  0
  6 46  1  0
 46 47  2  0
 47 48  1  0
 48 49  1  0
 47  3  1  0
 45  8  1  0
 43 12  1  0
 28 19  1  0
 41 32  1  0
 40 35  1  0
  1 50  1  0
  1 51  1  0
  1 52  1  0
  4 53  1  0
  5 54  1  0
  7 55  1  0
  7 56  1  0
  9 57  1  0
  9 58  1  0
 10 59  1  0
 10 60  1  0
 13 61  1  0
 14 62  1  0
 16 63  1  0
 20 64  1  0
 23 65  1  0
 23 66  1  0
 23 67  1  0
 26 68  1  0
 26 69  1  0
 26 70  1  0
 27 71  1  0
 29 72  1  0
 33 73  1  0
 36 74  1  0
 37 75  1  0
 38 76  1  0
 39 77  1  0
 41 78  1  0
 42 79  1  0
 43 80  1  0
 44 81  1  0
 44 82  1  0
 45 83  1  0
 45 84  1  0
 46 85  1  0
 49 86  1  0
 49 87  1  0
 49 88  1  0
M  END
$$$$
