@<TRIPOS>MOLECULE
*****
 49 51 0 0 0
SMALL
GASTEIGER

@<TRIPOS>ATOM
      1 C          -1.2519   -1.6917    2.0215 C.3     1  UNL1       -0.0394
      2 C          -2.3081   -0.9600    1.2874 C.ar    1  UNL1       -0.0458
      3 C          -3.5281   -1.6321    1.1180 C.ar    1  UNL1       -0.0585
      4 C          -4.5998   -1.0410    0.5221 C.ar    1  UNL1       -0.0615
      5 C          -4.4491    0.2442    0.0870 C.ar    1  UNL1       -0.0614
      6 C          -3.2802    0.9284    0.2326 C.ar    1  UNL1       -0.0568
      7 C          -2.1470    0.3223    0.8548 C.ar    1  UNL1       -0.0273
      8 C          -0.9727    1.0977    1.0133 C.3     1  UNL1        0.0378
      9 N           0.2013    0.9875    0.1446 N.pl3   1  UNL1       -0.3211
     10 C           1.1798    1.9628    0.4470 C.ar    1  UNL1        0.0317
     11 C           2.3295    2.2065   -0.2340 C.ar    1  UNL1       -0.0393
     12 C           3.2682    3.1569    0.1911 C.ar    1  UNL1       -0.0412
     13 C           3.1031    3.9035    1.3072 C.ar    1  UNL1        0.0701
     14 C           4.0094    4.8853    1.7978 C.1     1  UNL1        0.1006
     15 N           4.7737    5.7125    2.1890 N.1     1  UNL1       -0.1908
     16 C           1.9087    3.6711    2.0381 C.ar    1  UNL1        0.0600
     17 CL          1.6541    4.6139    3.5026 Cl      1  UNL1       -0.0822
     18 C           1.0152    2.7415    1.6028 C.ar    1  UNL1       -0.0210
     19 C           0.2690   -0.0450   -0.7784 C.3     1  UNL1        0.0394
     20 C          -0.8005   -0.1978   -1.8496 C.3     1  UNL1       -0.0187
     21 C          -0.2634   -1.4236   -2.6392 C.3     1  UNL1        0.0219
     22 N           1.1282   -1.4795   -2.4105 N.3     1  UNL1       -0.1796
     23 S           1.7917   -2.8248   -1.6516 S.O2    1  UNL1        0.0290
     24 C           1.5526   -4.3248   -2.5725 C.3     1  UNL1        0.0707
     25 O           1.2279   -3.0801   -0.2742 O.2     1  UNL1       -0.1583
     26 O           3.3061   -2.6309   -1.5352 O.2     1  UNL1       -0.1583
     27 C           1.4814   -0.2466   -1.6611 C.3     1  UNL1        0.0387
     28 H          -0.9911   -2.5671    1.3714 H       1  UNL1        0.0278
     29 H          -1.5719   -2.0086    3.0370 H       1  UNL1        0.0278
     30 H          -0.3495   -1.0652    2.0843 H       1  UNL1        0.0278
     31 H          -3.6350   -2.6706    1.4759 H       1  UNL1        0.0620
     32 H          -5.5651   -1.5549    0.3883 H       1  UNL1        0.0618
     33 H          -5.3343    0.7132   -0.3872 H       1  UNL1        0.0618
     34 H          -3.1593    1.9248   -0.1039 H       1  UNL1        0.0621
     35 H          -0.5675    0.9332    2.0838 H       1  UNL1        0.0513
     36 H          -1.2871    2.1854    1.0614 H       1  UNL1        0.0513
     37 H           2.5622    1.7147   -1.1388 H       1  UNL1        0.0636
     38 H           4.1633    3.2968   -0.4070 H       1  UNL1        0.0631
     39 H           0.1242    2.6595    2.2490 H       1  UNL1        0.0651
     40 H           0.2187   -1.0409   -0.1812 H       1  UNL1        0.0513
     41 H          -1.7728   -0.4664   -1.4369 H       1  UNL1        0.0296
     42 H          -0.7862    0.6625   -2.5318 H       1  UNL1        0.0296
     43 H          -0.5237   -1.3099   -3.7010 H       1  UNL1        0.0444
     44 H          -0.7503   -2.3490   -2.2152 H       1  UNL1        0.0444
     45 H           0.5425   -4.4621   -2.9457 H       1  UNL1        0.0479
     46 H           2.3196   -4.3445   -3.3905 H       1  UNL1        0.0479
     47 H           1.8416   -5.1770   -1.9108 H       1  UNL1        0.0479
     48 H           2.3863   -0.4784   -1.1245 H       1  UNL1        0.0462
     49 H           1.5363    0.5481   -2.4396 H       1  UNL1        0.0462
@<TRIPOS>BOND
     1     1     2    1
     2     2     3   ar
     3     3     4   ar
     4     4     5   ar
     5     5     6   ar
     6     6     7   ar
     7     7     8    1
     8     8     9    1
     9     9    10    1
    10    10    11   ar
    11    11    12   ar
    12    12    13   ar
    13    13    14    1
    14    14    15    3
    15    13    16   ar
    16    16    17    1
    17    16    18   ar
    18     9    19    1
    19    19    20    1
    20    20    21    1
    21    21    22    1
    22    22    23    1
    23    23    24    1
    24    23    25    2
    25    23    26    2
    26    22    27    1
    27     7     2   ar
    28    18    10   ar
    29    27    19    1
    30     1    28    1
    31     1    29    1
    32     1    30    1
    33     3    31    1
    34     4    32    1
    35     5    33    1
    36     6    34    1
    37     8    35    1
    38     8    36    1
    39    11    37    1
    40    12    38    1
    41    18    39    1
    42    19    40    1
    43    20    41    1
    44    20    42    1
    45    21    43    1
    46    21    44    1
    47    24    45    1
    48    24    46    1
    49    24    47    1
    50    27    48    1
    51    27    49    1
