@<TRIPOS>MOLECULE
*****
 42 44 0 0 0
SMALL
GASTEIGER

@<TRIPOS>ATOM
      1 C          -6.7623   -0.5052    0.2811 C.3     1  UNL1        0.0004
      2 N          -6.0340    0.6677   -0.2254 N.pl3   1  UNL1       -0.3360
      3 C          -6.7447    1.8389   -0.7022 C.3     1  UNL1        0.0004
      4 C          -4.6133    0.6458   -0.2448 C.ar    1  UNL1        0.0293
      5 C          -3.8869    1.7192   -0.7096 C.ar    1  UNL1       -0.0389
      6 C          -2.5161    1.7082   -0.7325 C.ar    1  UNL1       -0.0387
      7 C          -1.7647    0.6130   -0.2882 C.ar    1  UNL1        0.0337
      8 N          -0.3561    0.6517   -0.3326 N.pl3   1  UNL1       -0.2836
      9 C           0.5485   -0.3604    0.0756 C.ar    1  UNL1        0.2200
     10 N           1.8482   -0.1028   -0.0570 N.ar    1  UNL1       -0.2137
     11 C           2.8595   -0.9133    0.2652 C.ar    1  UNL1        0.0844
     12 C           2.4081   -2.1033    0.7742 C.ar    1  UNL1       -0.0168
     13 C           1.0996   -2.4695    0.9527 C.ar    1  UNL1        0.0332
     14 N           0.1998   -1.5474    0.5815 N.ar    1  UNL1       -0.2226
     15 C           4.2189   -0.4251    0.0383 C.ar    1  UNL1        0.0603
     16 C           5.4928   -0.9193    0.2390 C.ar    1  UNL1        0.0549
     17 C           5.7033   -2.2688    0.8225 C.3     1  UNL1       -0.0212
     18 N           6.4586   -0.1082   -0.1218 N.ar    1  UNL1       -0.2488
     19 C           6.4280    0.9426   -0.5761 C.ar    1  UNL1        0.0761
     20 C           7.4191    1.9563   -1.0246 C.3     1  UNL1       -0.0159
     21 S           4.5502    1.1710   -0.6555 S.2     1  UNL1       -0.0706
     22 C          -2.5517   -0.4193    0.1605 C.ar    1  UNL1       -0.0387
     23 C          -3.9264   -0.4604    0.2054 C.ar    1  UNL1       -0.0389
     24 H          -6.4783   -0.6483    1.3633 H       1  UNL1        0.0428
     25 H          -6.3784   -1.3686   -0.2715 H       1  UNL1        0.0428
     26 H          -7.8382   -0.3711    0.1582 H       1  UNL1        0.0428
     27 H          -6.7119    1.9336   -1.8029 H       1  UNL1        0.0428
     28 H          -7.8076    1.7200   -0.4107 H       1  UNL1        0.0428
     29 H          -6.2901    2.7513   -0.2770 H       1  UNL1        0.0428
     30 H          -4.4163    2.6051   -1.0705 H       1  UNL1        0.0637
     31 H          -2.0161    2.6095   -1.1206 H       1  UNL1        0.0637
     32 H           0.0429    1.5577   -0.7223 H       1  UNL1        0.1550
     33 H           3.1479   -2.8049    1.0544 H       1  UNL1        0.0654
     34 H           0.8646   -3.4378    1.3644 H       1  UNL1        0.0831
     35 H           6.7869   -2.5030    0.9449 H       1  UNL1        0.0293
     36 H           5.2626   -3.0481    0.2026 H       1  UNL1        0.0293
     37 H           5.2405   -2.2734    1.8296 H       1  UNL1        0.0293
     38 H           8.1575    2.0344   -0.2085 H       1  UNL1        0.0298
     39 H           6.9458    2.9462   -1.1922 H       1  UNL1        0.0298
     40 H           7.9601    1.6193   -1.9325 H       1  UNL1        0.0298
     41 H          -2.0796   -1.3158    0.5270 H       1  UNL1        0.0637
     42 H          -4.4708   -1.3175    0.5757 H       1  UNL1        0.0637
@<TRIPOS>BOND
     1     1     2    1
     2     2     3    1
     3     2     4    1
     4     4     5   ar
     5     5     6   ar
     6     6     7   ar
     7     7     8    1
     8     8     9    1
     9     9    10   ar
    10    10    11   ar
    11    11    12   ar
    12    12    13   ar
    13    13    14   ar
    14    11    15    1
    15    15    16   ar
    16    16    17    1
    17    16    18   ar
    18    18    19   ar
    19    19    20    1
    20    19    21   ar
    21     7    22   ar
    22    22    23   ar
    23    23     4   ar
    24    14     9   ar
    25    21    15   ar
    26     1    24    1
    27     1    25    1
    28     1    26    1
    29     3    27    1
    30     3    28    1
    31     3    29    1
    32     5    30    1
    33     6    31    1
    34     8    32    1
    35    12    33    1
    36    13    34    1
    37    17    35    1
    38    17    36    1
    39    17    37    1
    40    20    38    1
    41    20    39    1
    42    20    40    1
    43    22    41    1
    44    23    42    1
