@<TRIPOS>MOLECULE
*****
 64 68 0 0 0
SMALL
GASTEIGER

@<TRIPOS>ATOM
      1 C          10.9294    3.0079   -1.0014 C.1     1  UNL1       -0.1158
      2 C          10.7800    2.1060   -0.2465 C.1     1  UNL1       -0.0647
      3 C          10.5539    0.8825    0.8025 C.3     1  UNL1        0.1513
      4 O           9.3810    0.3768    0.5977 O.3     1  UNL1       -0.4624
      5 C           8.2576   -0.1762    0.2564 C.ar    1  UNL1        0.2344
      6 C           7.2228   -0.0096    1.2580 C.ar    1  UNL1        0.0899
      7 N           6.0702   -0.5354    0.9812 N.ar    1  UNL1       -0.2459
      8 C           5.7231   -1.2183   -0.1346 C.ar    1  UNL1        0.1172
      9 C           4.3237   -1.6601   -0.1852 C.2     1  UNL1        0.1507
     10 F           3.8595   -2.2740   -1.2721 F       1  UNL1       -0.2032
     11 C           3.5285   -1.4493    0.8645 C.2     1  UNL1       -0.0157
     12 C           2.1319   -1.8112    0.9773 C.ar    1  UNL1       -0.0036
     13 C           1.7465   -2.8643    1.7866 C.ar    1  UNL1        0.0379
     14 N           0.4711   -3.1085    1.9589 N.ar    1  UNL1       -0.2267
     15 C          -0.5119   -2.4098    1.4041 C.ar    1  UNL1        0.2187
     16 F          -1.8076   -2.7034    1.6199 F       1  UNL1       -0.1835
     17 C          -0.2142   -1.3030    0.5618 C.ar    1  UNL1        0.0349
     18 C          -1.2225   -0.4029   -0.0049 C.3     1  UNL1        0.0950
     19 C          -1.7264    0.4144    1.2175 C.3     1  UNL1       -0.0351
     20 N          -0.5116    0.6029   -0.7660 N.2     1  UNL1       -0.2520
     21 C          -1.0224    1.4848   -1.4734 C.2     1  UNL1        0.1485
     22 N          -0.3189    2.4419   -2.1904 N.pl3   1  UNL1       -0.3380
     23 S          -2.8270    1.5090   -1.5808 S.3     1  UNL1       -0.0746
     24 C          -3.3175   -0.2067   -1.3455 C.3     1  UNL1        0.1054
     25 C          -4.7447   -0.4681   -1.1998 C.2     1  UNL1        0.2328
     26 O          -5.2122   -1.4707   -1.8241 O.2     1  UNL1       -0.2740
     27 N          -5.6072    0.3118   -0.4296 N.am    1  UNL1       -0.2932
     28 C          -5.2316    1.5125    0.3312 C.3     1  UNL1        0.0385
     29 C          -5.9061    2.6701   -0.4451 C.3     1  UNL1        0.0635
     30 O          -7.2726    2.4578   -0.2192 O.3     1  UNL1       -0.3764
     31 C          -7.7553    1.3022   -0.7948 C.3     1  UNL1        0.0660
     32 C          -7.0523    0.0477   -0.2763 C.3     1  UNL1        0.0466
     33 C          -7.5407   -1.1706   -0.9360 C.3     1  UNL1       -0.0443
     34 C          -2.4697   -1.1500   -2.1728 C.3     1  UNL1       -0.0220
     35 C          -2.3439   -1.0482   -0.6502 C.3     1  UNL1        0.0135
     36 C           1.1281   -1.0842    0.4042 C.ar    1  UNL1       -0.0433
     37 C           6.6887   -1.3771   -1.0669 C.ar    1  UNL1        0.0596
     38 N           7.9296   -0.8674   -0.8748 N.ar    1  UNL1       -0.2178
     39 H          11.0270    3.6472   -1.5197 H       1  UNL1        0.1229
     40 H          10.8048    1.3711    1.7773 H       1  UNL1        0.0837
     41 H          11.4335    0.2797    0.5287 H       1  UNL1        0.0837
     42 H           7.4761    0.5335    2.1623 H       1  UNL1        0.0884
     43 H           4.0227   -0.9269    1.7098 H       1  UNL1        0.0653
     44 H           2.5585   -3.4600    2.2860 H       1  UNL1        0.0836
     45 H          -0.9136    0.4558    1.9900 H       1  UNL1        0.0256
     46 H          -1.9299    1.4532    0.9215 H       1  UNL1        0.0256
     47 H          -2.6546   -0.0462    1.5976 H       1  UNL1        0.0256
     48 H          -0.2368    3.4039   -1.7674 H       1  UNL1        0.1442
     49 H           0.1360    2.2843   -3.1069 H       1  UNL1        0.1442
     50 H          -4.1955    1.6904    0.3945 H       1  UNL1        0.0487
     51 H          -5.7652    1.4945    1.3148 H       1  UNL1        0.0487
     52 H          -5.6142    2.6499   -1.4917 H       1  UNL1        0.0575
     53 H          -5.5928    3.5864    0.0417 H       1  UNL1        0.0575
     54 H          -7.7556    1.3630   -1.9010 H       1  UNL1        0.0578
     55 H          -8.8006    1.1963   -0.4572 H       1  UNL1        0.0578
     56 H          -7.3060    0.0116    0.8002 H       1  UNL1        0.0520
     57 H          -8.6170   -1.3243   -0.6132 H       1  UNL1        0.0248
     58 H          -7.4796   -1.0961   -2.0368 H       1  UNL1        0.0248
     59 H          -7.0035   -2.0711   -0.5642 H       1  UNL1        0.0248
     60 H          -1.6665   -0.7684   -2.7975 H       1  UNL1        0.0287
     61 H          -3.0705   -1.9697   -2.6191 H       1  UNL1        0.0287
     62 H          -2.8037   -1.9360   -0.1539 H       1  UNL1        0.0346
     63 H           1.4327   -0.2379   -0.2622 H       1  UNL1        0.0629
     64 H           6.4050   -1.9435   -1.9590 H       1  UNL1        0.0853
@<TRIPOS>BOND
     1     1     2    3
     2     2     3    1
     3     3     4    1
     4     4     5    1
     5     5     6   ar
     6     6     7   ar
     7     7     8   ar
     8     8     9    1
     9     9    10    1
    10     9    11    2
    11    11    12    1
    12    12    13   ar
    13    13    14   ar
    14    14    15   ar
    15    15    16    1
    16    15    17   ar
    17    17    18    1
    18    18    19    1
    19    18    20    1
    20    20    21    2
    21    21    22    1
    22    21    23    1
    23    23    24    1
    24    24    25    1
    25    25    26    2
    26    25    27   am
    27    27    28    1
    28    28    29    1
    29    29    30    1
    30    30    31    1
    31    31    32    1
    32    32    33    1
    33    24    34    1
    34    34    35    1
    35    17    36   ar
    36     8    37   ar
    37    37    38   ar
    38    38     5   ar
    39    36    12   ar
    40    35    18    1
    41    35    24    1
    42    32    27    1
    43     1    39    1
    44     3    40    1
    45     3    41    1
    46     6    42    1
    47    11    43    1
    48    13    44    1
    49    19    45    1
    50    19    46    1
    51    19    47    1
    52    22    48    1
    53    22    49    1
    54    28    50    1
    55    28    51    1
    56    29    52    1
    57    29    53    1
    58    31    54    1
    59    31    55    1
    60    32    56    1
    61    33    57    1
    62    33    58    1
    63    33    59    1
    64    34    60    1
    65    34    61    1
    66    35    62    1
    67    36    63    1
    68    37    64    1
