@<TRIPOS>MOLECULE
*****
 76 80 0 0 0
SMALL
GASTEIGER

@<TRIPOS>ATOM
      1 C          -5.5265    5.8949   -0.7807 C.3     1  UNL1       -0.0397
      2 C          -5.3145    4.4729   -0.3945 C.ar    1  UNL1       -0.0503
      3 C          -5.4708    3.5235   -1.3818 C.ar    1  UNL1       -0.0568
      4 C          -5.2823    2.1969   -1.0583 C.ar    1  UNL1       -0.0359
      5 C          -4.9443    1.8412    0.2307 C.ar    1  UNL1        0.0674
      6 N          -4.7626    0.4627    0.5130 N.ar    1  UNL1       -0.2181
      7 N          -5.7056   -0.4168    0.8137 N.ar    1  UNL1       -0.1691
      8 C          -5.1427   -1.6053    1.0085 C.ar    1  UNL1        0.0706
      9 C          -5.8949   -2.8420    1.3654 C.3     1  UNL1        0.0063
     10 C          -4.9890   -4.0296    1.5241 C.3     1  UNL1       -0.0546
     11 C          -6.8984   -3.1820    0.2565 C.3     1  UNL1       -0.0546
     12 C          -6.6863   -2.6466    2.6294 C.3     1  UNL1       -0.0546
     13 C          -3.7594   -1.4792    0.8216 C.ar    1  UNL1        0.0021
     14 C          -3.5636   -0.1555    0.5099 C.ar    1  UNL1        0.1299
     15 N          -2.3265    0.4850    0.2267 N.am    1  UNL1       -0.2538
     16 C          -1.0778   -0.1793    0.2133 C.2     1  UNL1        0.3092
     17 O          -0.9989   -1.4031    0.4548 O.2     1  UNL1       -0.2521
     18 N           0.1183    0.5346   -0.0766 N.am    1  UNL1       -0.2686
     19 C           1.3893   -0.0891   -0.1045 C.ar    1  UNL1        0.0427
     20 C           2.1547   -0.1768    1.0158 C.ar    1  UNL1       -0.0364
     21 C           3.4148   -0.7919    1.0131 C.ar    1  UNL1       -0.0176
     22 C           3.8890   -1.3219   -0.1611 C.ar    1  UNL1        0.1283
     23 O           5.0863   -1.9282   -0.2390 O.3     1  UNL1       -0.4901
     24 C           6.1066   -2.1956    0.6192 C.3     1  UNL1        0.1023
     25 C           6.8529   -1.0675    1.2425 C.3     1  UNL1        0.0333
     26 N           7.5267   -0.1836    0.3499 N.3     1  UNL1       -0.2948
     27 C           6.7257    0.6396   -0.4839 C.3     1  UNL1        0.0225
     28 C           6.0090    1.6486    0.3876 C.3     1  UNL1        0.0604
     29 O           6.9541    2.5867    0.7930 O.3     1  UNL1       -0.3772
     30 C           8.2505    2.1366    0.7887 C.3     1  UNL1        0.0604
     31 C           8.3647    0.6934    1.1649 C.3     1  UNL1        0.0225
     32 C           3.0767   -1.2166   -1.3019 C.ar    1  UNL1        0.0256
     33 C           3.5520   -1.7491   -2.4866 C.ar    1  UNL1       -0.0505
     34 C           2.7888   -1.6676   -3.6313 C.ar    1  UNL1       -0.0611
     35 C           1.5385   -1.0586   -3.6334 C.ar    1  UNL1       -0.0611
     36 C           1.0867   -0.5354   -2.4403 C.ar    1  UNL1       -0.0521
     37 C           1.8498   -0.6150   -1.2886 C.ar    1  UNL1        0.0069
     38 C          -4.7819    2.7691    1.2354 C.ar    1  UNL1       -0.0359
     39 C          -4.9736    4.1102    0.9041 C.ar    1  UNL1       -0.0568
     40 H          -5.5534    6.5359    0.1249 H       1  UNL1        0.0278
     41 H          -6.4582    5.9890   -1.3667 H       1  UNL1        0.0278
     42 H          -4.6433    6.1911   -1.3989 H       1  UNL1        0.0278
     43 H          -5.7320    3.7787   -2.3852 H       1  UNL1        0.0621
     44 H          -5.4097    1.4542   -1.8524 H       1  UNL1        0.0639
     45 H          -5.6559   -4.9359    1.5602 H       1  UNL1        0.0239
     46 H          -4.4713   -4.0138    2.5047 H       1  UNL1        0.0239
     47 H          -4.2941   -4.0647    0.6719 H       1  UNL1        0.0239
     48 H          -7.7509   -2.4745    0.3355 H       1  UNL1        0.0239
     49 H          -7.2681   -4.2049    0.5015 H       1  UNL1        0.0239
     50 H          -6.4180   -3.1299   -0.7350 H       1  UNL1        0.0239
     51 H          -6.0263   -2.8504    3.5047 H       1  UNL1        0.0239
     52 H          -7.5878   -3.3103    2.6548 H       1  UNL1        0.0239
     53 H          -7.0453   -1.6098    2.6949 H       1  UNL1        0.0239
     54 H          -3.0669   -2.2791    0.9163 H       1  UNL1        0.0671
     55 H          -2.2986    1.5225    0.0099 H       1  UNL1        0.1578
     56 H           0.0509    1.5413   -0.2724 H       1  UNL1        0.1564
     57 H           1.8047    0.2308    1.9466 H       1  UNL1        0.0637
     58 H           3.9578   -0.8270    1.9583 H       1  UNL1        0.0655
     59 H           5.6561   -2.7707    1.4974 H       1  UNL1        0.0709
     60 H           6.8350   -2.9749    0.2101 H       1  UNL1        0.0709
     61 H           6.2516   -0.5790    2.0064 H       1  UNL1        0.0460
     62 H           7.6941   -1.5671    1.8393 H       1  UNL1        0.0460
     63 H           7.4533    1.2584   -1.0990 H       1  UNL1        0.0449
     64 H           6.0969    0.1488   -1.2229 H       1  UNL1        0.0449
     65 H           5.2614    2.1677   -0.2446 H       1  UNL1        0.0572
     66 H           5.4856    1.2077    1.2392 H       1  UNL1        0.0572
     67 H           8.8227    2.4066   -0.1277 H       1  UNL1        0.0572
     68 H           8.7803    2.7039    1.6112 H       1  UNL1        0.0572
     69 H           9.4285    0.3794    1.1114 H       1  UNL1        0.0449
     70 H           8.0945    0.6219    2.2507 H       1  UNL1        0.0449
     71 H           4.5145   -2.2177   -2.4833 H       1  UNL1        0.0625
     72 H           3.1580   -2.0827   -4.5579 H       1  UNL1        0.0618
     73 H           0.9440   -0.9935   -4.5189 H       1  UNL1        0.0618
     74 H           0.1255   -0.0540   -2.3898 H       1  UNL1        0.0624
     75 H          -4.5174    2.4836    2.2414 H       1  UNL1        0.0639
     76 H          -4.8537    4.8589    1.6677 H       1  UNL1        0.0621
@<TRIPOS>BOND
     1     1     2    1
     2     2     3   ar
     3     3     4   ar
     4     4     5   ar
     5     5     6    1
     6     6     7   ar
     7     7     8   ar
     8     8     9    1
     9     9    10    1
    10     9    11    1
    11     9    12    1
    12     8    13   ar
    13    13    14   ar
    14    14    15    1
    15    15    16   am
    16    16    17    2
    17    16    18   am
    18    18    19    1
    19    19    20   ar
    20    20    21   ar
    21    21    22   ar
    22    22    23    1
    23    23    24    1
    24    24    25    1
    25    25    26    1
    26    26    27    1
    27    27    28    1
    28    28    29    1
    29    29    30    1
    30    30    31    1
    31    22    32   ar
    32    32    33   ar
    33    33    34   ar
    34    34    35   ar
    35    35    36   ar
    36    36    37   ar
    37     5    38   ar
    38    38    39   ar
    39    39     2   ar
    40    14     6   ar
    41    37    19   ar
    42    31    26    1
    43    37    32   ar
    44     1    40    1
    45     1    41    1
    46     1    42    1
    47     3    43    1
    48     4    44    1
    49    10    45    1
    50    10    46    1
    51    10    47    1
    52    11    48    1
    53    11    49    1
    54    11    50    1
    55    12    51    1
    56    12    52    1
    57    12    53    1
    58    13    54    1
    59    15    55    1
    60    18    56    1
    61    20    57    1
    62    21    58    1
    63    24    59    1
    64    24    60    1
    65    25    61    1
    66    25    62    1
    67    27    63    1
    68    27    64    1
    69    28    65    1
    70    28    66    1
    71    30    67    1
    72    30    68    1
    73    31    69    1
    74    31    70    1
    75    33    71    1
    76    34    72    1
    77    35    73    1
    78    36    74    1
    79    38    75    1
    80    39    76    1
