
     RDKit          3D

 80 82  0  0  0  0  0  0  0  0999 V2000
    3.0236   -3.5742    5.2790 C   0  0  0  0  0  0  0  0  0  0  0  0
    2.0202   -3.9707    4.2127 C   0  0  0  0  0  0  0  0  0  0  0  0
    1.7580   -2.7947    3.2754 C   0  0  0  0  0  0  0  0  0  0  0  0
    3.0537   -2.3664    2.5934 C   0  0  0  0  0  0  0  0  0  0  0  0
    2.7485   -1.2247    1.6905 C   0  0  2  0  0  0  0  0  0  0  0  0
    1.7757   -1.6436    0.7030 N   0  0  0  0  0  0  0  0  0  0  0  0
    0.5365   -0.9703    0.5046 C   0  0  0  0  0  0  0  0  0  0  0  0
    0.2727    0.0229    1.2093 O   0  0  0  0  0  0  0  0  0  0  0  0
   -0.3893   -1.3654   -0.4338 O   0  0  0  0  0  0  0  0  0  0  0  0
   -1.6457   -0.6657   -0.6238 C   0  0  2  0  0  0  0  0  0  0  0  0
   -2.7602   -1.5665   -0.2381 C   0  0  0  0  0  0  0  0  0  0  0  0
   -4.0911   -0.9638   -0.3713 C   0  0  0  0  0  0  0  0  0  0  0  0
   -4.9886   -0.9393   -1.3637 N   0  0  0  0  0  0  0  0  0  0  0  0
   -6.0477   -0.2530   -0.9781 N   0  0  0  0  0  0  0  0  0  0  0  0
   -5.8425    0.1677    0.2582 C   0  0  0  0  0  0  0  0  0  0  0  0
   -6.7531    0.9608    1.0736 C   0  0  0  0  0  0  0  0  0  0  0  0
   -6.4353    1.3491    2.3564 C   0  0  0  0  0  0  0  0  0  0  0  0
   -7.2993    2.0980    3.1367 C   0  0  0  0  0  0  0  0  0  0  0  0
   -8.5283    2.4883    2.6510 C   0  0  0  0  0  0  0  0  0  0  0  0
   -9.4756    3.2991    3.4849 C   0  0  0  0  0  0  0  0  0  0  0  0
   -8.7902    4.3493    4.1104 F   0  0  0  0  0  0  0  0  0  0  0  0
  -10.4510    3.8755    2.7233 F   0  0  0  0  0  0  0  0  0  0  0  0
   -9.9498    2.4934    4.4744 F   0  0  0  0  0  0  0  0  0  0  0  0
   -8.8573    2.1062    1.3694 C   0  0  0  0  0  0  0  0  0  0  0  0
   -7.9838    1.3558    0.5964 C   0  0  0  0  0  0  0  0  0  0  0  0
   -4.6601   -0.2715    0.6016 O   0  0  0  0  0  0  0  0  0  0  0  0
   -1.6028   -0.1601   -2.0152 C   0  0  0  0  0  0  0  0  0  0  0  0
   -0.3576    0.7485   -2.1030 C   0  0  0  0  0  0  0  0  0  0  0  0
   -2.7383    0.6924   -2.4710 C   0  0  0  0  0  0  0  0  0  0  0  0
   -1.3682   -1.2486   -3.0394 C   0  0  0  0  0  0  0  0  0  0  0  0
    3.9666   -0.6557    1.0440 C   0  0  0  0  0  0  0  0  0  0  0  0
    4.9320   -0.2625    1.7473 O   0  0  0  0  0  0  0  0  0  0  0  0
    4.0618   -0.5447   -0.3976 C   0  0  0  0  0  0  0  0  0  0  0  0
    3.1079   -0.9214   -1.1573 O   0  0  0  0  0  0  0  0  0  0  0  0
    5.2528   -0.0016   -0.9673 N   0  0  0  0  0  0  0  0  0  0  0  0
    5.3365    0.1044   -2.4065 C   0  0  2  0  0  0  0  0  0  0  0  0
    6.4378   -0.8312   -2.8732 C   0  0  0  0  0  0  0  0  0  0  0  0
    5.6382    1.5130   -2.7413 C   0  0  0  0  0  0  0  0  0  0  0  0
    4.9130    2.1203   -3.7474 C   0  0  0  0  0  0  0  0  0  0  0  0
    5.1897    3.4209   -4.0628 C   0  0  0  0  0  0  0  0  0  0  0  0
    6.1880    4.1112   -3.3742 C   0  0  0  0  0  0  0  0  0  0  0  0
    6.8916    3.4733   -2.3756 C   0  0  0  0  0  0  0  0  0  0  0  0
    6.6270    2.1596   -2.0415 C   0  0  0  0  0  0  0  0  0  0  0  0
    2.9904   -4.2419    6.1481 H   0  0  0  0  0  0  0  0  0  0  0  0
    4.0226   -3.6125    4.8113 H   0  0  0  0  0  0  0  0  0  0  0  0
    2.8320   -2.5306    5.5592 H   0  0  0  0  0  0  0  0  0  0  0  0
    2.4406   -4.8170    3.6142 H   0  0  0  0  0  0  0  0  0  0  0  0
    1.0775   -4.2360    4.6992 H   0  0  0  0  0  0  0  0  0  0  0  0
    1.3431   -1.9859    3.9145 H   0  0  0  0  0  0  0  0  0  0  0  0
    0.9975   -3.0814    2.5241 H   0  0  0  0  0  0  0  0  0  0  0  0
    3.3665   -3.2286    1.9564 H   0  0  0  0  0  0  0  0  0  0  0  0
    3.8529   -2.1984    3.3175 H   0  0  0  0  0  0  0  0  0  0  0  0
    2.3169   -0.3920    2.2904 H   0  0  0  0  0  0  0  0  0  0  0  0
    1.9474   -2.4814    0.0860 H   0  0  0  0  0  0  0  0  0  0  0  0
   -1.6208    0.1746    0.0879 H   0  0  0  0  0  0  0  0  0  0  0  0
   -2.6716   -2.5125   -0.8377 H   0  0  0  0  0  0  0  0  0  0  0  0
   -2.6003   -1.8140    0.8581 H   0  0  0  0  0  0  0  0  0  0  0  0
   -5.4589    1.0396    2.7436 H   0  0  0  0  0  0  0  0  0  0  0  0
   -7.0150    2.3882    4.1495 H   0  0  0  0  0  0  0  0  0  0  0  0
   -9.8292    2.4199    0.9945 H   0  0  0  0  0  0  0  0  0  0  0  0
   -8.2707    1.0694   -0.4093 H   0  0  0  0  0  0  0  0  0  0  0  0
   -0.0190    0.7453   -3.1783 H   0  0  0  0  0  0  0  0  0  0  0  0
   -0.5988    1.7855   -1.8252 H   0  0  0  0  0  0  0  0  0  0  0  0
    0.4820    0.3040   -1.5471 H   0  0  0  0  0  0  0  0  0  0  0  0
   -3.3213    1.1848   -1.6956 H   0  0  0  0  0  0  0  0  0  0  0  0
   -3.3380    0.1030   -3.2176 H   0  0  0  0  0  0  0  0  0  0  0  0
   -2.3311    1.5647   -3.0919 H   0  0  0  0  0  0  0  0  0  0  0  0
   -1.1436   -0.7618   -4.0170 H   0  0  0  0  0  0  0  0  0  0  0  0
   -2.2247   -1.9103   -3.1897 H   0  0  0  0  0  0  0  0  0  0  0  0
   -0.4256   -1.8067   -2.7823 H   0  0  0  0  0  0  0  0  0  0  0  0
    6.0305    0.3052   -0.3312 H   0  0  0  0  0  0  0  0  0  0  0  0
    4.4084   -0.2560   -2.8629 H   0  0  0  0  0  0  0  0  0  0  0  0
    6.9225   -0.3759   -3.7413 H   0  0  0  0  0  0  0  0  0  0  0  0
    7.1335   -1.0113   -2.0341 H   0  0  0  0  0  0  0  0  0  0  0  0
    6.0093   -1.8097   -3.1518 H   0  0  0  0  0  0  0  0  0  0  0  0
    4.1533    1.5602   -4.2561 H   0  0  0  0  0  0  0  0  0  0  0  0
    4.6060    3.8734   -4.8543 H   0  0  0  0  0  0  0  0  0  0  0  0
    6.3549    5.1313   -3.6732 H   0  0  0  0  0  0  0  0  0  0  0  0
    7.6600    4.0020   -1.8434 H   0  0  0  0  0  0  0  0  0  0  0  0
    7.2048    1.6984   -1.2509 H   0  0  0  0  0  0  0  0  0  0  0  0
  1  2  1  0
  2  3  1  0
  3  4  1  0
  4  5  1  0
  5  6  1  0
  6  7  1  0
  7  8  2  0
  7  9  1  0
  9 10  1  0
 10 11  1  0
 11 12  1  0
 12 13  2  0
 13 14  1  0
 14 15  2  0
 15 16  1  0
 16 17  2  0
 17 18  1  0
 18 19  2  0
 19 20  1  0
 20 21  1  0
 20 22  1  0
 20 23  1  0
 19 24  1  0
 24 25  2  0
 15 26  1  0
 10 27  1  0
 27 28  1  0
 27 29  1  0
 27 30  1  0
  5 31  1  0
 31 32  2  0
 31 33  1  0
 33 34  2  0
 33 35  1  0
 35 36  1  0
 36 37  1  0
 36 38  1  0
 38 39  2  0
 39 40  1  0
 40 41  2  0
 41 42  1  0
 42 43  2  0
 26 12  1  0
 43 38  1  0
 25 16  1  0
  1 44  1  0
  1 45  1  0
  1 46  1  0
  2 47  1  0
  2 48  1  0
  3 49  1  0
  3 50  1  0
  4 51  1  0
  4 52  1  0
  5 53  1  1
  6 54  1  0
 10 55  1  1
 11 56  1  0
 11 57  1  0
 17 58  1  0
 18 59  1  0
 24 60  1  0
 25 61  1  0
 28 62  1  0
 28 63  1  0
 28 64  1  0
 29 65  1  0
 29 66  1  0
 29 67  1  0
 30 68  1  0
 30 69  1  0
 30 70  1  0
 35 71  1  0
 36 72  1  6
 37 73  1  0
 37 74  1  0
 37 75  1  0
 39 76  1  0
 40 77  1  0
 41 78  1  0
 42 79  1  0
 43 80  1  0
M  END
$$$$
