@<TRIPOS>MOLECULE
*****
 80 82 0 0 0
SMALL
GASTEIGER

@<TRIPOS>ATOM
      1 C           3.0236   -3.5742    5.2790 C.3     1  UNL1       -0.0653
      2 C           2.0202   -3.9707    4.2127 C.3     1  UNL1       -0.0558
      3 C           1.7580   -2.7947    3.2754 C.3     1  UNL1       -0.0512
      4 C           3.0537   -2.3664    2.5934 C.3     1  UNL1       -0.0270
      5 C           2.7485   -1.2247    1.6905 C.3     1  UNL1        0.0937
      6 N           1.7757   -1.6436    0.7030 N.am    1  UNL1       -0.2710
      7 C           0.5365   -0.9703    0.5046 C.2     1  UNL1        0.4011
      8 O           0.2727    0.0229    1.2093 O.2     1  UNL1       -0.2265
      9 O          -0.3893   -1.3654   -0.4338 O.3     1  UNL1       -0.4461
     10 C          -1.6457   -0.6657   -0.6238 C.3     1  UNL1        0.1179
     11 C          -2.7602   -1.5665   -0.2381 C.3     1  UNL1        0.0632
     12 C          -4.0911   -0.9638   -0.3713 C.ar    1  UNL1        0.2212
     13 N          -4.9886   -0.9393   -1.3637 N.ar    1  UNL1       -0.1119
     14 N          -6.0477   -0.2530   -0.9781 N.ar    1  UNL1       -0.1073
     15 C          -5.8425    0.1677    0.2582 C.ar    1  UNL1        0.2483
     16 C          -6.7531    0.9608    1.0736 C.ar    1  UNL1        0.0385
     17 C          -6.4353    1.3491    2.3564 C.ar    1  UNL1       -0.0489
     18 C          -7.2993    2.0980    3.1367 C.ar    1  UNL1       -0.0494
     19 C          -8.5283    2.4883    2.6510 C.ar    1  UNL1        0.0549
     20 C          -9.4756    3.2991    3.4849 C.3     1  UNL1        0.4174
     21 F          -8.7902    4.3493    4.1104 F       1  UNL1       -0.1659
     22 F         -10.4510    3.8755    2.7233 F       1  UNL1       -0.1659
     23 F          -9.9498    2.4934    4.4744 F       1  UNL1       -0.1659
     24 C          -8.8573    2.1062    1.3694 C.ar    1  UNL1       -0.0494
     25 C          -7.9838    1.3558    0.5964 C.ar    1  UNL1       -0.0489
     26 O          -4.6601   -0.2715    0.6016 O.2     1  UNL1       -0.4201
     27 C          -1.6028   -0.1601   -2.0152 C.3     1  UNL1       -0.0001
     28 C          -0.3576    0.7485   -2.1030 C.3     1  UNL1       -0.0567
     29 C          -2.7383    0.6924   -2.4710 C.3     1  UNL1       -0.0567
     30 C          -1.3682   -1.2486   -3.0394 C.3     1  UNL1       -0.0567
     31 C           3.9666   -0.6557    1.0440 C.2     1  UNL1        0.2372
     32 O           4.9320   -0.2625    1.7473 O.2     1  UNL1       -0.2852
     33 C           4.0618   -0.5447   -0.3976 C.2     1  UNL1        0.2819
     34 O           3.1079   -0.9214   -1.1573 O.2     1  UNL1       -0.2670
     35 N           5.2528   -0.0016   -0.9673 N.am    1  UNL1       -0.3024
     36 C           5.3365    0.1044   -2.4065 C.3     1  UNL1        0.0459
     37 C           6.4378   -0.8312   -2.8732 C.3     1  UNL1       -0.0424
     38 C           5.6382    1.5130   -2.7413 C.ar    1  UNL1       -0.0275
     39 C           4.9130    2.1203   -3.7474 C.ar    1  UNL1       -0.0568
     40 C           5.1897    3.4209   -4.0628 C.ar    1  UNL1       -0.0614
     41 C           6.1880    4.1112   -3.3742 C.ar    1  UNL1       -0.0617
     42 C           6.8916    3.4733   -2.3756 C.ar    1  UNL1       -0.0614
     43 C           6.6270    2.1596   -2.0415 C.ar    1  UNL1       -0.0568
     44 H           2.9904   -4.2419    6.1481 H       1  UNL1        0.0230
     45 H           4.0226   -3.6125    4.8113 H       1  UNL1        0.0230
     46 H           2.8320   -2.5306    5.5592 H       1  UNL1        0.0230
     47 H           2.4406   -4.8170    3.6142 H       1  UNL1        0.0263
     48 H           1.0775   -4.2360    4.6992 H       1  UNL1        0.0263
     49 H           1.3431   -1.9859    3.9145 H       1  UNL1        0.0266
     50 H           0.9975   -3.0814    2.5241 H       1  UNL1        0.0266
     51 H           3.3665   -3.2286    1.9564 H       1  UNL1        0.0287
     52 H           3.8529   -2.1984    3.3175 H       1  UNL1        0.0287
     53 H           2.3169   -0.3920    2.2904 H       1  UNL1        0.0583
     54 H           1.9474   -2.4814    0.0860 H       1  UNL1        0.1527
     55 H          -1.6208    0.1746    0.0879 H       1  UNL1        0.0744
     56 H          -2.6716   -2.5125   -0.8377 H       1  UNL1        0.0397
     57 H          -2.6003   -1.8140    0.8581 H       1  UNL1        0.0397
     58 H          -5.4589    1.0396    2.7436 H       1  UNL1        0.0625
     59 H          -7.0150    2.3882    4.1495 H       1  UNL1        0.0623
     60 H          -9.8292    2.4199    0.9945 H       1  UNL1        0.0623
     61 H          -8.2707    1.0694   -0.4093 H       1  UNL1        0.0625
     62 H          -0.0190    0.7453   -3.1783 H       1  UNL1        0.0236
     63 H          -0.5988    1.7855   -1.8252 H       1  UNL1        0.0236
     64 H           0.4820    0.3040   -1.5471 H       1  UNL1        0.0236
     65 H          -3.3213    1.1848   -1.6956 H       1  UNL1        0.0236
     66 H          -3.3380    0.1030   -3.2176 H       1  UNL1        0.0236
     67 H          -2.3311    1.5647   -3.0919 H       1  UNL1        0.0236
     68 H          -1.1436   -0.7618   -4.0170 H       1  UNL1        0.0236
     69 H          -2.2247   -1.9103   -3.1897 H       1  UNL1        0.0236
     70 H          -0.4256   -1.8067   -2.7823 H       1  UNL1        0.0236
     71 H           6.0305    0.3052   -0.3312 H       1  UNL1        0.1497
     72 H           4.4084   -0.2560   -2.8629 H       1  UNL1        0.0545
     73 H           6.9225   -0.3759   -3.7413 H       1  UNL1        0.0251
     74 H           7.1335   -1.0113   -2.0341 H       1  UNL1        0.0251
     75 H           6.0093   -1.8097   -3.1518 H       1  UNL1        0.0251
     76 H           4.1533    1.5602   -4.2561 H       1  UNL1        0.0621
     77 H           4.6060    3.8734   -4.8543 H       1  UNL1        0.0618
     78 H           6.3549    5.1313   -3.6732 H       1  UNL1        0.0618
     79 H           7.6600    4.0020   -1.8434 H       1  UNL1        0.0618
     80 H           7.2048    1.6984   -1.2509 H       1  UNL1        0.0621
@<TRIPOS>BOND
     1     1     2    1
     2     2     3    1
     3     3     4    1
     4     4     5    1
     5     5     6    1
     6     6     7   am
     7     7     8    2
     8     7     9    1
     9     9    10    1
    10    10    11    1
    11    11    12    1
    12    12    13   ar
    13    13    14   ar
    14    14    15   ar
    15    15    16    1
    16    16    17   ar
    17    17    18   ar
    18    18    19   ar
    19    19    20    1
    20    20    21    1
    21    20    22    1
    22    20    23    1
    23    19    24   ar
    24    24    25   ar
    25    15    26   ar
    26    10    27    1
    27    27    28    1
    28    27    29    1
    29    27    30    1
    30     5    31    1
    31    31    32    2
    32    31    33    1
    33    33    34    2
    34    33    35   am
    35    35    36    1
    36    36    37    1
    37    36    38    1
    38    38    39   ar
    39    39    40   ar
    40    40    41   ar
    41    41    42   ar
    42    42    43   ar
    43    26    12   ar
    44    43    38   ar
    45    25    16   ar
    46     1    44    1
    47     1    45    1
    48     1    46    1
    49     2    47    1
    50     2    48    1
    51     3    49    1
    52     3    50    1
    53     4    51    1
    54     4    52    1
    55     5    53    1
    56     6    54    1
    57    10    55    1
    58    11    56    1
    59    11    57    1
    60    17    58    1
    61    18    59    1
    62    24    60    1
    63    25    61    1
    64    28    62    1
    65    28    63    1
    66    28    64    1
    67    29    65    1
    68    29    66    1
    69    29    67    1
    70    30    68    1
    71    30    69    1
    72    30    70    1
    73    35    71    1
    74    36    72    1
    75    37    73    1
    76    37    74    1
    77    37    75    1
    78    39    76    1
    79    40    77    1
    80    41    78    1
    81    42    79    1
    82    43    80    1
