
     RDKit          3D

 41 42  0  0  0  0  0  0  0  0999 V2000
    2.2152   -2.4301   -1.3571 C   0  0  0  0  0  0  0  0  0  0  0  0
    1.6412   -1.1984   -0.6584 C   0  0  0  0  0  0  0  0  0  0  0  0
    0.3532   -0.8948   -0.6440 N   0  0  0  0  0  0  0  0  0  0  0  0
   -0.1670    0.0403   -0.1252 C   0  0  0  0  0  0  0  0  0  0  0  0
   -1.5113    0.6036    0.0455 N   0  0  0  0  0  0  0  0  0  0  0  0
   -2.5592   -0.1079   -0.5479 C   0  0  0  0  0  0  0  0  0  0  0  0
   -2.2890   -1.1638   -1.1774 O   0  0  0  0  0  0  0  0  0  0  0  0
   -3.9966    0.3496   -0.4569 C   0  0  0  0  0  0  0  0  0  0  0  0
   -4.1061    1.7146   -1.0801 C   0  0  0  0  0  0  0  0  0  0  0  0
   -4.8523   -0.6076   -1.2368 C   0  0  0  0  0  0  0  0  0  0  0  0
   -4.3541    0.3520    1.0114 C   0  0  0  0  0  0  0  0  0  0  0  0
   -5.7603    0.7871    1.2636 C   0  0  0  0  0  0  0  0  0  0  0  0
   -5.9751    0.7513    2.6304 F   0  0  0  0  0  0  0  0  0  0  0  0
   -6.0386    2.0482    0.8333 F   0  0  0  0  0  0  0  0  0  0  0  0
   -6.6442   -0.0990    0.6841 F   0  0  0  0  0  0  0  0  0  0  0  0
    1.2453    0.8929    0.6074 S   0  0  0  0  0  0  0  0  0  0  0  0
    2.4800   -0.3387   -0.0003 C   0  0  0  0  0  0  0  0  0  0  0  0
    3.8528   -0.2143    0.2672 C   0  0  0  0  0  0  0  0  0  0  0  0
    4.3167    0.8743    1.0187 C   0  0  0  0  0  0  0  0  0  0  0  0
    5.6496    1.0483    1.3119 C   0  0  0  0  0  0  0  0  0  0  0  0
    6.5849    0.1365    0.8646 C   0  0  0  0  0  0  0  0  0  0  0  0
    7.9611    0.3105    1.1638 N   0  0  0  0  0  0  0  0  0  0  0  0
    6.1304   -0.9019    0.1461 N   0  0  0  0  0  0  0  0  0  0  0  0
    4.8119   -1.0848   -0.1508 C   0  0  0  0  0  0  0  0  0  0  0  0
    1.3612   -3.0111   -1.8363 H   0  0  0  0  0  0  0  0  0  0  0  0
    2.8483   -2.1569   -2.2049 H   0  0  0  0  0  0  0  0  0  0  0  0
    2.6320   -3.1407   -0.6332 H   0  0  0  0  0  0  0  0  0  0  0  0
   -1.6665    1.4640    0.5674 H   0  0  0  0  0  0  0  0  0  0  0  0
   -3.5998    1.6413   -2.0847 H   0  0  0  0  0  0  0  0  0  0  0  0
   -5.1435    1.9876   -1.2847 H   0  0  0  0  0  0  0  0  0  0  0  0
   -3.5328    2.4835   -0.5239 H   0  0  0  0  0  0  0  0  0  0  0  0
   -4.2331   -1.1350   -2.0203 H   0  0  0  0  0  0  0  0  0  0  0  0
   -5.2940   -1.4114   -0.6280 H   0  0  0  0  0  0  0  0  0  0  0  0
   -5.6631   -0.1073   -1.8057 H   0  0  0  0  0  0  0  0  0  0  0  0
   -3.6150    0.9067    1.5945 H   0  0  0  0  0  0  0  0  0  0  0  0
   -4.2770   -0.7177    1.3463 H   0  0  0  0  0  0  0  0  0  0  0  0
    3.6385    1.6241    1.3990 H   0  0  0  0  0  0  0  0  0  0  0  0
    5.9873    1.8771    1.8819 H   0  0  0  0  0  0  0  0  0  0  0  0
    8.3510    1.2733    1.2265 H   0  0  0  0  0  0  0  0  0  0  0  0
    8.6116   -0.4829    1.3264 H   0  0  0  0  0  0  0  0  0  0  0  0
    4.6060   -1.9624   -0.7335 H   0  0  0  0  0  0  0  0  0  0  0  0
  1  2  1  0
  2  3  1  0
  3  4  2  0
  4  5  1  0
  5  6  1  0
  6  7  2  0
  6  8  1  0
  8  9  1  0
  8 10  1  0
  8 11  1  0
 11 12  1  0
 12 13  1  0
 12 14  1  0
 12 15  1  0
  4 16  1  0
 16 17  1  0
 17 18  1  0
 18 19  2  0
 19 20  1  0
 20 21  2  0
 21 22  1  0
 21 23  1  0
 23 24  2  0
 17  2  2  0
 24 18  1  0
  1 25  1  0
  1 26  1  0
  1 27  1  0
  5 28  1  0
  9 29  1  0
  9 30  1  0
  9 31  1  0
 10 32  1  0
 10 33  1  0
 10 34  1  0
 11 35  1  0
 11 36  1  0
 19 37  1  0
 20 38  1  0
 22 39  1  0
 22 40  1  0
 24 41  1  0
M  END
$$$$
