@<TRIPOS>MOLECULE
*****
 41 42 0 0 0
SMALL
GASTEIGER

@<TRIPOS>ATOM
      1 C           2.2152   -2.4301   -1.3571 C.3     1  UNL1       -0.0212
      2 C           1.6412   -1.1984   -0.6584 C.ar    1  UNL1        0.0552
      3 N           0.3532   -0.8948   -0.6440 N.ar    1  UNL1       -0.2292
      4 C          -0.1670    0.0403   -0.1252 C.ar    1  UNL1        0.1651
      5 N          -1.5113    0.6036    0.0455 N.am    1  UNL1       -0.2642
      6 C          -2.5592   -0.1079   -0.5479 C.2     1  UNL1        0.2246
      7 O          -2.2890   -1.1638   -1.1774 O.2     1  UNL1       -0.2748
      8 C          -3.9966    0.3496   -0.4569 C.3     1  UNL1        0.0499
      9 C          -4.1061    1.7146   -1.0801 C.3     1  UNL1       -0.0512
     10 C          -4.8523   -0.6076   -1.2368 C.3     1  UNL1       -0.0512
     11 C          -4.3541    0.3520    1.0114 C.3     1  UNL1        0.0562
     12 C          -5.7603    0.7871    1.2636 C.3     1  UNL1        0.3911
     13 F          -5.9751    0.7513    2.6304 F       1  UNL1       -0.1707
     14 F          -6.0386    2.0482    0.8333 F       1  UNL1       -0.1707
     15 F          -6.6442   -0.0990    0.6841 F       1  UNL1       -0.1707
     16 S           1.2453    0.8929    0.6074 S.2     1  UNL1       -0.0517
     17 C           2.4800   -0.3387   -0.0003 C.ar    1  UNL1        0.0450
     18 C           3.8528   -0.2143    0.2672 C.ar    1  UNL1        0.0087
     19 C           4.3167    0.8743    1.0187 C.ar    1  UNL1       -0.0488
     20 C           5.6496    1.0483    1.3119 C.ar    1  UNL1       -0.0215
     21 C           6.5849    0.1365    0.8646 C.ar    1  UNL1        0.1161
     22 N           7.9611    0.3105    1.1638 N.pl3   1  UNL1       -0.3431
     23 N           6.1304   -0.9019    0.1461 N.ar    1  UNL1       -0.2401
     24 C           4.8119   -1.0848   -0.1508 C.ar    1  UNL1        0.0379
     25 H           1.3612   -3.0111   -1.8363 H       1  UNL1        0.0293
     26 H           2.8483   -2.1569   -2.2049 H       1  UNL1        0.0293
     27 H           2.6320   -3.1407   -0.6332 H       1  UNL1        0.0293
     28 H          -1.6665    1.4640    0.5674 H       1  UNL1        0.1567
     29 H          -3.5998    1.6413   -2.0847 H       1  UNL1        0.0240
     30 H          -5.1435    1.9876   -1.2847 H       1  UNL1        0.0240
     31 H          -3.5328    2.4835   -0.5239 H       1  UNL1        0.0240
     32 H          -4.2331   -1.1350   -2.0203 H       1  UNL1        0.0240
     33 H          -5.2940   -1.4114   -0.6280 H       1  UNL1        0.0240
     34 H          -5.6631   -0.1073   -1.8057 H       1  UNL1        0.0240
     35 H          -3.6150    0.9067    1.5945 H       1  UNL1        0.0362
     36 H          -4.2770   -0.7177    1.3463 H       1  UNL1        0.0362
     37 H           3.6385    1.6241    1.3990 H       1  UNL1        0.0625
     38 H           5.9873    1.8771    1.8819 H       1  UNL1        0.0652
     39 H           8.3510    1.2733    1.2265 H       1  UNL1        0.1437
     40 H           8.6116   -0.4829    1.3264 H       1  UNL1        0.1437
     41 H           4.6060   -1.9624   -0.7335 H       1  UNL1        0.0836
@<TRIPOS>BOND
     1     1     2    1
     2     2     3   ar
     3     3     4   ar
     4     4     5    1
     5     5     6   am
     6     6     7    2
     7     6     8    1
     8     8     9    1
     9     8    10    1
    10     8    11    1
    11    11    12    1
    12    12    13    1
    13    12    14    1
    14    12    15    1
    15     4    16   ar
    16    16    17   ar
    17    17    18    1
    18    18    19   ar
    19    19    20   ar
    20    20    21   ar
    21    21    22    1
    22    21    23   ar
    23    23    24   ar
    24    17     2   ar
    25    24    18   ar
    26     1    25    1
    27     1    26    1
    28     1    27    1
    29     5    28    1
    30     9    29    1
    31     9    30    1
    32     9    31    1
    33    10    32    1
    34    10    33    1
    35    10    34    1
    36    11    35    1
    37    11    36    1
    38    19    37    1
    39    20    38    1
    40    22    39    1
    41    22    40    1
    42    24    41    1
