@<TRIPOS>MOLECULE
*****
 36 37 0 0 0
SMALL
GASTEIGER

@<TRIPOS>ATOM
      1 C          -4.7178    1.0436   -1.3726 C.3     1  UNL1       -0.0306
      2 C          -4.2467   -0.3683   -1.5569 C.3     1  UNL1        0.0900
      3 O          -3.0075   -0.6395   -0.9805 O.3     1  UNL1       -0.4614
      4 C          -2.6914   -0.5236    0.3615 C.2     1  UNL1        0.3427
      5 O          -3.7412   -0.1300    0.9302 O.2     1  UNL1       -0.2448
      6 C          -1.2940   -0.8903    0.6188 C.ar    1  UNL1        0.1025
      7 C          -0.2755    0.0492    0.5725 C.ar    1  UNL1        0.0561
      8 C          -0.4028    1.5179    0.2709 C.3     1  UNL1       -0.0214
      9 N           0.8389   -0.6479    0.8562 N.ar    1  UNL1       -0.2359
     10 N           0.5260   -1.9065    1.0584 N.ar    1  UNL1       -0.1706
     11 C          -0.7854   -2.1313    0.9271 C.ar    1  UNL1        0.0746
     12 C          -1.5764   -3.3829    1.0643 C.3     1  UNL1       -0.0198
     13 C           2.1145   -0.0135    0.9033 C.ar    1  UNL1        0.0658
     14 C           2.7720    0.5578    1.9729 C.ar    1  UNL1       -0.0345
     15 C           4.0161    1.1195    1.7750 C.ar    1  UNL1       -0.0390
     16 C           4.6091    1.1203    0.5393 C.ar    1  UNL1        0.0247
     17 N           5.8929    1.7020    0.3443 N.pl3   1  UNL1       -0.3580
     18 C           3.9649    0.5520   -0.5452 C.ar    1  UNL1       -0.0390
     19 C           2.7024   -0.0216   -0.3595 C.ar    1  UNL1       -0.0345
     20 H          -5.2702    1.1923   -0.4253 H       1  UNL1        0.0262
     21 H          -5.4667    1.2285   -2.1857 H       1  UNL1        0.0262
     22 H          -3.8908    1.7529   -1.5405 H       1  UNL1        0.0262
     23 H          -4.9971   -1.0668   -1.1402 H       1  UNL1        0.0695
     24 H          -4.1097   -0.5071   -2.6651 H       1  UNL1        0.0695
     25 H          -0.0061    1.7123   -0.7457 H       1  UNL1        0.0293
     26 H           0.0441    2.1319    1.0509 H       1  UNL1        0.0293
     27 H          -1.4877    1.7504    0.2270 H       1  UNL1        0.0293
     28 H          -2.0395   -3.6369    0.0736 H       1  UNL1        0.0293
     29 H          -0.9361   -4.1985    1.4405 H       1  UNL1        0.0293
     30 H          -2.3958   -3.2257    1.8137 H       1  UNL1        0.0293
     31 H           2.2075    0.4969    2.8919 H       1  UNL1        0.0639
     32 H           4.4807    1.5493    2.6424 H       1  UNL1        0.0637
     33 H           6.5409    0.9905   -0.1062 H       1  UNL1        0.1423
     34 H           5.8674    2.6844    0.6962 H       1  UNL1        0.1423
     35 H           4.4687    0.5744   -1.5018 H       1  UNL1        0.0637
     36 H           2.2922   -0.4358   -1.2740 H       1  UNL1        0.0639
@<TRIPOS>BOND
     1     1     2    1
     2     2     3    1
     3     3     4    1
     4     4     5    2
     5     4     6    1
     6     6     7   ar
     7     7     8    1
     8     7     9   ar
     9     9    10   ar
    10    10    11   ar
    11    11    12    1
    12     9    13    1
    13    13    14   ar
    14    14    15   ar
    15    15    16   ar
    16    16    17    1
    17    16    18   ar
    18    18    19   ar
    19    11     6   ar
    20    19    13   ar
    21     1    20    1
    22     1    21    1
    23     1    22    1
    24     2    23    1
    25     2    24    1
    26     8    25    1
    27     8    26    1
    28     8    27    1
    29    12    28    1
    30    12    29    1
    31    12    30    1
    32    14    31    1
    33    15    32    1
    34    17    33    1
    35    17    34    1
    36    18    35    1
    37    19    36    1
