@<TRIPOS>MOLECULE
*****
 69 73 0 0 0
SMALL
GASTEIGER

@<TRIPOS>ATOM
      1 C          -3.8414   -2.4020    3.2004 C.3     1  UNL1       -0.0373
      2 C          -4.4693   -1.4477    2.2471 C.ar    1  UNL1       -0.0202
      3 C          -4.2205   -1.4785    0.8920 C.ar    1  UNL1        0.0350
      4 N          -3.3178   -2.4765    0.3652 N.pl3   1  UNL1       -0.3127
      5 C          -3.0807   -2.5306   -1.0447 C.ar    1  UNL1        0.0591
      6 C          -3.9291   -3.4033   -1.7584 C.ar    1  UNL1        0.0914
      7 C          -4.9101   -4.1879   -1.0673 C.1     1  UNL1        0.1026
      8 N          -5.7215   -4.8212   -0.5178 N.1     1  UNL1       -0.1908
      9 C          -3.7763   -3.4580   -3.1210 C.ar    1  UNL1        0.0467
     10 N          -2.8400   -2.6897   -3.7043 N.ar    1  UNL1       -0.2613
     11 C          -2.0401   -1.8670   -3.0254 C.ar    1  UNL1        0.0365
     12 C          -2.1325   -1.7535   -1.6268 C.ar    1  UNL1        0.0155
     13 C          -1.1926   -0.8806   -0.9583 C.2     1  UNL1       -0.0508
     14 C          -0.9114   -0.7359    0.2993 C.2     1  UNL1       -0.0538
     15 C           0.0834    0.2115    0.8464 C.ar    1  UNL1       -0.0216
     16 C           0.3141    0.2495    2.2184 C.ar    1  UNL1       -0.0544
     17 C           1.2178    1.1031    2.7802 C.ar    1  UNL1       -0.0577
     18 C           1.9357    1.9628    1.9811 C.ar    1  UNL1       -0.0199
     19 C           1.7401    1.9633    0.5884 C.ar    1  UNL1        0.1211
     20 O           2.4782    2.8334   -0.1242 O.3     1  UNL1       -0.4907
     21 C           2.6247    3.1622   -1.4355 C.3     1  UNL1        0.1022
     22 C           3.1143    2.1124   -2.3812 C.3     1  UNL1        0.0332
     23 N           4.3856    1.5807   -2.0792 N.3     1  UNL1       -0.2967
     24 C           5.5231    2.3804   -2.2028 C.3     1  UNL1        0.0118
     25 C           6.7518    1.9250   -1.5020 C.3     1  UNL1        0.0114
     26 N           6.7745    0.5267   -1.1739 N.3     1  UNL1       -0.3029
     27 C           7.8907    0.1743   -0.3221 C.3     1  UNL1       -0.0127
     28 C           5.5301    0.0068   -0.7193 C.3     1  UNL1        0.0114
     29 C           4.5089    0.2027   -1.8258 C.3     1  UNL1        0.0118
     30 C           0.7950    1.0622    0.0661 C.ar    1  UNL1       -0.0128
     31 C          -4.7965   -0.6043    0.0064 C.ar    1  UNL1       -0.0383
     32 C          -5.6685    0.3576    0.4802 C.ar    1  UNL1       -0.0360
     33 C          -5.9435    0.4193    1.8382 C.ar    1  UNL1        0.0468
     34 N          -6.7456    1.2493    2.5431 N.ar    1  UNL1       -0.3606
     35 C          -6.6762    0.9047    3.8449 C.ar    1  UNL1        0.0027
     36 C          -5.8115   -0.1659    3.9621 C.ar    1  UNL1       -0.0364
     37 C          -5.3538   -0.4695    2.7107 C.ar    1  UNL1        0.0043
     38 H          -4.3088   -3.3876    3.2040 H       1  UNL1        0.0278
     39 H          -3.8709   -1.9006    4.2033 H       1  UNL1        0.0278
     40 H          -2.7520   -2.4341    2.9359 H       1  UNL1        0.0278
     41 H          -2.8768   -3.1463    1.0299 H       1  UNL1        0.1522
     42 H          -4.4016   -4.1130   -3.7275 H       1  UNL1        0.0843
     43 H          -1.2859   -1.2531   -3.5282 H       1  UNL1        0.0836
     44 H          -0.6038   -0.1962   -1.6197 H       1  UNL1        0.0625
     45 H          -1.4402   -1.3793    0.9940 H       1  UNL1        0.0624
     46 H          -0.2473   -0.4266    2.8450 H       1  UNL1        0.0623
     47 H           1.3929    1.1267    3.8612 H       1  UNL1        0.0619
     48 H           2.6655    2.6584    2.3789 H       1  UNL1        0.0654
     49 H           1.6012    3.4740   -1.8211 H       1  UNL1        0.0709
     50 H           3.2116    4.1086   -1.5054 H       1  UNL1        0.0709
     51 H           3.1833    2.5460   -3.4318 H       1  UNL1        0.0460
     52 H           2.3865    1.2961   -2.4770 H       1  UNL1        0.0460
     53 H           5.2862    3.4187   -1.8206 H       1  UNL1        0.0439
     54 H           5.7148    2.5399   -3.3061 H       1  UNL1        0.0439
     55 H           7.6202    2.1104   -2.1846 H       1  UNL1        0.0439
     56 H           6.9935    2.4889   -0.5742 H       1  UNL1        0.0439
     57 H           8.8528    0.4181   -0.7677 H       1  UNL1        0.0391
     58 H           7.7998   -0.8881   -0.0074 H       1  UNL1        0.0391
     59 H           7.7785    0.7787    0.6087 H       1  UNL1        0.0391
     60 H           5.6262   -1.0754   -0.5597 H       1  UNL1        0.0439
     61 H           5.1780    0.5657    0.1668 H       1  UNL1        0.0439
     62 H           3.5431   -0.1923   -1.4587 H       1  UNL1        0.0439
     63 H           4.8044   -0.3754   -2.7289 H       1  UNL1        0.0439
     64 H           0.6423    1.0748   -0.9925 H       1  UNL1        0.0660
     65 H          -4.5608   -0.6799   -1.0454 H       1  UNL1        0.0637
     66 H          -6.1139    1.0412   -0.2402 H       1  UNL1        0.0639
     67 H          -7.3184    2.0251    2.1291 H       1  UNL1        0.1653
     68 H          -7.2267    1.4126    4.6404 H       1  UNL1        0.0807
     69 H          -5.5627   -0.6520    4.8801 H       1  UNL1        0.0639
@<TRIPOS>BOND
     1     1     2    1
     2     2     3   ar
     3     3     4    1
     4     4     5    1
     5     5     6   ar
     6     6     7    1
     7     7     8    3
     8     6     9   ar
     9     9    10   ar
    10    10    11   ar
    11    11    12   ar
    12    12    13    1
    13    13    14    2
    14    14    15    1
    15    15    16   ar
    16    16    17   ar
    17    17    18   ar
    18    18    19   ar
    19    19    20    1
    20    20    21    1
    21    21    22    1
    22    22    23    1
    23    23    24    1
    24    24    25    1
    25    25    26    1
    26    26    27    1
    27    26    28    1
    28    28    29    1
    29    19    30   ar
    30     3    31   ar
    31    31    32   ar
    32    32    33   ar
    33    33    34   ar
    34    34    35   ar
    35    35    36   ar
    36    36    37   ar
    37    37     2   ar
    38    12     5   ar
    39    30    15   ar
    40    37    33   ar
    41    29    23    1
    42     1    38    1
    43     1    39    1
    44     1    40    1
    45     4    41    1
    46     9    42    1
    47    11    43    1
    48    13    44    1
    49    14    45    1
    50    16    46    1
    51    17    47    1
    52    18    48    1
    53    21    49    1
    54    21    50    1
    55    22    51    1
    56    22    52    1
    57    24    53    1
    58    24    54    1
    59    25    55    1
    60    25    56    1
    61    27    57    1
    62    27    58    1
    63    27    59    1
    64    28    60    1
    65    28    61    1
    66    29    62    1
    67    29    63    1
    68    30    64    1
    69    31    65    1
    70    32    66    1
    71    34    67    1
    72    35    68    1
    73    36    69    1
