
     RDKit          3D

 69 73  0  0  0  0  0  0  0  0999 V2000
   -3.8414   -2.4020    3.2004 C   0  0  0  0  0  0  0  0  0  0  0  0
   -4.4693   -1.4477    2.2471 C   0  0  0  0  0  0  0  0  0  0  0  0
   -4.2205   -1.4785    0.8920 C   0  0  0  0  0  0  0  0  0  0  0  0
   -3.3178   -2.4765    0.3652 N   0  0  0  0  0  0  0  0  0  0  0  0
   -3.0807   -2.5306   -1.0447 C   0  0  0  0  0  0  0  0  0  0  0  0
   -3.9291   -3.4033   -1.7584 C   0  0  0  0  0  0  0  0  0  0  0  0
   -4.9101   -4.1879   -1.0673 C   0  0  0  0  0  0  0  0  0  0  0  0
   -5.7215   -4.8212   -0.5178 N   0  0  0  0  0  0  0  0  0  0  0  0
   -3.7763   -3.4580   -3.1210 C   0  0  0  0  0  0  0  0  0  0  0  0
   -2.8400   -2.6897   -3.7043 N   0  0  0  0  0  0  0  0  0  0  0  0
   -2.0401   -1.8670   -3.0254 C   0  0  0  0  0  0  0  0  0  0  0  0
   -2.1325   -1.7535   -1.6268 C   0  0  0  0  0  0  0  0  0  0  0  0
   -1.1926   -0.8806   -0.9583 C   0  0  0  0  0  0  0  0  0  0  0  0
   -0.9114   -0.7359    0.2993 C   0  0  0  0  0  0  0  0  0  0  0  0
    0.0834    0.2115    0.8464 C   0  0  0  0  0  0  0  0  0  0  0  0
    0.3141    0.2495    2.2184 C   0  0  0  0  0  0  0  0  0  0  0  0
    1.2178    1.1031    2.7802 C   0  0  0  0  0  0  0  0  0  0  0  0
    1.9357    1.9628    1.9811 C   0  0  0  0  0  0  0  0  0  0  0  0
    1.7401    1.9633    0.5884 C   0  0  0  0  0  0  0  0  0  0  0  0
    2.4782    2.8334   -0.1242 O   0  0  0  0  0  0  0  0  0  0  0  0
    2.6247    3.1622   -1.4355 C   0  0  0  0  0  0  0  0  0  0  0  0
    3.1143    2.1124   -2.3812 C   0  0  0  0  0  0  0  0  0  0  0  0
    4.3856    1.5807   -2.0792 N   0  0  0  0  0  0  0  0  0  0  0  0
    5.5231    2.3804   -2.2028 C   0  0  0  0  0  0  0  0  0  0  0  0
    6.7518    1.9250   -1.5020 C   0  0  0  0  0  0  0  0  0  0  0  0
    6.7745    0.5267   -1.1739 N   0  0  0  0  0  0  0  0  0  0  0  0
    7.8907    0.1743   -0.3221 C   0  0  0  0  0  0  0  0  0  0  0  0
    5.5301    0.0068   -0.7193 C   0  0  0  0  0  0  0  0  0  0  0  0
    4.5089    0.2027   -1.8258 C   0  0  0  0  0  0  0  0  0  0  0  0
    0.7950    1.0622    0.0661 C   0  0  0  0  0  0  0  0  0  0  0  0
   -4.7965   -0.6043    0.0064 C   0  0  0  0  0  0  0  0  0  0  0  0
   -5.6685    0.3576    0.4802 C   0  0  0  0  0  0  0  0  0  0  0  0
   -5.9435    0.4193    1.8382 C   0  0  0  0  0  0  0  0  0  0  0  0
   -6.7456    1.2493    2.5431 N   0  0  0  0  0  0  0  0  0  0  0  0
   -6.6762    0.9047    3.8449 C   0  0  0  0  0  0  0  0  0  0  0  0
   -5.8115   -0.1659    3.9621 C   0  0  0  0  0  0  0  0  0  0  0  0
   -5.3538   -0.4695    2.7107 C   0  0  0  0  0  0  0  0  0  0  0  0
   -4.3088   -3.3876    3.2040 H   0  0  0  0  0  0  0  0  0  0  0  0
   -3.8709   -1.9006    4.2033 H   0  0  0  0  0  0  0  0  0  0  0  0
   -2.7520   -2.4341    2.9359 H   0  0  0  0  0  0  0  0  0  0  0  0
   -2.8768   -3.1463    1.0299 H   0  0  0  0  0  0  0  0  0  0  0  0
   -4.4016   -4.1130   -3.7275 H   0  0  0  0  0  0  0  0  0  0  0  0
   -1.2859   -1.2531   -3.5282 H   0  0  0  0  0  0  0  0  0  0  0  0
   -0.6038   -0.1962   -1.6197 H   0  0  0  0  0  0  0  0  0  0  0  0
   -1.4402   -1.3793    0.9940 H   0  0  0  0  0  0  0  0  0  0  0  0
   -0.2473   -0.4266    2.8450 H   0  0  0  0  0  0  0  0  0  0  0  0
    1.3929    1.1267    3.8612 H   0  0  0  0  0  0  0  0  0  0  0  0
    2.6655    2.6584    2.3789 H   0  0  0  0  0  0  0  0  0  0  0  0
    1.6012    3.4740   -1.8211 H   0  0  0  0  0  0  0  0  0  0  0  0
    3.2116    4.1086   -1.5054 H   0  0  0  0  0  0  0  0  0  0  0  0
    3.1833    2.5460   -3.4318 H   0  0  0  0  0  0  0  0  0  0  0  0
    2.3865    1.2961   -2.4770 H   0  0  0  0  0  0  0  0  0  0  0  0
    5.2862    3.4187   -1.8206 H   0  0  0  0  0  0  0  0  0  0  0  0
    5.7148    2.5399   -3.3061 H   0  0  0  0  0  0  0  0  0  0  0  0
    7.6202    2.1104   -2.1846 H   0  0  0  0  0  0  0  0  0  0  0  0
    6.9935    2.4889   -0.5742 H   0  0  0  0  0  0  0  0  0  0  0  0
    8.8528    0.4181   -0.7677 H   0  0  0  0  0  0  0  0  0  0  0  0
    7.7998   -0.8881   -0.0074 H   0  0  0  0  0  0  0  0  0  0  0  0
    7.7785    0.7787    0.6087 H   0  0  0  0  0  0  0  0  0  0  0  0
    5.6262   -1.0754   -0.5597 H   0  0  0  0  0  0  0  0  0  0  0  0
    5.1780    0.5657    0.1668 H   0  0  0  0  0  0  0  0  0  0  0  0
    3.5431   -0.1923   -1.4587 H   0  0  0  0  0  0  0  0  0  0  0  0
    4.8044   -0.3754   -2.7289 H   0  0  0  0  0  0  0  0  0  0  0  0
    0.6423    1.0748   -0.9925 H   0  0  0  0  0  0  0  0  0  0  0  0
   -4.5608   -0.6799   -1.0454 H   0  0  0  0  0  0  0  0  0  0  0  0
   -6.1139    1.0412   -0.2402 H   0  0  0  0  0  0  0  0  0  0  0  0
   -7.3184    2.0251    2.1291 H   0  0  0  0  0  0  0  0  0  0  0  0
   -7.2267    1.4126    4.6404 H   0  0  0  0  0  0  0  0  0  0  0  0
   -5.5627   -0.6520    4.8801 H   0  0  0  0  0  0  0  0  0  0  0  0
  1  2  1  0
  2  3  2  0
  3  4  1  0
  4  5  1  0
  5  6  2  0
  6  7  1  0
  7  8  3  0
  6  9  1  0
  9 10  2  0
 10 11  1  0
 11 12  2  0
 12 13  1  0
 13 14  2  0
 14 15  1  0
 15 16  2  0
 16 17  1  0
 17 18  2  0
 18 19  1  0
 19 20  1  0
 20 21  1  0
 21 22  1  0
 22 23  1  0
 23 24  1  0
 24 25  1  0
 25 26  1  0
 26 27  1  0
 26 28  1  0
 28 29  1  0
 19 30  2  0
  3 31  1  0
 31 32  2  0
 32 33  1  0
 33 34  1  0
 34 35  1  0
 35 36  2  0
 36 37  1  0
 37  2  1  0
 12  5  1  0
 30 15  1  0
 37 33  2  0
 29 23  1  0
  1 38  1  0
  1 39  1  0
  1 40  1  0
  4 41  1  0
  9 42  1  0
 11 43  1  0
 13 44  1  0
 14 45  1  0
 16 46  1  0
 17 47  1  0
 18 48  1  0
 21 49  1  0
 21 50  1  0
 22 51  1  0
 22 52  1  0
 24 53  1  0
 24 54  1  0
 25 55  1  0
 25 56  1  0
 27 57  1  0
 27 58  1  0
 27 59  1  0
 28 60  1  0
 28 61  1  0
 29 62  1  0
 29 63  1  0
 30 64  1  0
 31 65  1  0
 32 66  1  0
 34 67  1  0
 35 68  1  0
 36 69  1  0
M  END
$$$$
