@<TRIPOS>MOLECULE
*****
 62 66 0 0 0
SMALL
GASTEIGER

@<TRIPOS>ATOM
      1 C          -5.2317   -0.3414    3.2786 C.3     1  UNL1       -0.0374
      2 C          -4.5855   -0.8493    2.0349 C.ar    1  UNL1       -0.0164
      3 C          -3.4237   -0.3007    1.5360 C.ar    1  UNL1       -0.0161
      4 C          -2.8775   -0.8141    0.3849 C.ar    1  UNL1        0.1313
      5 N          -1.6849   -0.2393   -0.1134 N.am    1  UNL1       -0.2387
      6 C          -0.4025   -0.7288    0.3421 C.2     1  UNL1        0.2563
      7 O          -0.1887   -1.6346    1.2047 O.2     1  UNL1       -0.2694
      8 C           0.6122    0.0114   -0.3735 C.ar    1  UNL1        0.0814
      9 C           1.9987    0.1226   -0.5303 C.ar    1  UNL1        0.0664
     10 N           2.9489   -0.6509    0.1873 N.am    1  UNL1       -0.2490
     11 C           4.3496   -0.5337    0.0239 C.2     1  UNL1        0.4051
     12 O           4.7889    0.3026   -0.8038 O.2     1  UNL1       -0.2261
     13 O           5.2384   -1.3374    0.7731 O.3     1  UNL1       -0.4444
     14 C           6.6242   -1.1606    0.5530 C.3     1  UNL1        0.1068
     15 C           6.9826   -1.4467   -0.9037 C.3     1  UNL1       -0.0253
     16 C           6.9675    0.2626    0.9271 C.3     1  UNL1       -0.0253
     17 C           7.4351   -2.1534    1.3768 C.3     1  UNL1       -0.0253
     18 C           2.1462    1.0982   -1.4827 C.ar    1  UNL1        0.0267
     19 N           0.9635    1.5822   -1.9104 N.ar    1  UNL1       -0.3492
     20 C           0.7899    2.6266   -2.9408 C.3     1  UNL1        0.0117
     21 C           0.0064    0.9174   -1.2291 C.ar    1  UNL1        0.0581
     22 C          -1.4651    0.8244   -1.0675 C.3     1  UNL1        0.0986
     23 C          -2.1312    2.0735   -0.6894 C.ar    1  UNL1       -0.0207
     24 C          -3.5191    2.0965   -0.5945 C.ar    1  UNL1       -0.0550
     25 C          -4.1770    3.2447   -0.2181 C.ar    1  UNL1       -0.0431
     26 C          -3.5093    4.4092    0.0784 C.ar    1  UNL1        0.0410
     27 CL         -4.3960    5.8395    0.5513 Cl      1  UNL1       -0.0835
     28 C          -2.1325    4.3910   -0.0145 C.ar    1  UNL1       -0.0431
     29 C          -1.4478    3.2309   -0.3956 C.ar    1  UNL1       -0.0550
     30 N          -3.4840   -1.8377   -0.2307 N.ar    1  UNL1       -0.2108
     31 C          -4.6181   -2.3890    0.2376 C.ar    1  UNL1        0.1803
     32 C          -5.1983   -1.9029    1.3899 C.ar    1  UNL1        0.1345
     33 N          -6.2998   -2.6382    1.6071 N.ar    1  UNL1       -0.1276
     34 N          -6.4356   -3.5514    0.6565 N.ar    1  UNL1       -0.0635
     35 N          -5.4171   -3.3973   -0.1692 N.ar    1  UNL1       -0.2297
     36 C          -5.1504   -4.1774   -1.3605 C.3     1  UNL1        0.0341
     37 H          -4.6968   -0.8194    4.1263 H       1  UNL1        0.0278
     38 H          -5.0840    0.7546    3.3321 H       1  UNL1        0.0278
     39 H          -6.3053   -0.5522    3.2624 H       1  UNL1        0.0278
     40 H          -2.9509    0.5281    2.0526 H       1  UNL1        0.0655
     41 H           2.6141   -1.3561    0.8841 H       1  UNL1        0.1582
     42 H           6.2543   -2.1246   -1.3767 H       1  UNL1        0.0268
     43 H           7.9744   -1.9391   -0.9787 H       1  UNL1        0.0268
     44 H           7.0643   -0.4907   -1.4765 H       1  UNL1        0.0268
     45 H           7.9722    0.3398    1.3940 H       1  UNL1        0.0268
     46 H           6.1955    0.6396    1.6141 H       1  UNL1        0.0268
     47 H           6.9106    0.8630   -0.0163 H       1  UNL1        0.0268
     48 H           6.9211   -3.1359    1.4383 H       1  UNL1        0.0268
     49 H           7.6143   -1.7261    2.3944 H       1  UNL1        0.0268
     50 H           8.4255   -2.3355    0.9152 H       1  UNL1        0.0268
     51 H           3.1102    1.4450   -1.8538 H       1  UNL1        0.0828
     52 H          -0.2884    2.7195   -3.1084 H       1  UNL1        0.0456
     53 H           1.3601    2.3149   -3.8487 H       1  UNL1        0.0456
     54 H           1.2556    3.5456   -2.5307 H       1  UNL1        0.0456
     55 H          -1.8509    0.5426   -2.0842 H       1  UNL1        0.0620
     56 H          -4.0515    1.1739   -0.8368 H       1  UNL1        0.0621
     57 H          -5.2561    3.2617   -0.1443 H       1  UNL1        0.0632
     58 H          -1.5978    5.3010    0.2163 H       1  UNL1        0.0632
     59 H          -0.3732    3.2703   -0.4414 H       1  UNL1        0.0621
     60 H          -5.5321   -5.2152   -1.2592 H       1  UNL1        0.0474
     61 H          -5.6976   -3.7299   -2.2179 H       1  UNL1        0.0474
     62 H          -4.0639   -4.2235   -1.5718 H       1  UNL1        0.0474
@<TRIPOS>BOND
     1     1     2    1
     2     2     3   ar
     3     3     4   ar
     4     4     5    1
     5     5     6   am
     6     6     7    2
     7     6     8    1
     8     8     9   ar
     9     9    10    1
    10    10    11   am
    11    11    12    2
    12    11    13    1
    13    13    14    1
    14    14    15    1
    15    14    16    1
    16    14    17    1
    17     9    18   ar
    18    18    19   ar
    19    19    20    1
    20    19    21   ar
    21    21    22    1
    22    22    23    1
    23    23    24   ar
    24    24    25   ar
    25    25    26   ar
    26    26    27    1
    27    26    28   ar
    28    28    29   ar
    29     4    30   ar
    30    30    31   ar
    31    31    32   ar
    32    32    33   ar
    33    33    34   ar
    34    34    35   ar
    35    35    36    1
    36    32     2   ar
    37    22     5    1
    38    29    23   ar
    39    35    31   ar
    40    21     8   ar
    41     1    37    1
    42     1    38    1
    43     1    39    1
    44     3    40    1
    45    10    41    1
    46    15    42    1
    47    15    43    1
    48    15    44    1
    49    16    45    1
    50    16    46    1
    51    16    47    1
    52    17    48    1
    53    17    49    1
    54    17    50    1
    55    18    51    1
    56    20    52    1
    57    20    53    1
    58    20    54    1
    59    22    55    1
    60    24    56    1
    61    25    57    1
    62    28    58    1
    63    29    59    1
    64    36    60    1
    65    36    61    1
    66    36    62    1
