@<TRIPOS>MOLECULE
*****
 56 59 0 0 0
SMALL
GASTEIGER

@<TRIPOS>ATOM
      1 C           8.2615   -1.2740   -1.1329 C.3     1  UNL1       -0.0397
      2 C           7.0190   -0.4724   -0.9164 C.ar    1  UNL1       -0.0503
      3 C           6.5316   -0.2021    0.3407 C.ar    1  UNL1       -0.0570
      4 C           5.3822    0.5400    0.5198 C.ar    1  UNL1       -0.0351
      5 C           4.6653    1.0474   -0.5535 C.ar    1  UNL1        0.1055
      6 S           3.2212    1.9790   -0.3370 S.O2    1  UNL1        0.0618
      7 O           3.1611    3.1203   -1.3472 O.2     1  UNL1       -0.1528
      8 O           3.2929    2.6830    1.0140 O.2     1  UNL1       -0.1528
      9 N           1.8386    1.0302   -0.3470 N.3     1  UNL1       -0.1599
     10 C           1.5338    0.2940   -1.5114 C.3     1  UNL1        0.0257
     11 C           0.0661    0.4108   -1.8053 C.3     1  UNL1       -0.0127
     12 C          -0.7116    0.3507   -0.5493 C.ar    1  UNL1       -0.0375
     13 C          -2.1148    0.2488   -0.6422 C.ar    1  UNL1       -0.0164
     14 C          -2.9443    0.2150    0.4450 C.ar    1  UNL1        0.1213
     15 O          -4.3058    0.1134    0.2635 O.3     1  UNL1       -0.4874
     16 C          -5.2379    0.0712    1.3184 C.3     1  UNL1        0.1146
     17 C          -6.6080   -0.0404    0.7646 C.ar    1  UNL1       -0.0104
     18 C          -7.1542   -1.2796    0.5384 C.ar    1  UNL1       -0.0554
     19 C          -8.4334   -1.3415    0.0220 C.ar    1  UNL1       -0.0614
     20 C          -9.1863   -0.2271   -0.2766 C.ar    1  UNL1       -0.0617
     21 C          -8.6033    1.0199   -0.0355 C.ar    1  UNL1       -0.0614
     22 C          -7.3361    1.1069    0.4763 C.ar    1  UNL1       -0.0554
     23 C          -2.3732    0.2849    1.6846 C.ar    1  UNL1       -0.0196
     24 C          -0.9801    0.3863    1.7925 C.ar    1  UNL1       -0.0528
     25 C          -0.1415    0.4191    0.7018 C.ar    1  UNL1       -0.0164
     26 C           1.3515    0.5250    0.8917 C.3     1  UNL1        0.1349
     27 C           1.9561   -0.7806    1.2396 C.2     1  UNL1        0.2588
     28 O           2.7655   -1.3632    0.4541 O.2     1  UNL1       -0.2716
     29 N           1.6891   -1.4619    2.4407 N.am    1  UNL1       -0.1959
     30 O           2.2996   -2.6788    2.6775 O.3     1  UNL1       -0.2951
     31 C           5.1688    0.7669   -1.8147 C.ar    1  UNL1       -0.0351
     32 C           6.3183    0.0248   -1.9942 C.ar    1  UNL1       -0.0570
     33 H           8.3629   -2.0570   -0.3321 H       1  UNL1        0.0278
     34 H           8.1972   -1.8688   -2.0853 H       1  UNL1        0.0278
     35 H           9.1656   -0.6518   -1.1912 H       1  UNL1        0.0278
     36 H           7.0819   -0.5924    1.1852 H       1  UNL1        0.0621
     37 H           4.9876    0.7602    1.5041 H       1  UNL1        0.0637
     38 H           2.1307    0.6973   -2.3718 H       1  UNL1        0.0447
     39 H           1.7694   -0.8082   -1.4732 H       1  UNL1        0.0447
     40 H          -0.2880   -0.3721   -2.5139 H       1  UNL1        0.0326
     41 H          -0.0514    1.4265   -2.2963 H       1  UNL1        0.0326
     42 H          -2.5666    0.1934   -1.6412 H       1  UNL1        0.0657
     43 H          -5.1355    0.9220    2.0196 H       1  UNL1        0.0748
     44 H          -5.0428   -0.8504    1.9048 H       1  UNL1        0.0748
     45 H          -6.6289   -2.2012    0.7463 H       1  UNL1        0.0621
     46 H          -8.8539   -2.3273   -0.1523 H       1  UNL1        0.0618
     47 H         -10.1872   -0.3198   -0.6809 H       1  UNL1        0.0618
     48 H          -9.1528    1.9159   -0.2527 H       1  UNL1        0.0618
     49 H          -6.8404    2.0529    0.6809 H       1  UNL1        0.0621
     50 H          -2.9854    0.2626    2.5787 H       1  UNL1        0.0654
     51 H          -0.5355    0.4618    2.7828 H       1  UNL1        0.0622
     52 H           1.5659    1.2830    1.6791 H       1  UNL1        0.0626
     53 H           1.0619   -1.1087    3.1771 H       1  UNL1        0.1823
     54 H           2.1798   -3.2688    1.9170 H       1  UNL1        0.2414
     55 H           4.6515    1.1370   -2.6940 H       1  UNL1        0.0637
     56 H           6.7225   -0.2018   -2.9712 H       1  UNL1        0.0621
@<TRIPOS>BOND
     1     1     2    1
     2     2     3   ar
     3     3     4   ar
     4     4     5   ar
     5     5     6    1
     6     6     7    2
     7     6     8    2
     8     6     9    1
     9     9    10    1
    10    10    11    1
    11    11    12    1
    12    12    13   ar
    13    13    14   ar
    14    14    15    1
    15    15    16    1
    16    16    17    1
    17    17    18   ar
    18    18    19   ar
    19    19    20   ar
    20    20    21   ar
    21    21    22   ar
    22    14    23   ar
    23    23    24   ar
    24    24    25   ar
    25    25    26    1
    26    26    27    1
    27    27    28    2
    28    27    29   am
    29    29    30    1
    30     5    31   ar
    31    31    32   ar
    32    32     2   ar
    33    26     9    1
    34    25    12   ar
    35    22    17   ar
    36     1    33    1
    37     1    34    1
    38     1    35    1
    39     3    36    1
    40     4    37    1
    41    10    38    1
    42    10    39    1
    43    11    40    1
    44    11    41    1
    45    13    42    1
    46    16    43    1
    47    16    44    1
    48    18    45    1
    49    19    46    1
    50    20    47    1
    51    21    48    1
    52    22    49    1
    53    23    50    1
    54    24    51    1
    55    26    52    1
    56    29    53    1
    57    30    54    1
    58    31    55    1
    59    32    56    1
