@<TRIPOS>MOLECULE
*****
 30 31 0 0 0
SMALL
GASTEIGER

@<TRIPOS>ATOM
      1 C          -1.1587   -2.3803   -1.0531 C.3     1  UNL1       -0.0598
      2 C          -1.5262   -1.5840    0.1433 C.3     1  UNL1       -0.0124
      3 C          -1.4940   -0.1309    0.0121 C.ar    1  UNL1        0.0556
      4 N          -2.6478    0.5648   -0.1773 N.ar    1  UNL1       -0.2190
      5 C          -2.6835    1.8975   -0.3010 C.ar    1  UNL1        0.2145
      6 N          -3.9297    2.5273   -0.4933 N.pl3   1  UNL1       -0.3274
      7 N          -1.5107    2.5609   -0.2318 N.ar    1  UNL1       -0.1995
      8 C          -0.3278    1.9697   -0.0483 C.ar    1  UNL1        0.1293
      9 N           0.8957    2.7239    0.0166 N.pl3   1  UNL1       -0.3425
     10 C          -0.3200    0.5735    0.0782 C.ar    1  UNL1        0.0431
     11 C           0.9666   -0.0293    0.2721 C.ar    1  UNL1       -0.0114
     12 C           1.7683   -0.3412   -0.8004 C.ar    1  UNL1       -0.0524
     13 C           3.0001   -0.9254   -0.6678 C.ar    1  UNL1       -0.0414
     14 C           3.4513   -1.2125    0.6083 C.ar    1  UNL1        0.0593
     15 CL          5.0392   -1.9654    0.7828 Cl      1  UNL1       -0.0820
     16 C           2.6873   -0.9205    1.7162 C.ar    1  UNL1        0.0598
     17 CL          3.3312   -1.3178    3.2838 Cl      1  UNL1       -0.0820
     18 C           1.4470   -0.3282    1.5297 C.ar    1  UNL1       -0.0341
     19 H          -1.3275   -3.4602   -0.7884 H       1  UNL1        0.0233
     20 H          -0.1394   -2.3294   -1.4125 H       1  UNL1        0.0233
     21 H          -1.8407   -2.1877   -1.9135 H       1  UNL1        0.0233
     22 H          -0.8986   -1.9420    0.9903 H       1  UNL1        0.0326
     23 H          -2.5692   -1.9144    0.4381 H       1  UNL1        0.0326
     24 H          -4.4947    2.2987   -1.3252 H       1  UNL1        0.1452
     25 H          -4.2818    3.2132    0.1905 H       1  UNL1        0.1452
     26 H           1.7038    2.3895    0.5848 H       1  UNL1        0.1437
     27 H           0.9942    3.6224   -0.5062 H       1  UNL1        0.1437
     28 H           1.4040   -0.1109   -1.7961 H       1  UNL1        0.0624
     29 H           3.5804   -1.1440   -1.5553 H       1  UNL1        0.0633
     30 H           0.8813   -0.1172    2.4233 H       1  UNL1        0.0639
@<TRIPOS>BOND
     1     1     2    1
     2     2     3    1
     3     3     4   ar
     4     4     5   ar
     5     5     6    1
     6     5     7   ar
     7     7     8   ar
     8     8     9    1
     9     8    10   ar
    10    10    11    1
    11    11    12   ar
    12    12    13   ar
    13    13    14   ar
    14    14    15    1
    15    14    16   ar
    16    16    17    1
    17    16    18   ar
    18    10     3   ar
    19    18    11   ar
    20     1    19    1
    21     1    20    1
    22     1    21    1
    23     2    22    1
    24     2    23    1
    25     6    24    1
    26     6    25    1
    27     9    26    1
    28     9    27    1
    29    12    28    1
    30    13    29    1
    31    18    30    1
