
     RDKit          3D

 30 31  0  0  0  0  0  0  0  0999 V2000
   -1.1587   -2.3803   -1.0531 C   0  0  0  0  0  0  0  0  0  0  0  0
   -1.5262   -1.5840    0.1433 C   0  0  0  0  0  0  0  0  0  0  0  0
   -1.4940   -0.1309    0.0121 C   0  0  0  0  0  0  0  0  0  0  0  0
   -2.6478    0.5648   -0.1773 N   0  0  0  0  0  0  0  0  0  0  0  0
   -2.6835    1.8975   -0.3010 C   0  0  0  0  0  0  0  0  0  0  0  0
   -3.9297    2.5273   -0.4933 N   0  0  0  0  0  0  0  0  0  0  0  0
   -1.5107    2.5609   -0.2318 N   0  0  0  0  0  0  0  0  0  0  0  0
   -0.3278    1.9697   -0.0483 C   0  0  0  0  0  0  0  0  0  0  0  0
    0.8957    2.7239    0.0166 N   0  0  0  0  0  0  0  0  0  0  0  0
   -0.3200    0.5735    0.0782 C   0  0  0  0  0  0  0  0  0  0  0  0
    0.9666   -0.0293    0.2721 C   0  0  0  0  0  0  0  0  0  0  0  0
    1.7683   -0.3412   -0.8004 C   0  0  0  0  0  0  0  0  0  0  0  0
    3.0001   -0.9254   -0.6678 C   0  0  0  0  0  0  0  0  0  0  0  0
    3.4513   -1.2125    0.6083 C   0  0  0  0  0  0  0  0  0  0  0  0
    5.0392   -1.9654    0.7828 Cl  0  0  0  0  0  0  0  0  0  0  0  0
    2.6873   -0.9205    1.7162 C   0  0  0  0  0  0  0  0  0  0  0  0
    3.3312   -1.3178    3.2838 Cl  0  0  0  0  0  0  0  0  0  0  0  0
    1.4470   -0.3282    1.5297 C   0  0  0  0  0  0  0  0  0  0  0  0
   -1.3275   -3.4602   -0.7884 H   0  0  0  0  0  0  0  0  0  0  0  0
   -0.1394   -2.3294   -1.4125 H   0  0  0  0  0  0  0  0  0  0  0  0
   -1.8407   -2.1877   -1.9135 H   0  0  0  0  0  0  0  0  0  0  0  0
   -0.8986   -1.9420    0.9903 H   0  0  0  0  0  0  0  0  0  0  0  0
   -2.5692   -1.9144    0.4381 H   0  0  0  0  0  0  0  0  0  0  0  0
   -4.4947    2.2987   -1.3252 H   0  0  0  0  0  0  0  0  0  0  0  0
   -4.2818    3.2132    0.1905 H   0  0  0  0  0  0  0  0  0  0  0  0
    1.7038    2.3895    0.5848 H   0  0  0  0  0  0  0  0  0  0  0  0
    0.9942    3.6224   -0.5062 H   0  0  0  0  0  0  0  0  0  0  0  0
    1.4040   -0.1109   -1.7961 H   0  0  0  0  0  0  0  0  0  0  0  0
    3.5804   -1.1440   -1.5553 H   0  0  0  0  0  0  0  0  0  0  0  0
    0.8813   -0.1172    2.4233 H   0  0  0  0  0  0  0  0  0  0  0  0
  1  2  1  0
  2  3  1  0
  3  4  2  0
  4  5  1  0
  5  6  1  0
  5  7  2  0
  7  8  1  0
  8  9  1  0
  8 10  2  0
 10 11  1  0
 11 12  2  0
 12 13  1  0
 13 14  2  0
 14 15  1  0
 14 16  1  0
 16 17  1  0
 16 18  2  0
 10  3  1  0
 18 11  1  0
  1 19  1  0
  1 20  1  0
  1 21  1  0
  2 22  1  0
  2 23  1  0
  6 24  1  0
  6 25  1  0
  9 26  1  0
  9 27  1  0
 12 28  1  0
 13 29  1  0
 18 30  1  0
M  END
$$$$
