
     RDKit          3D

 44 45  0  0  0  0  0  0  0  0999 V2000
   -4.6528    3.7095   -0.3722 C   0  0  0  0  0  0  0  0  0  0  0  0
   -4.9770    2.3341   -0.2589 O   0  0  0  0  0  0  0  0  0  0  0  0
   -3.9313    1.4239   -0.2006 C   0  0  0  0  0  0  0  0  0  0  0  0
   -2.6159    1.8013   -0.2482 C   0  0  0  0  0  0  0  0  0  0  0  0
   -1.5597    0.9072   -0.1912 C   0  0  0  0  0  0  0  0  0  0  0  0
   -0.2091    1.4237   -0.2498 C   0  0  0  0  0  0  0  0  0  0  0  0
   -0.0389    2.6675   -0.3489 O   0  0  0  0  0  0  0  0  0  0  0  0
    0.9798    0.5341   -0.1968 C   0  0  0  0  0  0  0  0  0  0  0  0
    2.1931    1.0323   -0.2515 C   0  0  0  0  0  0  0  0  0  0  0  0
    3.3921    0.2068   -0.2036 C   0  0  0  0  0  0  0  0  0  0  0  0
    3.3673   -1.1686   -0.0984 C   0  0  0  0  0  0  0  0  0  0  0  0
    4.5485   -1.9215   -0.0550 C   0  0  0  0  0  0  0  0  0  0  0  0
    4.4847   -3.3058    0.0512 O   0  0  0  0  0  0  0  0  0  0  0  0
    5.7691   -1.2921   -0.1174 C   0  0  0  0  0  0  0  0  0  0  0  0
    6.9755   -2.0000   -0.0777 O   0  0  0  0  0  0  0  0  0  0  0  0
    5.8375    0.0916   -0.2236 C   0  0  0  0  0  0  0  0  0  0  0  0
    7.1032    0.7579   -0.2892 N   0  0  0  0  0  4  0  0  0  0  0  0
    8.0481    0.1978   -0.8153 O   0  0  0  0  0  0  0  0  0  0  0  0
    7.2139    2.0109    0.2440 O   0  0  0  0  0  1  0  0  0  0  0  0
    4.6527    0.7819   -0.2623 C   0  0  0  0  0  0  0  0  0  0  0  0
   -1.8435   -0.4349   -0.0808 C   0  0  0  0  0  0  0  0  0  0  0  0
   -3.1365   -0.8509   -0.0305 C   0  0  0  0  0  0  0  0  0  0  0  0
   -3.4467   -2.2204    0.0825 O   0  0  0  0  0  0  0  0  0  0  0  0
   -2.4045   -3.1588    0.1437 C   0  0  0  0  0  0  0  0  0  0  0  0
   -4.1725    0.0604   -0.0891 C   0  0  0  0  0  0  0  0  0  0  0  0
   -5.4651   -0.4024   -0.0350 O   0  0  0  0  0  0  0  0  0  0  0  0
   -6.2272   -0.5918    1.1175 C   0  0  0  0  0  0  0  0  0  0  0  0
   -4.1413    3.9442   -1.3311 H   0  0  0  0  0  0  0  0  0  0  0  0
   -3.9583    3.9712    0.4568 H   0  0  0  0  0  0  0  0  0  0  0  0
   -5.6014    4.3134   -0.2781 H   0  0  0  0  0  0  0  0  0  0  0  0
   -2.4166    2.8740   -0.3361 H   0  0  0  0  0  0  0  0  0  0  0  0
    0.8665   -0.5305   -0.1130 H   0  0  0  0  0  0  0  0  0  0  0  0
    2.3110    2.0967   -0.3355 H   0  0  0  0  0  0  0  0  0  0  0  0
    2.4537   -1.7103   -0.0464 H   0  0  0  0  0  0  0  0  0  0  0  0
    5.1427   -3.8375    0.6235 H   0  0  0  0  0  0  0  0  0  0  0  0
    7.5600   -2.0955   -0.9031 H   0  0  0  0  0  0  0  0  0  0  0  0
    4.7071    1.8707   -0.3462 H   0  0  0  0  0  0  0  0  0  0  0  0
   -1.0484   -1.1572   -0.0340 H   0  0  0  0  0  0  0  0  0  0  0  0
   -2.8641   -4.1637    0.0641 H   0  0  0  0  0  0  0  0  0  0  0  0
   -1.7030   -3.0661   -0.7305 H   0  0  0  0  0  0  0  0  0  0  0  0
   -1.7664   -3.0502    1.0524 H   0  0  0  0  0  0  0  0  0  0  0  0
   -6.9431    0.2240    1.3293 H   0  0  0  0  0  0  0  0  0  0  0  0
   -6.8522   -1.5132    0.9888 H   0  0  0  0  0  0  0  0  0  0  0  0
   -5.6310   -0.7639    2.0330 H   0  0  0  0  0  0  0  0  0  0  0  0
  1  2  1  0
  2  3  1  0
  3  4  2  0
  4  5  1  0
  5  6  1  0
  6  7  2  0
  6  8  1  0
  8  9  2  0
  9 10  1  0
 10 11  2  0
 11 12  1  0
 12 13  1  0
 12 14  2  0
 14 15  1  0
 14 16  1  0
 16 17  1  0
 17 18  2  0
 17 19  1  0
 16 20  2  0
  5 21  2  0
 21 22  1  0
 22 23  1  0
 23 24  1  0
 22 25  2  0
 25 26  1  0
 26 27  1  0
 25  3  1  0
 20 10  1  0
  1 28  1  0
  1 29  1  0
  1 30  1  0
  4 31  1  0
  8 32  1  0
  9 33  1  0
 11 34  1  0
 13 35  1  0
 15 36  1  0
 20 37  1  0
 21 38  1  0
 24 39  1  0
 24 40  1  0
 24 41  1  0
 27 42  1  0
 27 43  1  0
 27 44  1  0
M  CHG  2  17   1  19  -1
M  END
$$$$
