@<TRIPOS>MOLECULE
*****
 44 45 0 0 0
SMALL
GASTEIGER

@<TRIPOS>ATOM
      1 C          -4.6528    3.7095   -0.3722 C.3     1  UNL1        0.0790
      2 O          -4.9770    2.3341   -0.2589 O.3     1  UNL1       -0.4913
      3 C          -3.9313    1.4239   -0.2006 C.ar    1  UNL1        0.1658
      4 C          -2.6159    1.8013   -0.2482 C.ar    1  UNL1       -0.0053
      5 C          -1.5597    0.9072   -0.1912 C.ar    1  UNL1        0.0288
      6 C          -0.2091    1.4237   -0.2498 C.2     1  UNL1        0.1863
      7 O          -0.0389    2.6675   -0.3489 O.2     1  UNL1       -0.2873
      8 C           0.9798    0.5341   -0.1968 C.2     1  UNL1       -0.0138
      9 C           2.1931    1.0323   -0.2515 C.2     1  UNL1       -0.0506
     10 C           3.3921    0.2068   -0.2036 C.ar    1  UNL1       -0.0148
     11 C           3.3673   -1.1686   -0.0984 C.ar    1  UNL1       -0.0089
     12 C           4.5485   -1.9215   -0.0550 C.ar    1  UNL1        0.1657
     13 O           4.4847   -3.3058    0.0512 O.3     1  UNL1       -0.5031
     14 C           5.7691   -1.2921   -0.1174 C.ar    1  UNL1        0.2370
     15 O           6.9755   -2.0000   -0.0777 O.3     1  UNL1       -0.4989
     16 C           5.8375    0.0916   -0.2236 C.ar    1  UNL1        0.3183
     17 N           7.1032    0.7579   -0.2892 N.pl3   1  UNL1        0.0836
     18 O           8.0481    0.1978   -0.8153 O.2     1  UNL1        0.0416
     19 O           7.2139    2.0109    0.2440 O.co2   1  UNL1       -0.5759
     20 C           4.6527    0.7819   -0.2623 C.ar    1  UNL1        0.0268
     21 C          -1.8435   -0.4349   -0.0808 C.ar    1  UNL1       -0.0053
     22 C          -3.1365   -0.8509   -0.0305 C.ar    1  UNL1        0.1658
     23 O          -3.4467   -2.2204    0.0825 O.3     1  UNL1       -0.4913
     24 C          -2.4045   -3.1588    0.1437 C.3     1  UNL1        0.0790
     25 C          -4.1725    0.0604   -0.0891 C.ar    1  UNL1        0.2035
     26 O          -5.4651   -0.4024   -0.0350 O.3     1  UNL1       -0.4885
     27 C          -6.2272   -0.5918    1.1175 C.3     1  UNL1        0.0791
     28 H          -4.1413    3.9442   -1.3311 H       1  UNL1        0.0660
     29 H          -3.9583    3.9712    0.4568 H       1  UNL1        0.0660
     30 H          -5.6014    4.3134   -0.2781 H       1  UNL1        0.0660
     31 H          -2.4166    2.8740   -0.3361 H       1  UNL1        0.0662
     32 H           0.8665   -0.5305   -0.1130 H       1  UNL1        0.0656
     33 H           2.3110    2.0967   -0.3355 H       1  UNL1        0.0625
     34 H           2.4537   -1.7103   -0.0464 H       1  UNL1        0.0661
     35 H           5.1427   -3.8375    0.6235 H       1  UNL1        0.2923
     36 H           7.5600   -2.0955   -0.9031 H       1  UNL1        0.2925
     37 H           4.7071    1.8707   -0.3462 H       1  UNL1        0.0692
     38 H          -1.0484   -1.1572   -0.0340 H       1  UNL1        0.0662
     39 H          -2.8641   -4.1637    0.0641 H       1  UNL1        0.0660
     40 H          -1.7030   -3.0661   -0.7305 H       1  UNL1        0.0660
     41 H          -1.7664   -3.0502    1.0524 H       1  UNL1        0.0660
     42 H          -6.9431    0.2240    1.3293 H       1  UNL1        0.0660
     43 H          -6.8522   -1.5132    0.9888 H       1  UNL1        0.0660
     44 H          -5.6310   -0.7639    2.0330 H       1  UNL1        0.0660
@<TRIPOS>UNITY_ATOM_ATTR
17 1
charge 1
19 1
charge -1
@<TRIPOS>BOND
     1     1     2    1
     2     2     3    1
     3     3     4   ar
     4     4     5   ar
     5     5     6    1
     6     6     7    2
     7     6     8    1
     8     8     9    2
     9     9    10    1
    10    10    11   ar
    11    11    12   ar
    12    12    13    1
    13    12    14   ar
    14    14    15    1
    15    14    16   ar
    16    16    17    1
    17    17    18    2
    18    17    19    1
    19    16    20   ar
    20     5    21   ar
    21    21    22   ar
    22    22    23    1
    23    23    24    1
    24    22    25   ar
    25    25    26    1
    26    26    27    1
    27    25     3   ar
    28    20    10   ar
    29     1    28    1
    30     1    29    1
    31     1    30    1
    32     4    31    1
    33     8    32    1
    34     9    33    1
    35    11    34    1
    36    13    35    1
    37    15    36    1
    38    20    37    1
    39    21    38    1
    40    24    39    1
    41    24    40    1
    42    24    41    1
    43    27    42    1
    44    27    43    1
    45    27    44    1
