
     RDKit          3D

 38 39  0  0  0  0  0  0  0  0999 V2000
   -3.9795    3.2651   -1.5053 O   0  0  0  0  0  0  0  0  0  0  0  0
   -4.8853    2.4563   -0.8226 C   0  0  0  0  0  0  0  0  0  0  0  0
   -4.3154    1.0550   -0.7532 C   0  0  0  0  0  0  0  0  0  0  0  0
   -3.1088    1.1249   -0.0770 O   0  0  0  0  0  0  0  0  0  0  0  0
   -2.5528   -0.1099    0.0138 N   0  0  0  0  0  0  0  0  0  0  0  0
   -1.3099   -0.3361    0.6582 C   0  0  0  0  0  0  0  0  0  0  0  0
   -0.7376    0.6661    1.1476 O   0  0  0  0  0  0  0  0  0  0  0  0
   -0.6680   -1.6404    0.7842 C   0  0  0  0  0  0  0  0  0  0  0  0
   -1.2373   -2.7850    0.2717 C   0  0  0  0  0  0  0  0  0  0  0  0
   -0.6223   -4.0150    0.3958 C   0  0  0  0  0  0  0  0  0  0  0  0
    0.5861   -4.0818    1.0490 C   0  0  0  0  0  0  0  0  0  0  0  0
    1.2203   -5.2666    1.1915 F   0  0  0  0  0  0  0  0  0  0  0  0
    1.1456   -2.9267    1.5579 C   0  0  0  0  0  0  0  0  0  0  0  0
    2.3330   -3.0467    2.1903 F   0  0  0  0  0  0  0  0  0  0  0  0
    0.5427   -1.6681    1.4454 C   0  0  0  0  0  0  0  0  0  0  0  0
    1.1640   -0.5084    1.9892 N   0  0  0  0  0  0  0  0  0  0  0  0
    2.0522    0.1973    1.1115 C   0  0  0  0  0  0  0  0  0  0  0  0
    2.2598   -0.2591   -0.1737 C   0  0  0  0  0  0  0  0  0  0  0  0
    3.1087    0.3999   -1.0388 C   0  0  0  0  0  0  0  0  0  0  0  0
    3.7828    1.5511   -0.6347 C   0  0  0  0  0  0  0  0  0  0  0  0
    3.5818    2.0161    0.6498 C   0  0  0  0  0  0  0  0  0  0  0  0
    2.7251    1.3283    1.4836 C   0  0  0  0  0  0  0  0  0  0  0  0
    2.5542    1.8222    2.7471 F   0  0  0  0  0  0  0  0  0  0  0  0
    4.6732    2.2650   -1.5031 C   0  0  0  0  0  0  0  0  0  0  0  0
    5.4099    2.8534   -2.2464 C   0  0  0  0  0  0  0  0  0  0  0  0
   -3.6504    2.7909   -2.3014 H   0  0  0  0  0  0  0  0  0  0  0  0
   -4.9742    2.8757    0.2074 H   0  0  0  0  0  0  0  0  0  0  0  0
   -5.8934    2.4400   -1.3284 H   0  0  0  0  0  0  0  0  0  0  0  0
   -4.1201    0.7697   -1.8205 H   0  0  0  0  0  0  0  0  0  0  0  0
   -4.9906    0.3475   -0.2588 H   0  0  0  0  0  0  0  0  0  0  0  0
   -3.0514   -0.9249   -0.4025 H   0  0  0  0  0  0  0  0  0  0  0  0
   -2.1783   -2.7616   -0.2420 H   0  0  0  0  0  0  0  0  0  0  0  0
   -1.0803   -4.9119   -0.0123 H   0  0  0  0  0  0  0  0  0  0  0  0
    1.0293   -0.1386    2.9508 H   0  0  0  0  0  0  0  0  0  0  0  0
    1.7666   -1.1459   -0.5468 H   0  0  0  0  0  0  0  0  0  0  0  0
    3.2589    0.0235   -2.0492 H   0  0  0  0  0  0  0  0  0  0  0  0
    4.1118    2.9134    0.9540 H   0  0  0  0  0  0  0  0  0  0  0  0
    6.0496    3.3655   -2.9148 H   0  0  0  0  0  0  0  0  0  0  0  0
  1  2  1  0
  2  3  1  0
  3  4  1  0
  4  5  1  0
  5  6  1  0
  6  7  2  0
  6  8  1  0
  8  9  2  0
  9 10  1  0
 10 11  2  0
 11 12  1  0
 11 13  1  0
 13 14  1  0
 13 15  2  0
 15 16  1  0
 16 17  1  0
 17 18  2  0
 18 19  1  0
 19 20  2  0
 20 21  1  0
 21 22  2  0
 22 23  1  0
 20 24  1  0
 24 25  3  0
 15  8  1  0
 22 17  1  0
  1 26  1  0
  2 27  1  0
  2 28  1  0
  3 29  1  0
  3 30  1  0
  5 31  1  0
  9 32  1  0
 10 33  1  0
 16 34  1  0
 18 35  1  0
 19 36  1  0
 21 37  1  0
 25 38  1  0
M  END
$$$$
