@<TRIPOS>MOLECULE
*****
 55 57 0 0 0
SMALL
GASTEIGER

@<TRIPOS>ATOM
      1 C           2.4355    1.6015    2.5289 C.3     1  UNL1       -0.0605
      2 C           1.4115    0.5492    2.0528 C.3     1  UNL1       -0.0197
      3 C           0.1447    0.8101    2.7623 C.3     1  UNL1       -0.0605
      4 C           1.4281    0.6206    0.5624 C.3     1  UNL1        0.1021
      5 N           2.8230    0.2912    0.1848 N.am    1  UNL1       -0.2998
      6 C           3.4657   -0.9189    0.4145 C.2     1  UNL1        0.2447
      7 O           2.8102   -1.8545    1.0069 O.2     1  UNL1       -0.2702
      8 C           4.8350   -1.2287    0.0398 C.ar    1  UNL1        0.0367
      9 C           5.6044   -0.2917   -0.5912 C.ar    1  UNL1       -0.0496
     10 C           6.9177   -0.5403   -0.9696 C.ar    1  UNL1       -0.0610
     11 C           7.4712   -1.7687   -0.7043 C.ar    1  UNL1       -0.0617
     12 C           6.7218   -2.7201   -0.0749 C.ar    1  UNL1       -0.0610
     13 C           5.4010   -2.4541    0.2996 C.ar    1  UNL1       -0.0496
     14 C           0.4885   -0.2662   -0.1399 C.2     1  UNL1        0.2362
     15 O           0.9564   -1.3404   -0.6851 O.2     1  UNL1       -0.2736
     16 N          -0.8940   -0.0972   -0.3074 N.am    1  UNL1       -0.2999
     17 C          -1.6890   -1.1100   -0.9376 C.3     1  UNL1        0.0153
     18 C          -2.6355   -0.6651   -1.9770 C.3     1  UNL1       -0.0303
     19 C          -3.2221    0.7022   -1.7681 C.3     1  UNL1       -0.0130
     20 C          -4.6220    0.6723   -1.2768 C.ar    1  UNL1       -0.0441
     21 C          -4.8740    0.0925   -0.0563 C.ar    1  UNL1       -0.0569
     22 C          -6.1621    0.0498    0.4333 C.ar    1  UNL1       -0.0431
     23 C          -7.2324    0.5738   -0.2615 C.ar    1  UNL1        0.0410
     24 CL         -8.8642    0.4913    0.4152 Cl      1  UNL1       -0.0835
     25 C          -6.9792    1.1545   -1.4844 C.ar    1  UNL1       -0.0431
     26 C          -5.7024    1.2009   -1.9776 C.ar    1  UNL1       -0.0569
     27 C          -2.3453    1.6517   -1.0529 C.3     1  UNL1       -0.0303
     28 C          -1.5434    1.1121    0.0985 C.3     1  UNL1        0.0153
     29 H           3.4209    1.1367    2.7285 H       1  UNL1        0.0233
     30 H           2.0808    2.1024    3.4442 H       1  UNL1        0.0233
     31 H           2.5909    2.3759    1.7570 H       1  UNL1        0.0233
     32 H           1.8321   -0.4308    2.4324 H       1  UNL1        0.0318
     33 H          -0.2676    1.8048    2.6051 H       1  UNL1        0.0233
     34 H           0.3718    0.6399    3.8688 H       1  UNL1        0.0233
     35 H          -0.5748   -0.0297    2.5328 H       1  UNL1        0.0233
     36 H           1.2259    1.6650    0.2771 H       1  UNL1        0.0597
     37 H           3.3751    1.0570   -0.3070 H       1  UNL1        0.1498
     38 H           5.2489    0.6974   -0.8371 H       1  UNL1        0.0625
     39 H           7.5370    0.1921   -1.4695 H       1  UNL1        0.0618
     40 H           8.5052   -2.0070   -0.9861 H       1  UNL1        0.0618
     41 H           7.1710   -3.6989    0.1334 H       1  UNL1        0.0618
     42 H           4.8129   -3.2022    0.7940 H       1  UNL1        0.0625
     43 H          -2.2377   -1.7386   -0.1690 H       1  UNL1        0.0465
     44 H          -0.9876   -1.8710   -1.4005 H       1  UNL1        0.0465
     45 H          -3.5090   -1.3818   -1.9936 H       1  UNL1        0.0286
     46 H          -2.1667   -0.7915   -2.9846 H       1  UNL1        0.0286
     47 H          -3.3131    1.1368   -2.8173 H       1  UNL1        0.0350
     48 H          -4.0523   -0.3252    0.5023 H       1  UNL1        0.0621
     49 H          -6.3879   -0.4058    1.4015 H       1  UNL1        0.0632
     50 H          -7.7822    1.5768   -2.0632 H       1  UNL1        0.0632
     51 H          -5.5023    1.6602   -2.9447 H       1  UNL1        0.0621
     52 H          -2.9927    2.4702   -0.6242 H       1  UNL1        0.0286
     53 H          -1.6229    2.1621   -1.7482 H       1  UNL1        0.0286
     54 H          -2.1272    0.9791    1.0125 H       1  UNL1        0.0465
     55 H          -0.7972    1.9277    0.3212 H       1  UNL1        0.0465
@<TRIPOS>BOND
     1     1     2    1
     2     2     3    1
     3     2     4    1
     4     4     5    1
     5     5     6   am
     6     6     7    2
     7     6     8    1
     8     8     9   ar
     9     9    10   ar
    10    10    11   ar
    11    11    12   ar
    12    12    13   ar
    13     4    14    1
    14    14    15    2
    15    14    16   am
    16    16    17    1
    17    17    18    1
    18    18    19    1
    19    19    20    1
    20    20    21   ar
    21    21    22   ar
    22    22    23   ar
    23    23    24    1
    24    23    25   ar
    25    25    26   ar
    26    19    27    1
    27    27    28    1
    28    13     8   ar
    29    28    16    1
    30    26    20   ar
    31     1    29    1
    32     1    30    1
    33     1    31    1
    34     2    32    1
    35     3    33    1
    36     3    34    1
    37     3    35    1
    38     4    36    1
    39     5    37    1
    40     9    38    1
    41    10    39    1
    42    11    40    1
    43    12    41    1
    44    13    42    1
    45    17    43    1
    46    17    44    1
    47    18    45    1
    48    18    46    1
    49    19    47    1
    50    21    48    1
    51    22    49    1
    52    25    50    1
    53    26    51    1
    54    27    52    1
    55    27    53    1
    56    28    54    1
    57    28    55    1
