@<TRIPOS>MOLECULE
*****
 38 40 0 0 0
SMALL
GASTEIGER

@<TRIPOS>ATOM
      1 C           4.8292   -1.4185   -0.5697 C.3     1  UNL1       -0.0383
      2 C           3.3699   -1.1620   -0.4481 C.ar    1  UNL1       -0.0317
      3 C           2.4871   -2.2043   -0.7147 C.ar    1  UNL1        0.0314
      4 N           1.1712   -1.9444   -0.5967 N.ar    1  UNL1       -0.2481
      5 C           0.6541   -0.7544   -0.2414 C.ar    1  UNL1        0.1427
      6 C           1.4853    0.3090    0.0327 C.ar    1  UNL1        0.0103
      7 C           2.8370    0.0616   -0.0827 C.ar    1  UNL1       -0.0477
      8 C           1.0863    1.5743    0.4084 C.ar    1  UNL1       -0.0374
      9 C           1.9771    2.7024    0.6879 C.3     1  UNL1       -0.0388
     10 C          -0.2955    1.7761    0.5165 C.ar    1  UNL1       -0.0334
     11 C          -0.9327    3.0770    0.9249 C.3     1  UNL1       -0.0387
     12 C          -1.1680    0.7166    0.2446 C.ar    1  UNL1        0.0520
     13 C          -0.7173   -0.5527   -0.1346 C.ar    1  UNL1        0.2411
     14 N          -1.5485   -1.5781   -0.4002 N.ar    1  UNL1       -0.1978
     15 C          -1.0875   -2.8785   -0.7884 C.3     1  UNL1        0.1410
     16 C          -2.8765   -1.2915   -0.2729 C.ar    1  UNL1        0.1745
     17 C          -3.4421   -0.0891    0.0908 C.ar    1  UNL1        0.0138
     18 C          -4.9080    0.0499    0.1803 C.3     1  UNL1       -0.0341
     19 C          -2.5458    0.9279    0.3518 C.ar    1  UNL1       -0.0395
     20 H           4.9960   -2.3242   -1.1537 H       1  UNL1        0.0278
     21 H           5.2751   -1.5258    0.4476 H       1  UNL1        0.0278
     22 H           5.3223   -0.5205   -1.0097 H       1  UNL1        0.0278
     23 H           2.8205   -3.1902   -1.0060 H       1  UNL1        0.0832
     24 H           3.5983    0.7993    0.1052 H       1  UNL1        0.0627
     25 H           1.4793    3.6136    0.2275 H       1  UNL1        0.0278
     26 H           2.0677    2.9507    1.7594 H       1  UNL1        0.0278
     27 H           2.9390    2.6472    0.1858 H       1  UNL1        0.0278
     28 H          -1.4212    3.5693    0.0894 H       1  UNL1        0.0278
     29 H          -0.1664    3.7336    1.3515 H       1  UNL1        0.0278
     30 H          -1.6232    2.8261    1.7800 H       1  UNL1        0.0278
     31 H          -0.5498   -3.4451   -0.0023 H       1  UNL1        0.0993
     32 H          -2.0183   -3.5058   -0.9448 H       1  UNL1        0.0993
     33 H          -0.6094   -2.9266   -1.7936 H       1  UNL1        0.0993
     34 H          -3.5596   -2.1038   -0.4824 H       1  UNL1        0.1379
     35 H          -5.3495    0.2223   -0.8322 H       1  UNL1        0.0279
     36 H          -5.4098   -0.8721    0.5497 H       1  UNL1        0.0279
     37 H          -5.1866    0.8528    0.9042 H       1  UNL1        0.0279
     38 H          -2.9798    1.8777    0.6360 H       1  UNL1        0.0630
@<TRIPOS>UNITY_ATOM_ATTR
14 1
charge 1
@<TRIPOS>BOND
     1     1     2    1
     2     2     3   ar
     3     3     4   ar
     4     4     5   ar
     5     5     6   ar
     6     6     7   ar
     7     6     8   ar
     8     8     9    1
     9     8    10   ar
    10    10    11    1
    11    10    12   ar
    12    12    13   ar
    13    13    14   ar
    14    14    15    1
    15    14    16   ar
    16    16    17   ar
    17    17    18    1
    18    17    19   ar
    19     7     2   ar
    20    19    12   ar
    21    13     5   ar
    22     1    20    1
    23     1    21    1
    24     1    22    1
    25     3    23    1
    26     7    24    1
    27     9    25    1
    28     9    26    1
    29     9    27    1
    30    11    28    1
    31    11    29    1
    32    11    30    1
    33    15    31    1
    34    15    32    1
    35    15    33    1
    36    16    34    1
    37    18    35    1
    38    18    36    1
    39    18    37    1
    40    19    38    1
