
     RDKit          3D

 38 40  0  0  0  0  0  0  0  0999 V2000
    4.8292   -1.4185   -0.5697 C   0  0  0  0  0  0  0  0  0  0  0  0
    3.3699   -1.1620   -0.4481 C   0  0  0  0  0  0  0  0  0  0  0  0
    2.4871   -2.2043   -0.7147 C   0  0  0  0  0  0  0  0  0  0  0  0
    1.1712   -1.9444   -0.5967 N   0  0  0  0  0  0  0  0  0  0  0  0
    0.6541   -0.7544   -0.2414 C   0  0  0  0  0  0  0  0  0  0  0  0
    1.4853    0.3090    0.0327 C   0  0  0  0  0  0  0  0  0  0  0  0
    2.8370    0.0616   -0.0827 C   0  0  0  0  0  0  0  0  0  0  0  0
    1.0863    1.5743    0.4084 C   0  0  0  0  0  0  0  0  0  0  0  0
    1.9771    2.7024    0.6879 C   0  0  0  0  0  0  0  0  0  0  0  0
   -0.2955    1.7761    0.5165 C   0  0  0  0  0  0  0  0  0  0  0  0
   -0.9327    3.0770    0.9249 C   0  0  0  0  0  0  0  0  0  0  0  0
   -1.1680    0.7166    0.2446 C   0  0  0  0  0  0  0  0  0  0  0  0
   -0.7173   -0.5527   -0.1346 C   0  0  0  0  0  0  0  0  0  0  0  0
   -1.5485   -1.5781   -0.4002 N   0  0  0  0  0  4  0  0  0  0  0  0
   -1.0875   -2.8785   -0.7884 C   0  0  0  0  0  0  0  0  0  0  0  0
   -2.8765   -1.2915   -0.2729 C   0  0  0  0  0  0  0  0  0  0  0  0
   -3.4421   -0.0891    0.0908 C   0  0  0  0  0  0  0  0  0  0  0  0
   -4.9080    0.0499    0.1803 C   0  0  0  0  0  0  0  0  0  0  0  0
   -2.5458    0.9279    0.3518 C   0  0  0  0  0  0  0  0  0  0  0  0
    4.9960   -2.3242   -1.1537 H   0  0  0  0  0  0  0  0  0  0  0  0
    5.2751   -1.5258    0.4476 H   0  0  0  0  0  0  0  0  0  0  0  0
    5.3223   -0.5205   -1.0097 H   0  0  0  0  0  0  0  0  0  0  0  0
    2.8205   -3.1902   -1.0060 H   0  0  0  0  0  0  0  0  0  0  0  0
    3.5983    0.7993    0.1052 H   0  0  0  0  0  0  0  0  0  0  0  0
    1.4793    3.6136    0.2275 H   0  0  0  0  0  0  0  0  0  0  0  0
    2.0677    2.9507    1.7594 H   0  0  0  0  0  0  0  0  0  0  0  0
    2.9390    2.6472    0.1858 H   0  0  0  0  0  0  0  0  0  0  0  0
   -1.4212    3.5693    0.0894 H   0  0  0  0  0  0  0  0  0  0  0  0
   -0.1664    3.7336    1.3515 H   0  0  0  0  0  0  0  0  0  0  0  0
   -1.6232    2.8261    1.7800 H   0  0  0  0  0  0  0  0  0  0  0  0
   -0.5498   -3.4451   -0.0023 H   0  0  0  0  0  0  0  0  0  0  0  0
   -2.0183   -3.5058   -0.9448 H   0  0  0  0  0  0  0  0  0  0  0  0
   -0.6094   -2.9266   -1.7936 H   0  0  0  0  0  0  0  0  0  0  0  0
   -3.5596   -2.1038   -0.4824 H   0  0  0  0  0  0  0  0  0  0  0  0
   -5.3495    0.2223   -0.8322 H   0  0  0  0  0  0  0  0  0  0  0  0
   -5.4098   -0.8721    0.5497 H   0  0  0  0  0  0  0  0  0  0  0  0
   -5.1866    0.8528    0.9042 H   0  0  0  0  0  0  0  0  0  0  0  0
   -2.9798    1.8777    0.6360 H   0  0  0  0  0  0  0  0  0  0  0  0
  1  2  1  0
  2  3  2  0
  3  4  1  0
  4  5  2  0
  5  6  1  0
  6  7  2  0
  6  8  1  0
  8  9  1  0
  8 10  2  0
 10 11  1  0
 10 12  1  0
 12 13  2  0
 13 14  1  0
 14 15  1  0
 14 16  2  0
 16 17  1  0
 17 18  1  0
 17 19  2  0
  7  2  1  0
 19 12  1  0
 13  5  1  0
  1 20  1  0
  1 21  1  0
  1 22  1  0
  3 23  1  0
  7 24  1  0
  9 25  1  0
  9 26  1  0
  9 27  1  0
 11 28  1  0
 11 29  1  0
 11 30  1  0
 15 31  1  0
 15 32  1  0
 15 33  1  0
 16 34  1  0
 18 35  1  0
 18 36  1  0
 18 37  1  0
 19 38  1  0
M  CHG  1  14   1
M  END
$$$$
