@<TRIPOS>MOLECULE
*****
 54 57 0 0 0
SMALL
GASTEIGER

@<TRIPOS>ATOM
      1 C          -2.8981   -1.5016   -1.3046 C.3     1  UNL1       -0.0555
      2 C          -2.4492   -0.6209   -0.1690 C.3     1  UNL1       -0.0049
      3 C          -3.0463   -1.2651    1.0983 C.3     1  UNL1       -0.0366
      4 C          -4.5225   -1.5022    0.9700 C.3     1  UNL1        0.0107
      5 C          -5.1883   -0.4751    0.1321 C.2     1  UNL1        0.1561
      6 O          -6.3342   -0.6586   -0.2930 O.2     1  UNL1       -0.2927
      7 C          -4.4469    0.7391   -0.1634 C.2     1  UNL1       -0.0194
      8 C          -3.1392    0.6762   -0.3078 C.2     1  UNL1       -0.0600
      9 C          -2.4382    1.9569   -0.5988 C.3     1  UNL1       -0.0305
     10 C          -1.2410    1.9621    0.3632 C.3     1  UNL1       -0.0459
     11 C          -0.3700    0.8415   -0.1135 C.3     1  UNL1       -0.0311
     12 C          -0.9899   -0.5366    0.0398 C.3     1  UNL1       -0.0027
     13 C          -0.1448   -1.4587   -0.8215 C.3     1  UNL1        0.0600
     14 O          -0.2623   -1.1904   -2.1604 O.3     1  UNL1       -0.3914
     15 C           1.2965   -1.4295   -0.3933 C.3     1  UNL1       -0.0135
     16 C           1.8711   -0.0741   -0.2884 C.3     1  UNL1        0.0409
     17 C           2.1863    0.5061   -1.5949 C.2     1  UNL1        0.1274
     18 O           2.0258   -0.1477   -2.6011 O.2     1  UNL1       -0.3004
     19 C           3.0910   -0.0217    0.6350 C.3     1  UNL1        0.0322
     20 C           4.3341   -0.3223   -0.0993 C.2     1  UNL1        0.1624
     21 O           4.2825   -0.5659   -1.2809 O.2     1  UNL1       -0.2946
     22 C           5.6418   -0.3308    0.5849 C.3     1  UNL1        0.1025
     23 O           6.6783   -0.6378   -0.2942 O.3     1  UNL1       -0.3875
     24 C           3.1340    1.4652    1.0170 C.3     1  UNL1       -0.0422
     25 C           1.7375    2.0173    0.6909 C.3     1  UNL1       -0.0484
     26 C           0.9460    0.7746    0.5674 C.3     1  UNL1       -0.0250
     27 H          -3.8426   -2.0797   -1.0698 H       1  UNL1        0.0238
     28 H          -3.1493   -0.9370   -2.2280 H       1  UNL1        0.0238
     29 H          -2.1956   -2.2915   -1.6037 H       1  UNL1        0.0238
     30 H          -2.7711   -0.6866    1.9928 H       1  UNL1        0.0278
     31 H          -2.5553   -2.2593    1.1862 H       1  UNL1        0.0278
     32 H          -4.8003   -2.5206    0.6685 H       1  UNL1        0.0345
     33 H          -4.9407   -1.3894    2.0151 H       1  UNL1        0.0345
     34 H          -4.9819    1.7088   -0.2672 H       1  UNL1        0.0652
     35 H          -2.0363    1.9231   -1.6160 H       1  UNL1        0.0310
     36 H          -3.0438    2.8337   -0.3948 H       1  UNL1        0.0310
     37 H          -1.5758    1.8468    1.4089 H       1  UNL1        0.0271
     38 H          -0.6607    2.8890    0.2920 H       1  UNL1        0.0271
     39 H          -0.1598    1.0602   -1.2002 H       1  UNL1        0.0308
     40 H          -0.7080   -0.8523    1.0941 H       1  UNL1        0.0337
     41 H          -0.4708   -2.5223   -0.5779 H       1  UNL1        0.0596
     42 H          -0.8133   -0.4367   -2.4145 H       1  UNL1        0.2098
     43 H           1.3477   -1.9702    0.5940 H       1  UNL1        0.0300
     44 H           1.8534   -2.0977   -1.0953 H       1  UNL1        0.0300
     45 H           2.5677    1.5132   -1.7505 H       1  UNL1        0.1032
     46 H           2.8925   -0.6530    1.4980 H       1  UNL1        0.0388
     47 H           5.6332   -1.0496    1.4559 H       1  UNL1        0.0636
     48 H           5.8962    0.6606    1.0362 H       1  UNL1        0.0636
     49 H           7.4241   -0.0126   -0.2497 H       1  UNL1        0.2100
     50 H           3.9184    2.0035    0.4760 H       1  UNL1        0.0272
     51 H           3.2828    1.5500    2.1180 H       1  UNL1        0.0272
     52 H           1.8408    2.6154   -0.2153 H       1  UNL1        0.0268
     53 H           1.3915    2.6656    1.5518 H       1  UNL1        0.0268
     54 H           0.9026    0.2886    1.5705 H       1  UNL1        0.0313
@<TRIPOS>BOND
     1     2     1    1
     2     2     3    1
     3     3     4    1
     4     4     5    1
     5     5     6    2
     6     5     7    1
     7     7     8    2
     8     8     9    1
     9     9    10    1
    10    10    11    1
    11    11    12    1
    12    12    13    1
    13    13    14    1
    14    13    15    1
    15    15    16    1
    16    16    17    1
    17    17    18    2
    18    16    19    1
    19    19    20    1
    20    20    21    2
    21    20    22    1
    22    22    23    1
    23    19    24    1
    24    24    25    1
    25    25    26    1
    26     8     2    1
    27    26    11    1
    28    12     2    1
    29    26    16    1
    30     1    27    1
    31     1    28    1
    32     1    29    1
    33     3    30    1
    34     3    31    1
    35     4    32    1
    36     4    33    1
    37     7    34    1
    38     9    35    1
    39     9    36    1
    40    10    37    1
    41    10    38    1
    42    11    39    1
    43    12    40    1
    44    13    41    1
    45    14    42    1
    46    15    43    1
    47    15    44    1
    48    17    45    1
    49    19    46    1
    50    22    47    1
    51    22    48    1
    52    23    49    1
    53    24    50    1
    54    24    51    1
    55    25    52    1
    56    25    53    1
    57    26    54    1
