
     RDKit          3D

 53 54  0  0  0  0  0  0  0  0999 V2000
   -4.2646   -0.2230    2.2653 O   0  0  0  0  0  0  0  0  0  0  0  0
   -3.1489   -0.4257    1.4917 C   0  0  2  0  0  0  0  0  0  0  0  0
   -1.8870    0.1994    2.0333 C   0  0  0  0  0  0  0  0  0  0  0  0
   -1.2880    1.0698    1.1388 O   0  0  0  0  0  0  0  0  0  0  0  0
   -0.9345    0.5005   -0.0741 C   0  0  1  0  0  0  0  0  0  0  0  0
    0.2486   -0.1832   -0.0459 O   0  0  0  0  0  0  0  0  0  0  0  0
    1.2550    0.3562   -0.8568 C   0  0  2  0  0  0  0  0  0  0  0  0
    1.6534   -0.6958   -1.8345 C   0  0  0  0  0  0  0  0  0  0  0  0
    2.9794   -0.9087   -2.0286 O   0  0  0  0  0  0  0  0  0  0  0  0
    3.8303   -0.7774   -0.9783 C   0  0  1  0  0  0  0  0  0  0  0  0
    4.6292    0.3576   -1.2567 O   0  0  0  0  0  0  0  0  0  0  0  0
    3.1701   -0.4931    0.3466 C   0  0  2  0  0  0  0  0  0  0  0  0
    2.3061   -1.4936    0.7556 O   0  0  0  0  0  0  0  0  0  0  0  0
    2.7305   -2.1270    2.2499 S   0  0  0  0  0  0  0  0  0  0  0  0
    2.8976   -0.8727    3.3488 O   0  0  0  0  0  0  0  0  0  0  0  0
    1.6078   -3.0098    2.7161 O   0  0  0  0  0  0  0  0  0  0  0  0
    3.9597   -2.9954    2.1732 O   0  0  0  0  0  0  0  0  0  0  0  0
    2.3458    0.7582    0.1080 C   0  0  1  0  0  0  0  0  0  0  0  0
    3.1920    1.7332   -0.3407 O   0  0  0  0  0  0  0  0  0  0  0  0
    3.3737    3.0448    0.6703 S   0  0  0  0  0  0  0  0  0  0  0  0
    4.8560    2.8054    1.4654 O   0  0  0  0  0  0  0  0  0  0  0  0
    2.3448    3.1313    1.7468 O   0  0  0  0  0  0  0  0  0  0  0  0
    3.5451    4.3478   -0.0614 O   0  0  0  0  0  0  0  0  0  0  0  0
   -2.0608   -0.3324   -0.6492 C   0  0  2  0  0  0  0  0  0  0  0  0
   -2.1417   -0.3336   -2.0097 O   0  0  0  0  0  0  0  0  0  0  0  0
   -1.9587   -1.7802   -2.7806 S   0  0  0  0  0  0  0  0  0  0  0  0
   -1.3289   -2.9951   -1.7953 O   0  0  0  0  0  0  0  0  0  0  0  0
   -3.2180   -2.2776   -3.4257 O   0  0  0  0  0  0  0  0  0  0  0  0
   -0.9772   -1.5939   -3.9061 O   0  0  0  0  0  0  0  0  0  0  0  0
   -3.3120    0.1045    0.0630 C   0  0  1  0  0  0  0  0  0  0  0  0
   -4.4779   -0.4204   -0.4303 O   0  0  0  0  0  0  0  0  0  0  0  0
   -5.6126    0.7749   -0.7136 S   0  0  0  0  0  0  0  0  0  0  0  0
   -4.8927    2.0498   -1.5621 O   0  0  0  0  0  0  0  0  0  0  0  0
   -6.2740    1.2493    0.5274 O   0  0  0  0  0  0  0  0  0  0  0  0
   -6.6897    0.2244   -1.6250 O   0  0  0  0  0  0  0  0  0  0  0  0
   -4.3504    0.7296    2.4968 H   0  0  0  0  0  0  0  0  0  0  0  0
   -3.0223   -1.5313    1.3552 H   0  0  0  0  0  0  0  0  0  0  0  0
   -2.1782    0.8193    2.9066 H   0  0  0  0  0  0  0  0  0  0  0  0
   -1.2429   -0.6006    2.4093 H   0  0  0  0  0  0  0  0  0  0  0  0
   -0.8055    1.3748   -0.7777 H   0  0  0  0  0  0  0  0  0  0  0  0
    0.7773    1.2539   -1.3313 H   0  0  0  0  0  0  0  0  0  0  0  0
    1.2361   -0.3654   -2.8316 H   0  0  0  0  0  0  0  0  0  0  0  0
    1.1451   -1.6887   -1.6631 H   0  0  0  0  0  0  0  0  0  0  0  0
    4.5793   -1.5999   -0.8691 H   0  0  0  0  0  0  0  0  0  0  0  0
    5.5434    0.2753   -0.9445 H   0  0  0  0  0  0  0  0  0  0  0  0
    3.9789   -0.3015    1.0862 H   0  0  0  0  0  0  0  0  0  0  0  0
    3.5190   -1.0978    4.0893 H   0  0  0  0  0  0  0  0  0  0  0  0
    1.9197    1.0334    1.1035 H   0  0  0  0  0  0  0  0  0  0  0  0
    5.1940    3.6465    1.8639 H   0  0  0  0  0  0  0  0  0  0  0  0
   -1.8759   -1.3801   -0.3316 H   0  0  0  0  0  0  0  0  0  0  0  0
   -1.9853   -3.3131   -1.1294 H   0  0  0  0  0  0  0  0  0  0  0  0
   -3.3400    1.2157    0.1807 H   0  0  0  0  0  0  0  0  0  0  0  0
   -5.5501    2.7612   -1.7134 H   0  0  0  0  0  0  0  0  0  0  0  0
  1  2  1  0
  2  3  1  0
  3  4  1  0
  4  5  1  0
  5  6  1  0
  6  7  1  0
  7  8  1  0
  8  9  1  0
  9 10  1  0
 10 11  1  0
 10 12  1  0
 12 13  1  0
 13 14  1  0
 14 15  1  0
 14 16  2  0
 14 17  2  0
 12 18  1  0
 18 19  1  0
 19 20  1  0
 20 21  1  0
 20 22  2  0
 20 23  2  0
  5 24  1  0
 24 25  1  0
 25 26  1  0
 26 27  1  0
 26 28  2  0
 26 29  2  0
 24 30  1  0
 30 31  1  0
 31 32  1  0
 32 33  1  0
 32 34  2  0
 32 35  2  0
 30  2  1  0
 18  7  1  0
  1 36  1  0
  2 37  1  6
  3 38  1  0
  3 39  1  0
  5 40  1  6
  7 41  1  6
  8 42  1  0
  8 43  1  0
 10 44  1  1
 11 45  1  0
 12 46  1  1
 15 47  1  0
 18 48  1  1
 21 49  1  0
 24 50  1  1
 27 51  1  0
 30 52  1  1
 33 53  1  0
M  END
$$$$
