@<TRIPOS>MOLECULE
*****
 38 41 0 0 0
SMALL
GASTEIGER

@<TRIPOS>ATOM
      1 O          -0.3752   -0.4251   -1.2281 O.2     1  UNL1       -0.2735
      2 C           0.1211    0.3187   -0.3496 C.2     1  UNL1        0.2375
      3 C          -0.7320    1.2843    0.3812 C.3     1  UNL1        0.1032
      4 N          -2.0880    1.2795   -0.0965 N.ar    1  UNL1       -0.2992
      5 C          -2.4111    2.1845   -1.0816 C.ar    1  UNL1        0.2522
      6 O          -1.5193    2.9626   -1.5068 O.2     1  UNL1       -0.2677
      7 C          -3.6911    2.2241   -1.5817 C.ar    1  UNL1        0.0036
      8 C          -4.6675    1.3855   -1.1295 C.ar    1  UNL1       -0.0474
      9 C          -4.3387    0.4800   -0.1428 C.ar    1  UNL1        0.0016
     10 C          -5.2890   -0.4066    0.3549 C.ar    1  UNL1       -0.0145
     11 C          -4.9879   -1.3181    1.3267 C.ar    1  UNL1        0.1591
     12 F          -5.9634   -2.1488    1.7624 F       1  UNL1       -0.2025
     13 C          -3.7074   -1.3336    1.8024 C.ar    1  UNL1        0.1604
     14 F          -3.4075   -2.2480    2.7762 F       1  UNL1       -0.2024
     15 C          -2.7254   -0.4715    1.3399 C.ar    1  UNL1        0.0006
     16 C          -3.0280    0.4465    0.3623 C.ar    1  UNL1        0.0554
     17 N           1.5207    0.1900   -0.0955 N.am    1  UNL1       -0.2779
     18 C           2.3130   -0.7494   -0.8136 C.ar    1  UNL1        0.0836
     19 S           1.6418   -1.8670   -1.9876 S.2     1  UNL1       -0.0801
     20 C           3.2363   -2.6559   -2.4220 C.ar    1  UNL1       -0.0078
     21 C           4.1074   -1.9709   -1.6149 C.ar    1  UNL1        0.0374
     22 BR          5.9923   -2.5232   -1.7734 Br      1  UNL1       -0.0490
     23 C           3.6739   -1.0106   -0.7988 C.ar    1  UNL1        0.0614
     24 C           4.5281   -0.1953    0.1134 C.ar    1  UNL1        0.1648
     25 N           4.1298    0.7740    0.9335 N.ar    1  UNL1       -0.1295
     26 N           5.1288    1.2706    1.5731 N.ar    1  UNL1       -0.1377
     27 C           6.2432    0.6522    1.2072 C.ar    1  UNL1        0.1175
     28 N           5.8500   -0.2812    0.2762 N.ar    1  UNL1       -0.3276
     29 H          -0.2740    2.3162    0.2814 H       1  UNL1        0.0589
     30 H          -0.6846    1.0446    1.4492 H       1  UNL1        0.0589
     31 H          -3.9460    2.9482   -2.3688 H       1  UNL1        0.0672
     32 H          -5.6799    1.4045   -1.5130 H       1  UNL1        0.0626
     33 H          -6.2978   -0.3477   -0.0649 H       1  UNL1        0.0654
     34 H          -1.7333   -0.5273    1.7385 H       1  UNL1        0.0668
     35 H           1.9155    0.7869    0.6078 H       1  UNL1        0.1554
     36 H           3.3433   -3.4474   -3.1411 H       1  UNL1        0.0705
     37 H           7.2269    0.8635    1.5807 H       1  UNL1        0.1046
     38 H           6.5750   -0.8892   -0.1516 H       1  UNL1        0.1683
@<TRIPOS>BOND
     1     1     2    2
     2     2     3    1
     3     3     4    1
     4     4     5   ar
     5     5     6    2
     6     5     7   ar
     7     7     8   ar
     8     8     9   ar
     9     9    10   ar
    10    10    11   ar
    11    11    12    1
    12    11    13   ar
    13    13    14    1
    14    13    15   ar
    15    15    16   ar
    16     2    17   am
    17    17    18    1
    18    18    19   ar
    19    19    20   ar
    20    20    21   ar
    21    21    22    1
    22    21    23   ar
    23    23    24    1
    24    24    25   ar
    25    25    26   ar
    26    26    27   ar
    27    27    28   ar
    28    16     4   ar
    29    23    18   ar
    30    28    24   ar
    31    16     9   ar
    32     3    29    1
    33     3    30    1
    34     7    31    1
    35     8    32    1
    36    10    33    1
    37    15    34    1
    38    17    35    1
    39    20    36    1
    40    27    37    1
    41    28    38    1
