@<TRIPOS>MOLECULE
*****
 60 62 0 0 0
SMALL
GASTEIGER

@<TRIPOS>ATOM
      1 C           7.3186    0.3301   -2.3915 C.3     1  UNL1       -0.0453
      2 C           7.6846    1.3308   -1.3325 C.3     1  UNL1        0.0697
      3 S           7.6087    0.6074    0.2623 S.O2    1  UNL1        0.0136
      4 O           8.0131    1.6138    1.3066 O.2     1  UNL1       -0.1679
      5 O           8.5576   -0.5746    0.3875 O.2     1  UNL1       -0.1679
      6 C           6.0062    0.0495    0.6221 C.ar    1  UNL1        0.1769
      7 C           4.9494    0.2316   -0.2417 C.ar    1  UNL1       -0.0090
      8 C           3.6670   -0.2232    0.0876 C.ar    1  UNL1        0.0047
      9 C           2.4432   -0.1822   -0.5670 C.ar    1  UNL1       -0.0332
     10 C           1.4867   -0.7829    0.2124 C.ar    1  UNL1        0.0200
     11 C           0.0286   -1.0211   -0.0658 C.3     1  UNL1        0.0250
     12 C          -0.8426    0.0614    0.4688 C.3     1  UNL1        0.1664
     13 O          -0.6218    0.0448    1.8681 O.3     1  UNL1       -0.3793
     14 C          -2.2441    0.1024    0.0942 C.3     1  UNL1       -0.0059
     15 C          -3.2538   -0.9063    0.3807 C.3     1  UNL1       -0.0062
     16 C          -3.5264   -1.2936    1.8123 C.3     1  UNL1       -0.0557
     17 C          -2.8348   -2.2398   -0.2625 C.3     1  UNL1       -0.0557
     18 C          -4.5473   -0.5023   -0.2924 C.ar    1  UNL1       -0.0294
     19 C          -5.0890   -1.2695   -1.3050 C.ar    1  UNL1       -0.0546
     20 C          -6.2530   -0.8942   -1.9945 C.ar    1  UNL1       -0.0261
     21 C          -6.8687    0.2725   -1.6497 C.ar    1  UNL1        0.1241
     22 F          -8.0130    0.7058   -2.2814 F       1  UNL1       -0.2055
     23 C          -6.3587    1.0442   -0.6610 C.ar    1  UNL1       -0.0141
     24 C          -5.1797    0.6592    0.0353 C.ar    1  UNL1        0.0429
     25 C          -4.7964    1.5480    1.0686 C.2     1  UNL1        0.2419
     26 N          -5.3494    2.8984    1.0604 N.am    1  UNL1       -0.3253
     27 O          -4.0384    1.3532    2.0074 O.2     1  UNL1       -0.2704
     28 C          -0.1768    1.4048    0.0493 C.3     1  UNL1        0.4186
     29 F          -0.1126    1.3941   -1.3181 F       1  UNL1       -0.1676
     30 F           0.9971    1.6281    0.6530 F       1  UNL1       -0.1676
     31 F          -1.0297    2.4482    0.3865 F       1  UNL1       -0.1676
     32 N           2.1034   -1.1914    1.3331 N.ar    1  UNL1       -0.3566
     33 C           3.4164   -0.8659    1.2814 C.ar    1  UNL1        0.0651
     34 C           4.5008   -1.0280    2.1181 C.ar    1  UNL1        0.0536
     35 N           5.7269   -0.5887    1.7937 N.ar    1  UNL1       -0.2348
     36 H           6.5459    0.7434   -3.0502 H       1  UNL1        0.0245
     37 H           8.2372    0.0725   -3.0040 H       1  UNL1        0.0245
     38 H           6.9219   -0.5793   -1.8956 H       1  UNL1        0.0245
     39 H           6.9393    2.1629   -1.3501 H       1  UNL1        0.0502
     40 H           8.6988    1.7288   -1.5506 H       1  UNL1        0.0502
     41 H           5.0717    0.7313   -1.1890 H       1  UNL1        0.0659
     42 H           2.2925    0.2538   -1.5331 H       1  UNL1        0.0641
     43 H          -0.0349   -0.9546   -1.1914 H       1  UNL1        0.0358
     44 H          -0.2296   -2.0481    0.2060 H       1  UNL1        0.0358
     45 H          -0.7012    0.9514    2.2528 H       1  UNL1        0.2106
     46 H          -2.1729    0.0044   -1.1127 H       1  UNL1        0.0304
     47 H          -2.5734    1.1872    0.0734 H       1  UNL1        0.0304
     48 H          -3.4660   -2.4494    1.9251 H       1  UNL1        0.0238
     49 H          -4.5913   -1.1283    2.0273 H       1  UNL1        0.0238
     50 H          -2.9054   -0.8406    2.5694 H       1  UNL1        0.0238
     51 H          -3.7179   -2.9210   -0.3933 H       1  UNL1        0.0238
     52 H          -2.1953   -2.7884    0.5124 H       1  UNL1        0.0238
     53 H          -2.2187   -2.0755   -1.1313 H       1  UNL1        0.0238
     54 H          -4.6696   -2.1792   -1.6595 H       1  UNL1        0.0622
     55 H          -6.6764   -1.4925   -2.7840 H       1  UNL1        0.0646
     56 H          -6.8622    1.9869   -0.3825 H       1  UNL1        0.0654
     57 H          -5.3952    3.3442    0.1206 H       1  UNL1        0.1453
     58 H          -5.6605    3.3514    1.9196 H       1  UNL1        0.1453
     59 H           1.6851   -1.6893    2.1533 H       1  UNL1        0.1656
     60 H           4.3060   -1.5368    3.0652 H       1  UNL1        0.0851
@<TRIPOS>BOND
     1     1     2    1
     2     2     3    1
     3     3     4    2
     4     3     5    2
     5     3     6    1
     6     6     7   ar
     7     7     8   ar
     8     8     9   ar
     9     9    10   ar
    10    10    11    1
    11    11    12    1
    12    12    13    1
    13    12    14    1
    14    14    15    1
    15    15    16    1
    16    15    17    1
    17    15    18    1
    18    18    19   ar
    19    19    20   ar
    20    20    21   ar
    21    21    22    1
    22    21    23   ar
    23    23    24   ar
    24    24    25    1
    25    25    26   am
    26    25    27    2
    27    12    28    1
    28    28    29    1
    29    28    30    1
    30    28    31    1
    31    10    32   ar
    32    32    33   ar
    33    33    34   ar
    34    34    35   ar
    35    35     6   ar
    36    33     8   ar
    37    24    18   ar
    38     1    36    1
    39     1    37    1
    40     1    38    1
    41     2    39    1
    42     2    40    1
    43     7    41    1
    44     9    42    1
    45    11    43    1
    46    11    44    1
    47    13    45    1
    48    14    46    1
    49    14    47    1
    50    16    48    1
    51    16    49    1
    52    16    50    1
    53    17    51    1
    54    17    52    1
    55    17    53    1
    56    19    54    1
    57    20    55    1
    58    23    56    1
    59    26    57    1
    60    26    58    1
    61    32    59    1
    62    34    60    1
