
     RDKit          3D

 60 62  0  0  0  0  0  0  0  0999 V2000
    7.3186    0.3301   -2.3915 C   0  0  0  0  0  0  0  0  0  0  0  0
    7.6846    1.3308   -1.3325 C   0  0  0  0  0  0  0  0  0  0  0  0
    7.6087    0.6074    0.2623 S   0  0  0  0  0  6  0  0  0  0  0  0
    8.0131    1.6138    1.3066 O   0  0  0  0  0  0  0  0  0  0  0  0
    8.5576   -0.5746    0.3875 O   0  0  0  0  0  0  0  0  0  0  0  0
    6.0062    0.0495    0.6221 C   0  0  0  0  0  0  0  0  0  0  0  0
    4.9494    0.2316   -0.2417 C   0  0  0  0  0  0  0  0  0  0  0  0
    3.6670   -0.2232    0.0876 C   0  0  0  0  0  0  0  0  0  0  0  0
    2.4432   -0.1822   -0.5670 C   0  0  0  0  0  0  0  0  0  0  0  0
    1.4867   -0.7829    0.2124 C   0  0  0  0  0  0  0  0  0  0  0  0
    0.0286   -1.0211   -0.0658 C   0  0  0  0  0  0  0  0  0  0  0  0
   -0.8426    0.0614    0.4688 C   0  0  2  0  0  0  0  0  0  0  0  0
   -0.6218    0.0448    1.8681 O   0  0  0  0  0  0  0  0  0  0  0  0
   -2.2441    0.1024    0.0942 C   0  0  0  0  0  0  0  0  0  0  0  0
   -3.2538   -0.9063    0.3807 C   0  0  0  0  0  0  0  0  0  0  0  0
   -3.5264   -1.2936    1.8123 C   0  0  0  0  0  0  0  0  0  0  0  0
   -2.8348   -2.2398   -0.2625 C   0  0  0  0  0  0  0  0  0  0  0  0
   -4.5473   -0.5023   -0.2924 C   0  0  0  0  0  0  0  0  0  0  0  0
   -5.0890   -1.2695   -1.3050 C   0  0  0  0  0  0  0  0  0  0  0  0
   -6.2530   -0.8942   -1.9945 C   0  0  0  0  0  0  0  0  0  0  0  0
   -6.8687    0.2725   -1.6497 C   0  0  0  0  0  0  0  0  0  0  0  0
   -8.0130    0.7058   -2.2814 F   0  0  0  0  0  0  0  0  0  0  0  0
   -6.3587    1.0442   -0.6610 C   0  0  0  0  0  0  0  0  0  0  0  0
   -5.1797    0.6592    0.0353 C   0  0  0  0  0  0  0  0  0  0  0  0
   -4.7964    1.5480    1.0686 C   0  0  0  0  0  0  0  0  0  0  0  0
   -5.3494    2.8984    1.0604 N   0  0  0  0  0  0  0  0  0  0  0  0
   -4.0384    1.3532    2.0074 O   0  0  0  0  0  0  0  0  0  0  0  0
   -0.1768    1.4048    0.0493 C   0  0  0  0  0  0  0  0  0  0  0  0
   -0.1126    1.3941   -1.3181 F   0  0  0  0  0  0  0  0  0  0  0  0
    0.9971    1.6281    0.6530 F   0  0  0  0  0  0  0  0  0  0  0  0
   -1.0297    2.4482    0.3865 F   0  0  0  0  0  0  0  0  0  0  0  0
    2.1034   -1.1914    1.3331 N   0  0  0  0  0  0  0  0  0  0  0  0
    3.4164   -0.8659    1.2814 C   0  0  0  0  0  0  0  0  0  0  0  0
    4.5008   -1.0280    2.1181 C   0  0  0  0  0  0  0  0  0  0  0  0
    5.7269   -0.5887    1.7937 N   0  0  0  0  0  0  0  0  0  0  0  0
    6.5459    0.7434   -3.0502 H   0  0  0  0  0  0  0  0  0  0  0  0
    8.2372    0.0725   -3.0040 H   0  0  0  0  0  0  0  0  0  0  0  0
    6.9219   -0.5793   -1.8956 H   0  0  0  0  0  0  0  0  0  0  0  0
    6.9393    2.1629   -1.3501 H   0  0  0  0  0  0  0  0  0  0  0  0
    8.6988    1.7288   -1.5506 H   0  0  0  0  0  0  0  0  0  0  0  0
    5.0717    0.7313   -1.1890 H   0  0  0  0  0  0  0  0  0  0  0  0
    2.2925    0.2538   -1.5331 H   0  0  0  0  0  0  0  0  0  0  0  0
   -0.0349   -0.9546   -1.1914 H   0  0  0  0  0  0  0  0  0  0  0  0
   -0.2296   -2.0481    0.2060 H   0  0  0  0  0  0  0  0  0  0  0  0
   -0.7012    0.9514    2.2528 H   0  0  0  0  0  0  0  0  0  0  0  0
   -2.1729    0.0044   -1.1127 H   0  0  0  0  0  0  0  0  0  0  0  0
   -2.5734    1.1872    0.0734 H   0  0  0  0  0  0  0  0  0  0  0  0
   -3.4660   -2.4494    1.9251 H   0  0  0  0  0  0  0  0  0  0  0  0
   -4.5913   -1.1283    2.0273 H   0  0  0  0  0  0  0  0  0  0  0  0
   -2.9054   -0.8406    2.5694 H   0  0  0  0  0  0  0  0  0  0  0  0
   -3.7179   -2.9210   -0.3933 H   0  0  0  0  0  0  0  0  0  0  0  0
   -2.1953   -2.7884    0.5124 H   0  0  0  0  0  0  0  0  0  0  0  0
   -2.2187   -2.0755   -1.1313 H   0  0  0  0  0  0  0  0  0  0  0  0
   -4.6696   -2.1792   -1.6595 H   0  0  0  0  0  0  0  0  0  0  0  0
   -6.6764   -1.4925   -2.7840 H   0  0  0  0  0  0  0  0  0  0  0  0
   -6.8622    1.9869   -0.3825 H   0  0  0  0  0  0  0  0  0  0  0  0
   -5.3952    3.3442    0.1206 H   0  0  0  0  0  0  0  0  0  0  0  0
   -5.6605    3.3514    1.9196 H   0  0  0  0  0  0  0  0  0  0  0  0
    1.6851   -1.6893    2.1533 H   0  0  0  0  0  0  0  0  0  0  0  0
    4.3060   -1.5368    3.0652 H   0  0  0  0  0  0  0  0  0  0  0  0
  1  2  1  0
  2  3  1  0
  3  4  2  0
  3  5  2  0
  3  6  1  0
  6  7  2  0
  7  8  1  0
  8  9  1  0
  9 10  2  0
 10 11  1  0
 11 12  1  0
 12 13  1  1
 12 14  1  0
 14 15  1  0
 15 16  1  0
 15 17  1  0
 15 18  1  0
 18 19  2  0
 19 20  1  0
 20 21  2  0
 21 22  1  0
 21 23  1  0
 23 24  2  0
 24 25  1  0
 25 26  1  0
 25 27  2  0
 12 28  1  0
 28 29  1  0
 28 30  1  0
 28 31  1  0
 10 32  1  0
 32 33  1  0
 33 34  1  0
 34 35  2  0
 35  6  1  0
 33  8  2  0
 24 18  1  0
  1 36  1  0
  1 37  1  0
  1 38  1  0
  2 39  1  0
  2 40  1  0
  7 41  1  0
  9 42  1  0
 11 43  1  0
 11 44  1  0
 13 45  1  0
 14 46  1  0
 14 47  1  0
 16 48  1  0
 16 49  1  0
 16 50  1  0
 17 51  1  0
 17 52  1  0
 17 53  1  0
 19 54  1  0
 20 55  1  0
 23 56  1  0
 26 57  1  0
 26 58  1  0
 32 59  1  0
 34 60  1  0
M  END
$$$$
