@<TRIPOS>MOLECULE
*****
 36 37 0 0 0
SMALL
GASTEIGER

@<TRIPOS>ATOM
      1 O           5.3222   -0.7533   -1.5607 O.2     1  UNL1       -0.2687
      2 C           5.2955   -0.4315   -0.3448 C.2     1  UNL1        0.2593
      3 C           4.0821    0.1248    0.2570 C.2     1  UNL1        0.0027
      4 C           2.9943    0.3041   -0.4441 C.2     1  UNL1       -0.0496
      5 C           1.7540    0.8442    0.0606 C.ar    1  UNL1       -0.0230
      6 C           1.5989    1.2296    1.3590 C.ar    1  UNL1       -0.0545
      7 C           0.3923    1.7463    1.8160 C.ar    1  UNL1       -0.0593
      8 C          -0.6732    1.8785    0.9599 C.ar    1  UNL1       -0.0350
      9 C          -0.5570    1.4977   -0.3705 C.ar    1  UNL1        0.1091
     10 S          -1.8578    1.6367   -1.5017 S.O2    1  UNL1        0.0724
     11 O          -2.8538    2.6973   -1.0277 O.2     1  UNL1       -0.1500
     12 O          -1.2442    2.1600   -2.7959 O.2     1  UNL1       -0.1500
     13 N          -2.7145    0.2114   -1.8330 N.pl3   1  UNL1       -0.2163
     14 C          -3.4147   -0.4802   -0.8145 C.ar    1  UNL1        0.0480
     15 C          -2.8625   -0.8704    0.3862 C.ar    1  UNL1       -0.0393
     16 C          -3.5584   -1.5682    1.3670 C.ar    1  UNL1       -0.0600
     17 C          -4.8714   -1.8994    1.1496 C.ar    1  UNL1       -0.0616
     18 C          -5.4408   -1.5182   -0.0460 C.ar    1  UNL1       -0.0600
     19 C          -4.7630   -0.8345   -1.0088 C.ar    1  UNL1       -0.0393
     20 C           0.6673    0.9862   -0.7843 C.ar    1  UNL1       -0.0279
     21 N           6.4686   -0.6181    0.4372 N.am    1  UNL1       -0.1940
     22 O           7.6161   -1.1321   -0.0849 O.3     1  UNL1       -0.2949
     23 H           4.0903    0.3907    1.3005 H       1  UNL1        0.0670
     24 H           3.0646    0.0088   -1.5008 H       1  UNL1        0.0625
     25 H           2.3888    1.1567    2.0908 H       1  UNL1        0.0623
     26 H           0.2597    2.0522    2.8340 H       1  UNL1        0.0618
     27 H          -1.6190    2.2728    1.2763 H       1  UNL1        0.0637
     28 H          -2.7440   -0.1955   -2.8187 H       1  UNL1        0.1737
     29 H          -1.8345   -0.6417    0.5835 H       1  UNL1        0.0636
     30 H          -3.0963   -1.8604    2.3013 H       1  UNL1        0.0618
     31 H          -5.4368   -2.4425    1.8962 H       1  UNL1        0.0618
     32 H          -6.4852   -1.8003   -0.1805 H       1  UNL1        0.0618
     33 H          -5.2250   -0.5443   -1.9389 H       1  UNL1        0.0636
     34 H           0.7435    0.6886   -1.8427 H       1  UNL1        0.0643
     35 H           6.3998   -0.3359    1.4447 H       1  UNL1        0.1825
     36 H           8.1138   -0.4828   -0.6212 H       1  UNL1        0.2414
@<TRIPOS>BOND
     1     1     2    2
     2     2     3    1
     3     3     4    2
     4     4     5    1
     5     5     6   ar
     6     6     7   ar
     7     7     8   ar
     8     8     9   ar
     9     9    10    1
    10    10    11    2
    11    10    12    2
    12    10    13    1
    13    13    14    1
    14    14    15   ar
    15    15    16   ar
    16    16    17   ar
    17    17    18   ar
    18    18    19   ar
    19     9    20   ar
    20     2    21   am
    21    21    22    1
    22    20     5   ar
    23    19    14   ar
    24     3    23    1
    25     4    24    1
    26     6    25    1
    27     7    26    1
    28     8    27    1
    29    13    28    1
    30    15    29    1
    31    16    30    1
    32    17    31    1
    33    18    32    1
    34    19    33    1
    35    20    34    1
    36    21    35    1
    37    22    36    1
