
     RDKit          3D

 36 37  0  0  0  0  0  0  0  0999 V2000
    5.3222   -0.7533   -1.5607 O   0  0  0  0  0  0  0  0  0  0  0  0
    5.2955   -0.4315   -0.3448 C   0  0  0  0  0  0  0  0  0  0  0  0
    4.0821    0.1248    0.2570 C   0  0  0  0  0  0  0  0  0  0  0  0
    2.9943    0.3041   -0.4441 C   0  0  0  0  0  0  0  0  0  0  0  0
    1.7540    0.8442    0.0606 C   0  0  0  0  0  0  0  0  0  0  0  0
    1.5989    1.2296    1.3590 C   0  0  0  0  0  0  0  0  0  0  0  0
    0.3923    1.7463    1.8160 C   0  0  0  0  0  0  0  0  0  0  0  0
   -0.6732    1.8785    0.9599 C   0  0  0  0  0  0  0  0  0  0  0  0
   -0.5570    1.4977   -0.3705 C   0  0  0  0  0  0  0  0  0  0  0  0
   -1.8578    1.6367   -1.5017 S   0  0  0  0  0  6  0  0  0  0  0  0
   -2.8538    2.6973   -1.0277 O   0  0  0  0  0  0  0  0  0  0  0  0
   -1.2442    2.1600   -2.7959 O   0  0  0  0  0  0  0  0  0  0  0  0
   -2.7145    0.2114   -1.8330 N   0  0  0  0  0  0  0  0  0  0  0  0
   -3.4147   -0.4802   -0.8145 C   0  0  0  0  0  0  0  0  0  0  0  0
   -2.8625   -0.8704    0.3862 C   0  0  0  0  0  0  0  0  0  0  0  0
   -3.5584   -1.5682    1.3670 C   0  0  0  0  0  0  0  0  0  0  0  0
   -4.8714   -1.8994    1.1496 C   0  0  0  0  0  0  0  0  0  0  0  0
   -5.4408   -1.5182   -0.0460 C   0  0  0  0  0  0  0  0  0  0  0  0
   -4.7630   -0.8345   -1.0088 C   0  0  0  0  0  0  0  0  0  0  0  0
    0.6673    0.9862   -0.7843 C   0  0  0  0  0  0  0  0  0  0  0  0
    6.4686   -0.6181    0.4372 N   0  0  0  0  0  0  0  0  0  0  0  0
    7.6161   -1.1321   -0.0849 O   0  0  0  0  0  0  0  0  0  0  0  0
    4.0903    0.3907    1.3005 H   0  0  0  0  0  0  0  0  0  0  0  0
    3.0646    0.0088   -1.5008 H   0  0  0  0  0  0  0  0  0  0  0  0
    2.3888    1.1567    2.0908 H   0  0  0  0  0  0  0  0  0  0  0  0
    0.2597    2.0522    2.8340 H   0  0  0  0  0  0  0  0  0  0  0  0
   -1.6190    2.2728    1.2763 H   0  0  0  0  0  0  0  0  0  0  0  0
   -2.7440   -0.1955   -2.8187 H   0  0  0  0  0  0  0  0  0  0  0  0
   -1.8345   -0.6417    0.5835 H   0  0  0  0  0  0  0  0  0  0  0  0
   -3.0963   -1.8604    2.3013 H   0  0  0  0  0  0  0  0  0  0  0  0
   -5.4368   -2.4425    1.8962 H   0  0  0  0  0  0  0  0  0  0  0  0
   -6.4852   -1.8003   -0.1805 H   0  0  0  0  0  0  0  0  0  0  0  0
   -5.2250   -0.5443   -1.9389 H   0  0  0  0  0  0  0  0  0  0  0  0
    0.7435    0.6886   -1.8427 H   0  0  0  0  0  0  0  0  0  0  0  0
    6.3998   -0.3359    1.4447 H   0  0  0  0  0  0  0  0  0  0  0  0
    8.1138   -0.4828   -0.6212 H   0  0  0  0  0  0  0  0  0  0  0  0
  1  2  2  0
  2  3  1  0
  3  4  2  0
  4  5  1  0
  5  6  2  0
  6  7  1  0
  7  8  2  0
  8  9  1  0
  9 10  1  0
 10 11  2  0
 10 12  2  0
 10 13  1  0
 13 14  1  0
 14 15  2  0
 15 16  1  0
 16 17  2  0
 17 18  1  0
 18 19  2  0
  9 20  2  0
  2 21  1  0
 21 22  1  0
 20  5  1  0
 19 14  1  0
  3 23  1  0
  4 24  1  0
  6 25  1  0
  7 26  1  0
  8 27  1  0
 13 28  1  0
 15 29  1  0
 16 30  1  0
 17 31  1  0
 18 32  1  0
 19 33  1  0
 20 34  1  0
 21 35  1  0
 22 36  1  0
M  END
$$$$
