@<TRIPOS>MOLECULE
*****
 76 80 0 0 0
SMALL
GASTEIGER

@<TRIPOS>ATOM
      1 C          -4.5795    4.7216    2.8994 C.3     1  UNL1       -0.0397
      2 C          -4.6628    3.4196    2.1763 C.ar    1  UNL1       -0.0503
      3 C          -4.3364    2.2539    2.8368 C.ar    1  UNL1       -0.0568
      4 C          -4.4042    1.0270    2.1900 C.ar    1  UNL1       -0.0359
      5 C          -4.7973    0.9253    0.8723 C.ar    1  UNL1        0.0674
      6 N          -4.8761   -0.3281    0.1804 N.ar    1  UNL1       -0.2181
      7 N          -5.8273   -0.7505   -0.6348 N.ar    1  UNL1       -0.1691
      8 C          -5.5779   -1.9755   -1.1055 C.ar    1  UNL1        0.0706
      9 C          -6.4064   -2.7977   -2.0482 C.3     1  UNL1        0.0063
     10 C          -7.6381   -2.0302   -2.4300 C.3     1  UNL1       -0.0546
     11 C          -6.8587   -4.0397   -1.2785 C.3     1  UNL1       -0.0546
     12 C          -5.5859   -3.2172   -3.2288 C.3     1  UNL1       -0.0546
     13 C          -4.3764   -2.3668   -0.5495 C.ar    1  UNL1        0.0021
     14 C          -3.9585   -1.3193    0.2502 C.ar    1  UNL1        0.1299
     15 N          -2.7533   -1.3457    0.9955 N.am    1  UNL1       -0.2538
     16 C          -1.5258   -0.8809    0.4561 C.2     1  UNL1        0.3092
     17 O          -1.4431   -0.4178   -0.7208 O.2     1  UNL1       -0.2521
     18 N          -0.3077   -0.9070    1.2079 N.am    1  UNL1       -0.2686
     19 C           0.9274   -0.4541    0.7045 C.ar    1  UNL1        0.0427
     20 C           1.7558   -1.3216    0.0496 C.ar    1  UNL1       -0.0364
     21 C           2.9738   -0.8578   -0.4418 C.ar    1  UNL1       -0.0176
     22 C           3.4066    0.4353   -0.3095 C.ar    1  UNL1        0.1283
     23 O           4.5832    0.9286   -0.7743 O.3     1  UNL1       -0.4901
     24 C           5.6512    0.3921   -1.4413 C.3     1  UNL1        0.1023
     25 C           6.4254   -0.6555   -0.7218 C.3     1  UNL1        0.0333
     26 N           6.9983   -0.1782    0.5241 N.3     1  UNL1       -0.2948
     27 C           7.7184   -1.2477    1.1400 C.3     1  UNL1        0.0225
     28 C           9.1197   -1.4091    0.6001 C.3     1  UNL1        0.0604
     29 O           9.8320   -0.2033    0.6606 O.3     1  UNL1       -0.3772
     30 C           9.1799    0.6729   -0.2331 C.3     1  UNL1        0.0604
     31 C           7.8299    0.9726    0.3549 C.3     1  UNL1        0.0225
     32 C           2.5352    1.3112    0.3690 C.ar    1  UNL1        0.0256
     33 C           2.9528    2.6070    0.5088 C.ar    1  UNL1       -0.0505
     34 C           2.1415    3.5275    1.1690 C.ar    1  UNL1       -0.0611
     35 C           0.9309    3.1007    1.6662 C.ar    1  UNL1       -0.0611
     36 C           0.5305    1.7805    1.5112 C.ar    1  UNL1       -0.0521
     37 C           1.3314    0.8477    0.8529 C.ar    1  UNL1        0.0069
     38 C          -5.1229    2.0933    0.2153 C.ar    1  UNL1       -0.0359
     39 C          -5.0554    3.3246    0.8624 C.ar    1  UNL1       -0.0568
     40 H          -3.5560    4.8711    3.3211 H       1  UNL1        0.0278
     41 H          -4.7472    5.5439    2.1762 H       1  UNL1        0.0278
     42 H          -5.3087    4.8004    3.7210 H       1  UNL1        0.0278
     43 H          -4.0243    2.3288    3.8808 H       1  UNL1        0.0621
     44 H          -4.1500    0.1298    2.7083 H       1  UNL1        0.0639
     45 H          -7.5800   -0.9635   -2.0766 H       1  UNL1        0.0239
     46 H          -7.7510   -1.9759   -3.5322 H       1  UNL1        0.0239
     47 H          -8.5590   -2.4363   -1.9556 H       1  UNL1        0.0239
     48 H          -6.0045   -4.5772   -0.8422 H       1  UNL1        0.0239
     49 H          -7.4115   -4.7188   -1.9725 H       1  UNL1        0.0239
     50 H          -7.5478   -3.7743   -0.4608 H       1  UNL1        0.0239
     51 H          -4.9950   -2.3509   -3.6167 H       1  UNL1        0.0239
     52 H          -4.8782   -4.0049   -2.9130 H       1  UNL1        0.0239
     53 H          -6.2781   -3.6127   -3.9977 H       1  UNL1        0.0239
     54 H          -3.8772   -3.3222   -0.7248 H       1  UNL1        0.0671
     55 H          -2.7501   -1.7124    1.9656 H       1  UNL1        0.1578
     56 H          -0.3518   -1.2913    2.1977 H       1  UNL1        0.1564
     57 H           1.4920   -2.3782   -0.1033 H       1  UNL1        0.0637
     58 H           3.5890   -1.5856   -0.9726 H       1  UNL1        0.0655
     59 H           6.3096    1.1716   -1.9042 H       1  UNL1        0.0709
     60 H           5.2284   -0.1320   -2.3635 H       1  UNL1        0.0709
     61 H           5.7927   -1.5067   -0.4639 H       1  UNL1        0.0460
     62 H           7.2604   -1.0227   -1.3588 H       1  UNL1        0.0460
     63 H           7.7808   -1.1379    2.2356 H       1  UNL1        0.0449
     64 H           7.1830   -2.1960    0.9277 H       1  UNL1        0.0449
     65 H           9.6298   -2.1796    1.1780 H       1  UNL1        0.0572
     66 H           9.0710   -1.6861   -0.4875 H       1  UNL1        0.0572
     67 H           9.7430    1.6439   -0.2439 H       1  UNL1        0.0572
     68 H           9.1282    0.2190   -1.2335 H       1  UNL1        0.0572
     69 H           8.0191    1.3899    1.3830 H       1  UNL1        0.0449
     70 H           7.3505    1.7815   -0.2157 H       1  UNL1        0.0449
     71 H           3.8944    2.9853    0.1346 H       1  UNL1        0.0625
     72 H           2.4650    4.5436    1.2807 H       1  UNL1        0.0618
     73 H           0.2861    3.7759    2.1757 H       1  UNL1        0.0618
     74 H          -0.4267    1.4809    1.9145 H       1  UNL1        0.0624
     75 H          -5.4375    2.0343   -0.8316 H       1  UNL1        0.0639
     76 H          -5.3184    4.2278    0.3178 H       1  UNL1        0.0621
@<TRIPOS>BOND
     1     1     2    1
     2     2     3   ar
     3     3     4   ar
     4     4     5   ar
     5     5     6    1
     6     6     7   ar
     7     7     8   ar
     8     8     9    1
     9     9    10    1
    10     9    11    1
    11     9    12    1
    12     8    13   ar
    13    13    14   ar
    14    14    15    1
    15    15    16   am
    16    16    17    2
    17    16    18   am
    18    18    19    1
    19    19    20   ar
    20    20    21   ar
    21    21    22   ar
    22    22    23    1
    23    23    24    1
    24    24    25    1
    25    25    26    1
    26    26    27    1
    27    27    28    1
    28    28    29    1
    29    29    30    1
    30    30    31    1
    31    22    32   ar
    32    32    33   ar
    33    33    34   ar
    34    34    35   ar
    35    35    36   ar
    36    36    37   ar
    37     5    38   ar
    38    38    39   ar
    39    39     2   ar
    40    14     6   ar
    41    37    19   ar
    42    31    26    1
    43    37    32   ar
    44     1    40    1
    45     1    41    1
    46     1    42    1
    47     3    43    1
    48     4    44    1
    49    10    45    1
    50    10    46    1
    51    10    47    1
    52    11    48    1
    53    11    49    1
    54    11    50    1
    55    12    51    1
    56    12    52    1
    57    12    53    1
    58    13    54    1
    59    15    55    1
    60    18    56    1
    61    20    57    1
    62    21    58    1
    63    24    59    1
    64    24    60    1
    65    25    61    1
    66    25    62    1
    67    27    63    1
    68    27    64    1
    69    28    65    1
    70    28    66    1
    71    30    67    1
    72    30    68    1
    73    31    69    1
    74    31    70    1
    75    33    71    1
    76    34    72    1
    77    35    73    1
    78    36    74    1
    79    38    75    1
    80    39    76    1
