
     RDKit          3D

 76 80  0  0  0  0  0  0  0  0999 V2000
   -4.5795    4.7216    2.8994 C   0  0  0  0  0  0  0  0  0  0  0  0
   -4.6628    3.4196    2.1763 C   0  0  0  0  0  0  0  0  0  0  0  0
   -4.3364    2.2539    2.8368 C   0  0  0  0  0  0  0  0  0  0  0  0
   -4.4042    1.0270    2.1900 C   0  0  0  0  0  0  0  0  0  0  0  0
   -4.7973    0.9253    0.8723 C   0  0  0  0  0  0  0  0  0  0  0  0
   -4.8761   -0.3281    0.1804 N   0  0  0  0  0  0  0  0  0  0  0  0
   -5.8273   -0.7505   -0.6348 N   0  0  0  0  0  0  0  0  0  0  0  0
   -5.5779   -1.9755   -1.1055 C   0  0  0  0  0  0  0  0  0  0  0  0
   -6.4064   -2.7977   -2.0482 C   0  0  0  0  0  0  0  0  0  0  0  0
   -7.6381   -2.0302   -2.4300 C   0  0  0  0  0  0  0  0  0  0  0  0
   -6.8587   -4.0397   -1.2785 C   0  0  0  0  0  0  0  0  0  0  0  0
   -5.5859   -3.2172   -3.2288 C   0  0  0  0  0  0  0  0  0  0  0  0
   -4.3764   -2.3668   -0.5495 C   0  0  0  0  0  0  0  0  0  0  0  0
   -3.9585   -1.3193    0.2502 C   0  0  0  0  0  0  0  0  0  0  0  0
   -2.7533   -1.3457    0.9955 N   0  0  0  0  0  0  0  0  0  0  0  0
   -1.5258   -0.8809    0.4561 C   0  0  0  0  0  0  0  0  0  0  0  0
   -1.4431   -0.4178   -0.7208 O   0  0  0  0  0  0  0  0  0  0  0  0
   -0.3077   -0.9070    1.2079 N   0  0  0  0  0  0  0  0  0  0  0  0
    0.9274   -0.4541    0.7045 C   0  0  0  0  0  0  0  0  0  0  0  0
    1.7558   -1.3216    0.0496 C   0  0  0  0  0  0  0  0  0  0  0  0
    2.9738   -0.8578   -0.4418 C   0  0  0  0  0  0  0  0  0  0  0  0
    3.4066    0.4353   -0.3095 C   0  0  0  0  0  0  0  0  0  0  0  0
    4.5832    0.9286   -0.7743 O   0  0  0  0  0  0  0  0  0  0  0  0
    5.6512    0.3921   -1.4413 C   0  0  0  0  0  0  0  0  0  0  0  0
    6.4254   -0.6555   -0.7218 C   0  0  0  0  0  0  0  0  0  0  0  0
    6.9983   -0.1782    0.5241 N   0  0  0  0  0  0  0  0  0  0  0  0
    7.7184   -1.2477    1.1400 C   0  0  0  0  0  0  0  0  0  0  0  0
    9.1197   -1.4091    0.6001 C   0  0  0  0  0  0  0  0  0  0  0  0
    9.8320   -0.2033    0.6606 O   0  0  0  0  0  0  0  0  0  0  0  0
    9.1799    0.6729   -0.2331 C   0  0  0  0  0  0  0  0  0  0  0  0
    7.8299    0.9726    0.3549 C   0  0  0  0  0  0  0  0  0  0  0  0
    2.5352    1.3112    0.3690 C   0  0  0  0  0  0  0  0  0  0  0  0
    2.9528    2.6070    0.5088 C   0  0  0  0  0  0  0  0  0  0  0  0
    2.1415    3.5275    1.1690 C   0  0  0  0  0  0  0  0  0  0  0  0
    0.9309    3.1007    1.6662 C   0  0  0  0  0  0  0  0  0  0  0  0
    0.5305    1.7805    1.5112 C   0  0  0  0  0  0  0  0  0  0  0  0
    1.3314    0.8477    0.8529 C   0  0  0  0  0  0  0  0  0  0  0  0
   -5.1229    2.0933    0.2153 C   0  0  0  0  0  0  0  0  0  0  0  0
   -5.0554    3.3246    0.8624 C   0  0  0  0  0  0  0  0  0  0  0  0
   -3.5560    4.8711    3.3211 H   0  0  0  0  0  0  0  0  0  0  0  0
   -4.7472    5.5439    2.1762 H   0  0  0  0  0  0  0  0  0  0  0  0
   -5.3087    4.8004    3.7210 H   0  0  0  0  0  0  0  0  0  0  0  0
   -4.0243    2.3288    3.8808 H   0  0  0  0  0  0  0  0  0  0  0  0
   -4.1500    0.1298    2.7083 H   0  0  0  0  0  0  0  0  0  0  0  0
   -7.5800   -0.9635   -2.0766 H   0  0  0  0  0  0  0  0  0  0  0  0
   -7.7510   -1.9759   -3.5322 H   0  0  0  0  0  0  0  0  0  0  0  0
   -8.5590   -2.4363   -1.9556 H   0  0  0  0  0  0  0  0  0  0  0  0
   -6.0045   -4.5772   -0.8422 H   0  0  0  0  0  0  0  0  0  0  0  0
   -7.4115   -4.7188   -1.9725 H   0  0  0  0  0  0  0  0  0  0  0  0
   -7.5478   -3.7743   -0.4608 H   0  0  0  0  0  0  0  0  0  0  0  0
   -4.9950   -2.3509   -3.6167 H   0  0  0  0  0  0  0  0  0  0  0  0
   -4.8782   -4.0049   -2.9130 H   0  0  0  0  0  0  0  0  0  0  0  0
   -6.2781   -3.6127   -3.9977 H   0  0  0  0  0  0  0  0  0  0  0  0
   -3.8772   -3.3222   -0.7248 H   0  0  0  0  0  0  0  0  0  0  0  0
   -2.7501   -1.7124    1.9656 H   0  0  0  0  0  0  0  0  0  0  0  0
   -0.3518   -1.2913    2.1977 H   0  0  0  0  0  0  0  0  0  0  0  0
    1.4920   -2.3782   -0.1033 H   0  0  0  0  0  0  0  0  0  0  0  0
    3.5890   -1.5856   -0.9726 H   0  0  0  0  0  0  0  0  0  0  0  0
    6.3096    1.1716   -1.9042 H   0  0  0  0  0  0  0  0  0  0  0  0
    5.2284   -0.1320   -2.3635 H   0  0  0  0  0  0  0  0  0  0  0  0
    5.7927   -1.5067   -0.4639 H   0  0  0  0  0  0  0  0  0  0  0  0
    7.2604   -1.0227   -1.3588 H   0  0  0  0  0  0  0  0  0  0  0  0
    7.7808   -1.1379    2.2356 H   0  0  0  0  0  0  0  0  0  0  0  0
    7.1830   -2.1960    0.9277 H   0  0  0  0  0  0  0  0  0  0  0  0
    9.6298   -2.1796    1.1780 H   0  0  0  0  0  0  0  0  0  0  0  0
    9.0710   -1.6861   -0.4875 H   0  0  0  0  0  0  0  0  0  0  0  0
    9.7430    1.6439   -0.2439 H   0  0  0  0  0  0  0  0  0  0  0  0
    9.1282    0.2190   -1.2335 H   0  0  0  0  0  0  0  0  0  0  0  0
    8.0191    1.3899    1.3830 H   0  0  0  0  0  0  0  0  0  0  0  0
    7.3505    1.7815   -0.2157 H   0  0  0  0  0  0  0  0  0  0  0  0
    3.8944    2.9853    0.1346 H   0  0  0  0  0  0  0  0  0  0  0  0
    2.4650    4.5436    1.2807 H   0  0  0  0  0  0  0  0  0  0  0  0
    0.2861    3.7759    2.1757 H   0  0  0  0  0  0  0  0  0  0  0  0
   -0.4267    1.4809    1.9145 H   0  0  0  0  0  0  0  0  0  0  0  0
   -5.4375    2.0343   -0.8316 H   0  0  0  0  0  0  0  0  0  0  0  0
   -5.3184    4.2278    0.3178 H   0  0  0  0  0  0  0  0  0  0  0  0
  1  2  1  0
  2  3  2  0
  3  4  1  0
  4  5  2  0
  5  6  1  0
  6  7  1  0
  7  8  2  0
  8  9  1  0
  9 10  1  0
  9 11  1  0
  9 12  1  0
  8 13  1  0
 13 14  2  0
 14 15  1  0
 15 16  1  0
 16 17  2  0
 16 18  1  0
 18 19  1  0
 19 20  2  0
 20 21  1  0
 21 22  2  0
 22 23  1  0
 23 24  1  0
 24 25  1  0
 25 26  1  0
 26 27  1  0
 27 28  1  0
 28 29  1  0
 29 30  1  0
 30 31  1  0
 22 32  1  0
 32 33  2  0
 33 34  1  0
 34 35  2  0
 35 36  1  0
 36 37  2  0
  5 38  1  0
 38 39  2  0
 39  2  1  0
 14  6  1  0
 37 19  1  0
 31 26  1  0
 37 32  1  0
  1 40  1  0
  1 41  1  0
  1 42  1  0
  3 43  1  0
  4 44  1  0
 10 45  1  0
 10 46  1  0
 10 47  1  0
 11 48  1  0
 11 49  1  0
 11 50  1  0
 12 51  1  0
 12 52  1  0
 12 53  1  0
 13 54  1  0
 15 55  1  0
 18 56  1  0
 20 57  1  0
 21 58  1  0
 24 59  1  0
 24 60  1  0
 25 61  1  0
 25 62  1  0
 27 63  1  0
 27 64  1  0
 28 65  1  0
 28 66  1  0
 30 67  1  0
 30 68  1  0
 31 69  1  0
 31 70  1  0
 33 71  1  0
 34 72  1  0
 35 73  1  0
 36 74  1  0
 38 75  1  0
 39 76  1  0
M  END
$$$$
