@<TRIPOS>MOLECULE
*****
 41 43 0 0 0
SMALL
GASTEIGER

@<TRIPOS>ATOM
      1 C           5.9873   -0.0708    1.9295 C.3     1  UNL1        0.0788
      2 O           5.7633    0.1484    0.5497 O.3     1  UNL1       -0.4951
      3 C           4.5323   -0.0506   -0.0515 C.ar    1  UNL1        0.1204
      4 C           4.4144    0.1903   -1.4027 C.ar    1  UNL1       -0.0196
      5 C           3.1929    0.0033   -2.0517 C.ar    1  UNL1       -0.0536
      6 C           2.1166   -0.4295   -1.2900 C.ar    1  UNL1       -0.0282
      7 C           2.2347   -0.6704    0.0611 C.ar    1  UNL1       -0.0382
      8 C           3.4576   -0.4799    0.6940 C.ar    1  UNL1       -0.0164
      9 C           1.1110   -1.1338    0.9133 C.3     1  UNL1       -0.0128
     10 C          -0.0761   -1.5551    0.0619 C.3     1  UNL1        0.0248
     11 N          -0.2655   -0.6846   -1.0520 N.3     1  UNL1       -0.1720
     12 S          -0.8555    0.8736   -0.6229 S.O2    1  UNL1        0.0612
     13 O           0.0834    1.6188    0.2736 O.2     1  UNL1       -0.1528
     14 O          -0.9806    1.6745   -1.8923 O.2     1  UNL1       -0.1528
     15 C          -2.4237    0.7601    0.1437 C.ar    1  UNL1        0.1063
     16 C          -2.5643    0.6212    1.5077 C.ar    1  UNL1       -0.0353
     17 C          -3.7968    0.5308    2.1220 C.ar    1  UNL1       -0.0591
     18 C          -4.9552    0.5776    1.3736 C.ar    1  UNL1       -0.0477
     19 C          -4.8193    0.7166    0.0080 C.ar    1  UNL1        0.0607
     20 C          -6.0392    0.7678   -0.7991 C.2     1  UNL1        0.3369
     21 O          -5.9623    0.8933   -2.0434 O.2     1  UNL1       -0.2451
     22 O          -7.2971    0.6827   -0.2442 O.3     1  UNL1       -0.4771
     23 C          -3.5895    0.8071   -0.6085 C.ar    1  UNL1       -0.0214
     24 C           0.8220   -0.6282   -1.9752 C.3     1  UNL1        0.0458
     25 H           5.4812    0.7104    2.5396 H       1  UNL1        0.0660
     26 H           7.0858    0.0280    2.0859 H       1  UNL1        0.0660
     27 H           5.6136   -1.0863    2.1537 H       1  UNL1        0.0660
     28 H           5.2925    0.5280   -1.9470 H       1  UNL1        0.0654
     29 H           3.0926    0.1895   -3.1073 H       1  UNL1        0.0622
     30 H           3.5753   -0.6619    1.7518 H       1  UNL1        0.0657
     31 H           1.4317   -1.9767    1.5725 H       1  UNL1        0.0326
     32 H           0.8273   -0.3084    1.5997 H       1  UNL1        0.0326
     33 H          -1.0038   -1.5749    0.6526 H       1  UNL1        0.0447
     34 H           0.0798   -2.5821   -0.3293 H       1  UNL1        0.0447
     35 H          -1.6532    0.5849    2.0912 H       1  UNL1        0.0637
     36 H          -3.8935    0.4201    3.2128 H       1  UNL1        0.0618
     37 H          -5.9241    0.5059    1.8638 H       1  UNL1        0.0626
     38 H          -8.0895    0.4022   -0.8142 H       1  UNL1        0.2954
     39 H          -3.4895    0.9174   -1.6938 H       1  UNL1        0.0645
     40 H           0.6584    0.2644   -2.6379 H       1  UNL1        0.0493
     41 H           0.8252   -1.5237   -2.6342 H       1  UNL1        0.0493
@<TRIPOS>BOND
     1     1     2    1
     2     2     3    1
     3     3     4   ar
     4     4     5   ar
     5     5     6   ar
     6     6     7   ar
     7     7     8   ar
     8     7     9    1
     9     9    10    1
    10    10    11    1
    11    11    12    1
    12    12    13    2
    13    12    14    2
    14    12    15    1
    15    15    16   ar
    16    16    17   ar
    17    17    18   ar
    18    18    19   ar
    19    19    20    1
    20    20    21    2
    21    20    22    1
    22    19    23   ar
    23    11    24    1
    24     8     3   ar
    25    23    15   ar
    26    24     6    1
    27     1    25    1
    28     1    26    1
    29     1    27    1
    30     4    28    1
    31     5    29    1
    32     8    30    1
    33     9    31    1
    34     9    32    1
    35    10    33    1
    36    10    34    1
    37    16    35    1
    38    17    36    1
    39    18    37    1
    40    22    38    1
    41    23    39    1
    42    24    40    1
    43    24    41    1
