@<TRIPOS>MOLECULE
*****
 64 66 0 0 0
SMALL
GASTEIGER

@<TRIPOS>ATOM
      1 C          -7.5573   -1.4811   -1.7214 C.3     1  UNL1        0.0820
      2 O          -6.3770   -1.8703   -1.0091 O.3     1  UNL1       -0.4646
      3 C          -5.2120   -1.1165   -1.0597 C.2     1  UNL1        0.3373
      4 O          -5.4483   -0.1306   -1.8037 O.2     1  UNL1       -0.2452
      5 C          -4.0045   -1.5031   -0.3384 C.2     1  UNL1        0.0651
      6 C          -3.9505   -2.5929    0.4052 C.2     1  UNL1        0.0157
      7 C          -5.1137   -3.4933    0.5546 C.3     1  UNL1       -0.0260
      8 N          -2.7260   -2.8825    1.0674 N.pl3   1  UNL1       -0.3207
      9 C          -1.5383   -2.1124    1.0128 C.2     1  UNL1        0.0157
     10 C          -0.2943   -2.4583    1.7215 C.3     1  UNL1       -0.0260
     11 C          -1.6645   -1.0383    0.2521 C.2     1  UNL1        0.0652
     12 C          -2.8649   -0.5973   -0.5007 C.3     1  UNL1        0.0508
     13 C          -3.2212    0.8039   -0.2457 C.ar    1  UNL1       -0.0287
     14 C          -3.6571    1.2814    0.9710 C.ar    1  UNL1        0.0197
     15 C          -3.9875    2.5894    1.2016 C.ar    1  UNL1        0.2734
     16 C          -3.8865    3.5020    0.1712 C.ar    1  UNL1        0.0156
     17 C          -3.4559    3.1205   -1.0967 C.ar    1  UNL1       -0.0551
     18 C          -3.1457    1.7882   -1.2368 C.ar    1  UNL1       -0.0572
     19 N          -4.4375    3.0764    2.4626 N.pl3   1  UNL1        0.0796
     20 O          -4.7417    4.4110    2.5825 O.co2   1  UNL1       -0.5760
     21 O          -4.5632    2.3231    3.4615 O.2     1  UNL1        0.0414
     22 C          -0.5381   -0.1320    0.0795 C.2     1  UNL1        0.3376
     23 O          -0.1492    0.9111   -0.4641 O.2     1  UNL1       -0.2452
     24 O           0.6763    0.0077    0.4481 O.3     1  UNL1       -0.4600
     25 C           1.9265    0.1620    0.8205 C.3     1  UNL1        0.1054
     26 C           2.8307    0.1699   -0.4190 C.3     1  UNL1        0.0333
     27 N           4.2062    0.3311   -0.1496 N.3     1  UNL1       -0.2980
     28 C           4.8940   -0.7237    0.5023 C.3     1  UNL1       -0.0123
     29 C           4.9585    1.1168   -1.0705 C.3     1  UNL1        0.0239
     30 C           6.3696    1.2072   -0.6906 C.ar    1  UNL1       -0.0334
     31 C           7.2526    0.2635   -1.1747 C.ar    1  UNL1       -0.0573
     32 C           8.6050    0.2640   -0.8726 C.ar    1  UNL1       -0.0615
     33 C           9.1255    1.2601   -0.0372 C.ar    1  UNL1       -0.0617
     34 C           8.2211    2.1974    0.4382 C.ar    1  UNL1       -0.0615
     35 C           6.8768    2.1955    0.1366 C.ar    1  UNL1       -0.0573
     36 H          -7.2880   -0.9462   -2.6595 H       1  UNL1        0.0661
     37 H          -8.2209   -0.8867   -1.0536 H       1  UNL1        0.0661
     38 H          -8.0623   -2.4270   -2.0238 H       1  UNL1        0.0661
     39 H          -5.9753   -2.9805    1.0091 H       1  UNL1        0.0290
     40 H          -5.3898   -3.9479   -0.4366 H       1  UNL1        0.0290
     41 H          -4.8644   -4.3379    1.2124 H       1  UNL1        0.0290
     42 H          -2.7088   -3.7636    1.6583 H       1  UNL1        0.1516
     43 H           0.0423   -1.6385    2.3771 H       1  UNL1        0.0290
     44 H           0.4662   -2.7797    0.9989 H       1  UNL1        0.0290
     45 H          -0.5228   -3.3176    2.4046 H       1  UNL1        0.0290
     46 H          -2.5613   -0.6679   -1.5860 H       1  UNL1        0.0451
     47 H          -3.7503    0.5941    1.8030 H       1  UNL1        0.0688
     48 H          -4.1309    4.5656    0.2715 H       1  UNL1        0.0685
     49 H          -3.3522    3.7779   -1.9482 H       1  UNL1        0.0620
     50 H          -2.8024    1.4527   -2.2220 H       1  UNL1        0.0621
     51 H           2.3738   -0.6807    1.4490 H       1  UNL1        0.0710
     52 H           2.1981    1.1045    1.3706 H       1  UNL1        0.0710
     53 H           2.6828   -0.8041   -0.9319 H       1  UNL1        0.0460
     54 H           2.4844    1.0187   -1.0275 H       1  UNL1        0.0460
     55 H           5.3272   -1.3702   -0.3188 H       1  UNL1        0.0391
     56 H           5.7019   -0.3960    1.1818 H       1  UNL1        0.0391
     57 H           4.2090   -1.3760    1.0386 H       1  UNL1        0.0391
     58 H           4.8367    0.6318   -2.0795 H       1  UNL1        0.0476
     59 H           4.5169    2.1304   -1.1285 H       1  UNL1        0.0476
     60 H           7.0025   -0.5552   -1.8221 H       1  UNL1        0.0621
     61 H           9.3275   -0.4477   -1.2258 H       1  UNL1        0.0618
     62 H          10.1786    1.2779    0.2114 H       1  UNL1        0.0618
     63 H           8.6537    2.9682    1.0933 H       1  UNL1        0.0618
     64 H           6.2195    2.9516    0.5360 H       1  UNL1        0.0621
@<TRIPOS>UNITY_ATOM_ATTR
19 1
charge 1
20 1
charge -1
@<TRIPOS>BOND
     1     1     2    1
     2     2     3    1
     3     3     4    2
     4     3     5    1
     5     5     6    2
     6     6     7    1
     7     6     8    1
     8     8     9    1
     9     9    10    1
    10     9    11    2
    11    11    12    1
    12    12    13    1
    13    13    14   ar
    14    14    15   ar
    15    15    16   ar
    16    16    17   ar
    17    17    18   ar
    18    15    19    1
    19    19    20    1
    20    19    21    2
    21    11    22    1
    22    22    23    2
    23    22    24    1
    24    24    25    1
    25    25    26    1
    26    26    27    1
    27    27    28    1
    28    27    29    1
    29    29    30    1
    30    30    31   ar
    31    31    32   ar
    32    32    33   ar
    33    33    34   ar
    34    34    35   ar
    35    12     5    1
    36    18    13   ar
    37    35    30   ar
    38     1    36    1
    39     1    37    1
    40     1    38    1
    41     7    39    1
    42     7    40    1
    43     7    41    1
    44     8    42    1
    45    10    43    1
    46    10    44    1
    47    10    45    1
    48    12    46    1
    49    14    47    1
    50    16    48    1
    51    17    49    1
    52    18    50    1
    53    25    51    1
    54    25    52    1
    55    26    53    1
    56    26    54    1
    57    28    55    1
    58    28    56    1
    59    28    57    1
    60    29    58    1
    61    29    59    1
    62    31    60    1
    63    32    61    1
    64    33    62    1
    65    34    63    1
    66    35    64    1
