
     RDKit          3D

 61 65  0  0  0  0  0  0  0  0999 V2000
    6.4787    5.2944   -0.2633 C   0  0  0  0  0  0  0  0  0  0  0  0
    5.7464    4.1560    0.3413 C   0  0  0  0  0  0  0  0  0  0  0  0
    5.7944    2.8142   -0.0570 C   0  0  0  0  0  0  0  0  0  0  0  0
    4.9748    2.0890    0.7601 N   0  0  0  0  0  0  0  0  0  0  0  0
    4.4288    2.9428    1.6425 C   0  0  0  0  0  0  0  0  0  0  0  0
    4.9044    4.1714    1.3728 N   0  0  0  0  0  0  0  0  0  0  0  0
    4.9106    0.6823    0.4826 C   0  0  0  0  0  0  0  0  0  0  0  0
    3.7042    0.0197    0.4059 C   0  0  0  0  0  0  0  0  0  0  0  0
    3.5305   -1.3067    0.1480 C   0  0  0  0  0  0  0  0  0  0  0  0
    2.3297   -2.0242    0.0623 N   0  0  0  0  0  0  0  0  0  0  0  0
    0.9921   -1.5909    0.2213 C   0  0  0  0  0  0  0  0  0  0  0  0
    0.8124   -0.3774    0.4806 O   0  0  0  0  0  0  0  0  0  0  0  0
   -0.1782   -2.4508    0.1059 C   0  0  0  0  0  0  0  0  0  0  0  0
   -0.1188   -3.7941   -0.2042 C   0  0  0  0  0  0  0  0  0  0  0  0
   -1.2360   -4.5959   -0.3036 C   0  0  0  0  0  0  0  0  0  0  0  0
   -2.4955   -4.0840   -0.0935 C   0  0  0  0  0  0  0  0  0  0  0  0
   -3.7431   -4.8839   -0.1826 C   0  0  0  0  0  0  0  0  0  0  0  0
   -2.5558   -2.7444    0.2157 C   0  0  0  0  0  0  0  0  0  0  0  0
   -3.8389   -2.1867    0.4503 N   0  0  0  0  0  0  0  0  0  0  0  0
   -4.4357   -0.9439    0.7717 C   0  0  0  0  0  0  0  0  0  0  0  0
   -4.4500   -0.7044    2.0818 N   0  0  0  0  0  0  0  0  0  0  0  0
   -4.9835    0.4296    2.5918 C   0  0  0  0  0  0  0  0  0  0  0  0
   -5.5197    1.3457    1.7212 C   0  0  0  0  0  0  0  0  0  0  0  0
   -5.5119    1.1089    0.3532 C   0  0  0  0  0  0  0  0  0  0  0  0
   -4.9643   -0.0377   -0.0668 N   0  0  0  0  0  0  0  0  0  0  0  0
   -6.0693    2.0334   -0.6234 C   0  0  0  0  0  0  0  0  0  0  0  0
   -6.0062    1.6776   -1.9536 C   0  0  0  0  0  0  0  0  0  0  0  0
   -6.5200    2.5186   -2.8854 N   0  0  0  0  0  0  0  0  0  0  0  0
   -7.0842    3.6833   -2.5281 C   0  0  0  0  0  0  0  0  0  0  0  0
   -7.1687    4.0781   -1.2148 C   0  0  0  0  0  0  0  0  0  0  0  0
   -6.6475    3.2258   -0.2649 C   0  0  0  0  0  0  0  0  0  0  0  0
   -1.4407   -1.9373    0.3162 C   0  0  0  0  0  0  0  0  0  0  0  0
    4.7204   -1.9791   -0.0422 C   0  0  0  0  0  0  0  0  0  0  0  0
    5.9418   -1.3915    0.0188 C   0  0  0  0  0  0  0  0  0  0  0  0
    6.0585   -0.0542    0.2814 C   0  0  0  0  0  0  0  0  0  0  0  0
    7.1803   -2.1839   -0.1970 C   0  0  0  0  0  0  0  0  0  0  0  0
    6.9438   -3.4849    0.2412 F   0  0  0  0  0  0  0  0  0  0  0  0
    8.2465   -1.6199    0.4681 F   0  0  0  0  0  0  0  0  0  0  0  0
    7.4496   -2.2960   -1.5563 F   0  0  0  0  0  0  0  0  0  0  0  0
    6.0083    6.2286    0.0650 H   0  0  0  0  0  0  0  0  0  0  0  0
    7.5627    5.2428   -0.1588 H   0  0  0  0  0  0  0  0  0  0  0  0
    6.2822    5.2366   -1.3730 H   0  0  0  0  0  0  0  0  0  0  0  0
    6.4311    2.5257   -0.9080 H   0  0  0  0  0  0  0  0  0  0  0  0
    3.7508    2.5031    2.3606 H   0  0  0  0  0  0  0  0  0  0  0  0
    2.8366    0.6400    0.5710 H   0  0  0  0  0  0  0  0  0  0  0  0
    2.3709   -3.0467   -0.1517 H   0  0  0  0  0  0  0  0  0  0  0  0
    0.8155   -4.2828   -0.3850 H   0  0  0  0  0  0  0  0  0  0  0  0
   -1.1488   -5.6531   -0.5505 H   0  0  0  0  0  0  0  0  0  0  0  0
   -3.5424   -5.9453   -0.4260 H   0  0  0  0  0  0  0  0  0  0  0  0
   -4.3003   -4.8520    0.7771 H   0  0  0  0  0  0  0  0  0  0  0  0
   -4.3829   -4.4915   -1.0110 H   0  0  0  0  0  0  0  0  0  0  0  0
   -4.7152   -2.7628    0.4023 H   0  0  0  0  0  0  0  0  0  0  0  0
   -5.0151    0.6658    3.6554 H   0  0  0  0  0  0  0  0  0  0  0  0
   -5.9427    2.2432    2.1046 H   0  0  0  0  0  0  0  0  0  0  0  0
   -5.5553    0.7392   -2.2907 H   0  0  0  0  0  0  0  0  0  0  0  0
   -7.5067    4.3803   -3.2607 H   0  0  0  0  0  0  0  0  0  0  0  0
   -7.6319    5.0311   -0.9379 H   0  0  0  0  0  0  0  0  0  0  0  0
   -6.7162    3.5382    0.7536 H   0  0  0  0  0  0  0  0  0  0  0  0
   -1.5282   -0.8950    0.5589 H   0  0  0  0  0  0  0  0  0  0  0  0
    4.7085   -3.0551   -0.2568 H   0  0  0  0  0  0  0  0  0  0  0  0
    7.0391    0.4105    0.3291 H   0  0  0  0  0  0  0  0  0  0  0  0
  1  2  1  0
  2  3  2  0
  3  4  1  0
  4  5  1  0
  5  6  2  0
  4  7  1  0
  7  8  2  0
  8  9  1  0
  9 10  1  0
 10 11  1  0
 11 12  2  0
 11 13  1  0
 13 14  2  0
 14 15  1  0
 15 16  2  0
 16 17  1  0
 16 18  1  0
 18 19  1  0
 19 20  1  0
 20 21  2  0
 21 22  1  0
 22 23  2  0
 23 24  1  0
 24 25  2  0
 24 26  1  0
 26 27  2  0
 27 28  1  0
 28 29  2  0
 29 30  1  0
 30 31  2  0
 18 32  2  0
  9 33  2  0
 33 34  1  0
 34 35  2  0
 34 36  1  0
 36 37  1  0
 36 38  1  0
 36 39  1  0
  6  2  1  0
 35  7  1  0
 32 13  1  0
 25 20  1  0
 31 26  1  0
  1 40  1  0
  1 41  1  0
  1 42  1  0
  3 43  1  0
  5 44  1  0
  8 45  1  0
 10 46  1  0
 14 47  1  0
 15 48  1  0
 17 49  1  0
 17 50  1  0
 17 51  1  0
 19 52  1  0
 22 53  1  0
 23 54  1  0
 27 55  1  0
 29 56  1  0
 30 57  1  0
 31 58  1  0
 32 59  1  0
 33 60  1  0
 35 61  1  0
M  END
$$$$
