@<TRIPOS>MOLECULE
*****
 51 55 0 0 0
SMALL
GASTEIGER

@<TRIPOS>ATOM
      1 C           8.4946    1.8133    0.5515 C.3     1  UNL1       -0.0159
      2 C           7.1099    1.3147    0.3643 C.ar    1  UNL1        0.0764
      3 N           6.1669    0.8910    1.0704 N.ar    1  UNL1       -0.2443
      4 C           5.0057    0.4992    0.6027 C.ar    1  UNL1        0.0786
      5 C           3.9116    0.0070    1.3545 C.ar    1  UNL1       -0.0334
      6 C           2.7776   -0.3646    0.7134 C.ar    1  UNL1       -0.0384
      7 C           2.5843   -0.3060   -0.6426 C.ar    1  UNL1        0.0336
      8 N           1.3926   -0.7290   -1.3041 N.pl3   1  UNL1       -0.2990
      9 C           0.3588   -1.3194   -0.5367 C.ar    1  UNL1        0.1329
     10 C          -0.8559   -0.6708   -0.4371 C.ar    1  UNL1        0.0293
     11 C          -0.9876    0.6565   -1.1421 C.3     1  UNL1       -0.0332
     12 C          -1.8628   -1.2069    0.2832 C.ar    1  UNL1        0.1275
     13 N          -3.1582   -0.7090    0.4535 N.pl3   1  UNL1       -0.3246
     14 C          -3.9640    0.3447    0.0259 C.3     1  UNL1        0.0345
     15 C          -3.5894    1.7678    0.1824 C.3     1  UNL1       -0.0322
     16 C          -4.9162    2.5132    0.4792 C.3     1  UNL1       -0.0387
     17 C          -6.0896    1.7875   -0.0738 C.3     1  UNL1       -0.0040
     18 N          -5.9042    0.9809   -1.2189 N.3     1  UNL1       -0.3142
     19 C          -4.6845    0.2042   -1.3004 C.3     1  UNL1        0.0143
     20 N          -1.5882   -2.4155    0.8944 N.ar    1  UNL1       -0.2129
     21 C          -0.4324   -3.0639    0.8192 C.ar    1  UNL1        0.1596
     22 C           0.0457   -4.2685    1.3484 C.ar    1  UNL1        0.0025
     23 C           1.3387   -4.3581    0.8857 C.ar    1  UNL1        0.0520
     24 N           1.6019   -3.2774    0.1347 N.ar    1  UNL1       -0.1717
     25 N           0.5427   -2.5041    0.0954 N.ar    1  UNL1       -0.2000
     26 C           3.6490    0.1751   -1.3829 C.ar    1  UNL1       -0.0247
     27 C           4.8229    0.5622   -0.7439 C.ar    1  UNL1        0.0409
     28 S           6.3438    1.1905   -1.3125 S.2     1  UNL1       -0.0723
     29 H           8.6722    2.6383   -0.1573 H       1  UNL1        0.0298
     30 H           9.2019    0.9749    0.3566 H       1  UNL1        0.0298
     31 H           8.5610    2.1621    1.5809 H       1  UNL1        0.0298
     32 H           3.9602   -0.0784    2.4261 H       1  UNL1        0.0640
     33 H           1.9381   -0.7452    1.3050 H       1  UNL1        0.0637
     34 H           1.2696   -0.6203   -2.3133 H       1  UNL1        0.1536
     35 H          -1.8764    0.5651   -1.7658 H       1  UNL1        0.0280
     36 H          -0.1441    0.7468   -1.8770 H       1  UNL1        0.0280
     37 H          -0.8982    1.5012   -0.4683 H       1  UNL1        0.0280
     38 H          -3.7030   -1.4046    1.1754 H       1  UNL1        0.1478
     39 H          -4.9036    0.2679    0.7592 H       1  UNL1        0.0510
     40 H          -3.2978    2.2138   -0.8087 H       1  UNL1        0.0284
     41 H          -2.9126    2.0129    1.0010 H       1  UNL1        0.0284
     42 H          -5.0471    2.5358    1.5978 H       1  UNL1        0.0278
     43 H          -4.8977    3.5490    0.1346 H       1  UNL1        0.0278
     44 H          -6.8411    2.5890   -0.3799 H       1  UNL1        0.0424
     45 H          -6.6595    1.2533    0.7518 H       1  UNL1        0.0424
     46 H          -6.7190    0.3338   -1.3115 H       1  UNL1        0.1220
     47 H          -4.8832   -0.8675   -1.5567 H       1  UNL1        0.0442
     48 H          -4.0780    0.6881   -2.0905 H       1  UNL1        0.0442
     49 H          -0.5266   -4.9423    1.9791 H       1  UNL1        0.0670
     50 H           2.0260   -5.1662    1.0964 H       1  UNL1        0.0848
     51 H           3.6452    0.2781   -2.4574 H       1  UNL1        0.0648
@<TRIPOS>BOND
     1     1     2    1
     2     2     3   ar
     3     3     4   ar
     4     4     5   ar
     5     5     6   ar
     6     6     7   ar
     7     7     8    1
     8     8     9    1
     9     9    10   ar
    10    10    11    1
    11    10    12   ar
    12    12    13    1
    13    13    14    1
    14    14    15    1
    15    15    16    1
    16    16    17    1
    17    17    18    1
    18    18    19    1
    19    12    20   ar
    20    20    21   ar
    21    21    22   ar
    22    22    23   ar
    23    23    24   ar
    24    24    25   ar
    25     7    26   ar
    26    26    27   ar
    27    27    28   ar
    28    28     2   ar
    29    27     4   ar
    30    25     9   ar
    31    19    14    1
    32    25    21   ar
    33     1    29    1
    34     1    30    1
    35     1    31    1
    36     5    32    1
    37     6    33    1
    38     8    34    1
    39    11    35    1
    40    11    36    1
    41    11    37    1
    42    13    38    1
    43    14    39    1
    44    15    40    1
    45    15    41    1
    46    16    42    1
    47    16    43    1
    48    17    44    1
    49    17    45    1
    50    18    46    1
    51    19    47    1
    52    19    48    1
    53    22    49    1
    54    23    50    1
    55    26    51    1
