
     RDKit          3D

 45 49  0  0  0  0  0  0  0  0999 V2000
    0.0525    0.5957   -1.1904 C   0  0  0  0  0  0  0  0  0  0  0  0
    1.0959   -0.3827   -0.7810 C   0  0  0  0  0  0  0  0  0  0  0  0
    2.3780   -0.1607   -1.6038 C   0  0  0  0  0  0  0  0  0  0  0  0
    3.5174   -0.7352   -0.8679 N   0  0  0  0  0  0  0  0  0  0  0  0
    3.1003   -1.9317   -0.1524 C   0  0  0  0  0  0  0  0  0  0  0  0
    2.2586   -1.5085    1.0363 C   0  0  0  0  0  0  0  0  0  0  0  0
    1.5617   -0.1908    0.6575 C   0  0  0  0  0  0  0  0  0  0  0  0
    2.6576    0.8531    0.7388 C   0  0  0  0  0  0  0  0  0  0  0  0
    3.9264    0.2065    0.1757 C   0  0  0  0  0  0  0  0  0  0  0  0
   -1.2109    0.4740   -0.4938 N   0  0  0  0  0  0  0  0  0  0  0  0
   -2.0724   -0.6057   -0.8032 C   0  0  0  0  0  0  0  0  0  0  0  0
   -1.7906   -1.5187   -1.7957 C   0  0  0  0  0  0  0  0  0  0  0  0
   -2.5775   -2.5853   -2.1744 C   0  0  0  0  0  0  0  0  0  0  0  0
   -3.7711   -2.7822   -1.5118 C   0  0  0  0  0  0  0  0  0  0  0  0
   -4.1173   -1.8986   -0.5010 C   0  0  0  0  0  0  0  0  0  0  0  0
   -3.2720   -0.8651   -0.1917 C   0  0  0  0  0  0  0  0  0  0  0  0
   -3.8835    0.1564    1.1115 S   0  0  0  0  0  0  0  0  0  0  0  0
   -2.6516    1.4297    1.2941 C   0  0  0  0  0  0  0  0  0  0  0  0
   -2.9655    2.3282    2.2511 C   0  0  0  0  0  0  0  0  0  0  0  0
   -2.0792    3.3756    2.5056 C   0  0  0  0  0  0  0  0  0  0  0  0
   -0.9264    3.4300    1.7580 C   0  0  0  0  0  0  0  0  0  0  0  0
   -0.6838    2.4685    0.7980 C   0  0  0  0  0  0  0  0  0  0  0  0
   -1.5253    1.4207    0.5119 C   0  0  0  0  0  0  0  0  0  0  0  0
   -0.1756    0.3519   -2.2795 H   0  0  0  0  0  0  0  0  0  0  0  0
    0.4259    1.6237   -1.3236 H   0  0  0  0  0  0  0  0  0  0  0  0
    0.7448   -1.4171   -0.8145 H   0  0  0  0  0  0  0  0  0  0  0  0
    2.5776    0.9130   -1.7236 H   0  0  0  0  0  0  0  0  0  0  0  0
    2.2675   -0.6666   -2.5609 H   0  0  0  0  0  0  0  0  0  0  0  0
    4.0091   -2.4048    0.2519 H   0  0  0  0  0  0  0  0  0  0  0  0
    2.5779   -2.6513   -0.7993 H   0  0  0  0  0  0  0  0  0  0  0  0
    1.4984   -2.2787    1.2082 H   0  0  0  0  0  0  0  0  0  0  0  0
    2.8268   -1.3479    1.9534 H   0  0  0  0  0  0  0  0  0  0  0  0
    0.7511   -0.0601    1.3775 H   0  0  0  0  0  0  0  0  0  0  0  0
    2.8105    1.1334    1.7843 H   0  0  0  0  0  0  0  0  0  0  0  0
    2.4412    1.7597    0.1558 H   0  0  0  0  0  0  0  0  0  0  0  0
    4.6261    0.9607   -0.2115 H   0  0  0  0  0  0  0  0  0  0  0  0
    4.4351   -0.3781    0.9643 H   0  0  0  0  0  0  0  0  0  0  0  0
   -0.8969   -1.4646   -2.3963 H   0  0  0  0  0  0  0  0  0  0  0  0
   -2.3288   -3.2867   -2.9585 H   0  0  0  0  0  0  0  0  0  0  0  0
   -4.4060   -3.6117   -1.7901 H   0  0  0  0  0  0  0  0  0  0  0  0
   -5.0572   -2.1137   -0.0320 H   0  0  0  0  0  0  0  0  0  0  0  0
   -3.8469    2.3389    2.8658 H   0  0  0  0  0  0  0  0  0  0  0  0
   -2.2872    4.1198    3.2623 H   0  0  0  0  0  0  0  0  0  0  0  0
   -0.2542    4.2660    1.9856 H   0  0  0  0  0  0  0  0  0  0  0  0
    0.2394    2.6411    0.3091 H   0  0  0  0  0  0  0  0  0  0  0  0
  1  2  1  0
  2  3  1  0
  3  4  1  0
  4  5  1  0
  5  6  1  0
  6  7  1  0
  7  8  1  0
  8  9  1  0
  1 10  1  0
 10 11  1  0
 11 12  2  0
 12 13  1  0
 13 14  2  0
 14 15  1  0
 15 16  2  0
 16 17  1  0
 17 18  1  0
 18 19  2  0
 19 20  1  0
 20 21  2  0
 21 22  1  0
 22 23  2  0
  7  2  1  0
 23 10  1  0
  9  4  1  0
 16 11  1  0
 23 18  1  0
  1 24  1  0
  1 25  1  0
  2 26  1  0
  3 27  1  0
  3 28  1  0
  5 29  1  0
  5 30  1  0
  6 31  1  0
  6 32  1  0
  7 33  1  0
  8 34  1  0
  8 35  1  0
  9 36  1  0
  9 37  1  0
 12 38  1  0
 13 39  1  0
 14 40  1  0
 15 41  1  0
 19 42  1  0
 20 43  1  0
 21 44  1  0
 22 45  1  0
M  END
$$$$
