@<TRIPOS>MOLECULE
*****
 45 49 0 0 0
SMALL
GASTEIGER

@<TRIPOS>ATOM
      1 C           0.0525    0.5957   -1.1904 C.3     1  UNL1        0.0216
      2 C           1.0959   -0.3827   -0.7810 C.3     1  UNL1       -0.0092
      3 C           2.3780   -0.1607   -1.6038 C.3     1  UNL1        0.0034
      4 N           3.5174   -0.7352   -0.8679 N.3     1  UNL1       -0.3020
      5 C           3.1003   -1.9317   -0.1524 C.3     1  UNL1       -0.0008
      6 C           2.2586   -1.5085    1.0363 C.3     1  UNL1       -0.0370
      7 C           1.5617   -0.1908    0.6575 C.3     1  UNL1       -0.0333
      8 C           2.6576    0.8531    0.7388 C.3     1  UNL1       -0.0370
      9 C           3.9264    0.2065    0.1757 C.3     1  UNL1       -0.0008
     10 N          -1.2109    0.4740   -0.4938 N.pl3   1  UNL1       -0.2980
     11 C          -2.0724   -0.6057   -0.8032 C.ar    1  UNL1        0.0479
     12 C          -1.7906   -1.5187   -1.7957 C.ar    1  UNL1       -0.0393
     13 C          -2.5775   -2.5853   -2.1744 C.ar    1  UNL1       -0.0599
     14 C          -3.7711   -2.7822   -1.5118 C.ar    1  UNL1       -0.0606
     15 C          -4.1173   -1.8986   -0.5010 C.ar    1  UNL1       -0.0462
     16 C          -3.2720   -0.8651   -0.1917 C.ar    1  UNL1        0.0341
     17 S          -3.8835    0.1564    1.1115 S.3     1  UNL1       -0.0857
     18 C          -2.6516    1.4297    1.2941 C.ar    1  UNL1        0.0341
     19 C          -2.9655    2.3282    2.2511 C.ar    1  UNL1       -0.0462
     20 C          -2.0792    3.3756    2.5056 C.ar    1  UNL1       -0.0606
     21 C          -0.9264    3.4300    1.7580 C.ar    1  UNL1       -0.0599
     22 C          -0.6838    2.4685    0.7980 C.ar    1  UNL1       -0.0393
     23 C          -1.5253    1.4207    0.5119 C.ar    1  UNL1        0.0479
     24 H          -0.1756    0.3519   -2.2795 H       1  UNL1        0.0471
     25 H           0.4259    1.6237   -1.3236 H       1  UNL1        0.0471
     26 H           0.7448   -1.4171   -0.8145 H       1  UNL1        0.0331
     27 H           2.5776    0.9130   -1.7236 H       1  UNL1        0.0430
     28 H           2.2675   -0.6666   -2.5609 H       1  UNL1        0.0430
     29 H           4.0091   -2.4048    0.2519 H       1  UNL1        0.0427
     30 H           2.5779   -2.6513   -0.7993 H       1  UNL1        0.0427
     31 H           1.4984   -2.2787    1.2082 H       1  UNL1        0.0280
     32 H           2.8268   -1.3479    1.9534 H       1  UNL1        0.0280
     33 H           0.7511   -0.0601    1.3775 H       1  UNL1        0.0305
     34 H           2.8105    1.1334    1.7843 H       1  UNL1        0.0280
     35 H           2.4412    1.7597    0.1558 H       1  UNL1        0.0280
     36 H           4.6261    0.9607   -0.2115 H       1  UNL1        0.0427
     37 H           4.4351   -0.3781    0.9643 H       1  UNL1        0.0427
     38 H          -0.8969   -1.4646   -2.3963 H       1  UNL1        0.0636
     39 H          -2.3288   -3.2867   -2.9585 H       1  UNL1        0.0618
     40 H          -4.4060   -3.6117   -1.7901 H       1  UNL1        0.0618
     41 H          -5.0572   -2.1137   -0.0320 H       1  UNL1        0.0629
     42 H          -3.8469    2.3389    2.8658 H       1  UNL1        0.0629
     43 H          -2.2872    4.1198    3.2623 H       1  UNL1        0.0618
     44 H          -0.2542    4.2660    1.9856 H       1  UNL1        0.0618
     45 H           0.2394    2.6411    0.3091 H       1  UNL1        0.0636
@<TRIPOS>BOND
     1     1     2    1
     2     2     3    1
     3     3     4    1
     4     4     5    1
     5     5     6    1
     6     6     7    1
     7     7     8    1
     8     8     9    1
     9     1    10    1
    10    10    11    1
    11    11    12   ar
    12    12    13   ar
    13    13    14   ar
    14    14    15   ar
    15    15    16   ar
    16    16    17    1
    17    17    18    1
    18    18    19   ar
    19    19    20   ar
    20    20    21   ar
    21    21    22   ar
    22    22    23   ar
    23     7     2    1
    24    23    10    1
    25     9     4    1
    26    16    11   ar
    27    23    18   ar
    28     1    24    1
    29     1    25    1
    30     2    26    1
    31     3    27    1
    32     3    28    1
    33     5    29    1
    34     5    30    1
    35     6    31    1
    36     6    32    1
    37     7    33    1
    38     8    34    1
    39     8    35    1
    40     9    36    1
    41     9    37    1
    42    12    38    1
    43    13    39    1
    44    14    40    1
    45    15    41    1
    46    19    42    1
    47    20    43    1
    48    21    44    1
    49    22    45    1
