@<TRIPOS>MOLECULE
*****
 48 51 0 0 0
SMALL
GASTEIGER

@<TRIPOS>ATOM
      1 C          -1.6496   -1.2440    3.1826 C.3     1  UNL1        0.0790
      2 O          -2.7986   -1.2658    2.3531 O.3     1  UNL1       -0.4913
      3 C          -2.7182   -0.6808    1.1076 C.ar    1  UNL1        0.1657
      4 C          -1.5387   -0.0763    0.6576 C.ar    1  UNL1       -0.0083
      5 C          -1.4710    0.5059   -0.5912 C.ar    1  UNL1       -0.0093
      6 C          -0.2327    1.1433   -1.0712 C.ar    1  UNL1        0.0012
      7 C          -0.2882    2.2163   -1.9351 C.ar    1  UNL1        0.0376
      8 N           0.8095    2.8324   -2.4022 N.ar    1  UNL1       -0.2369
      9 C           2.0383    2.4147   -2.0349 C.ar    1  UNL1        0.1387
     10 N           3.2871    2.8170   -2.3285 N.ar    1  UNL1       -0.3452
     11 C           4.1719    2.0407   -1.6829 C.ar    1  UNL1        0.0119
     12 C           3.4681    1.0885   -0.9338 C.ar    1  UNL1        0.0102
     13 C           4.0075    0.0493   -0.0761 C.ar    1  UNL1        0.0024
     14 C           3.5579   -0.2018    1.2003 C.ar    1  UNL1       -0.0493
     15 C           4.1179   -1.2226    1.9730 C.ar    1  UNL1       -0.0215
     16 C           5.1381   -2.0066    1.4755 C.ar    1  UNL1        0.1161
     17 N           5.7086   -3.0507    2.2700 N.pl3   1  UNL1       -0.3431
     18 N           5.5650   -1.7456    0.2243 N.ar    1  UNL1       -0.2401
     19 C           5.0369   -0.7634   -0.5394 C.ar    1  UNL1        0.0374
     20 C           2.1313    1.3259   -1.1571 C.ar    1  UNL1        0.0270
     21 C           1.0072    0.6884   -0.6737 C.ar    1  UNL1       -0.0413
     22 C          -2.6091    0.4655   -1.3696 C.ar    1  UNL1       -0.0083
     23 C          -3.7846   -0.1299   -0.9371 C.ar    1  UNL1        0.1657
     24 O          -4.9232   -0.1592   -1.7410 O.3     1  UNL1       -0.4913
     25 C          -4.8649    0.4352   -3.0242 C.3     1  UNL1        0.0790
     26 C          -3.8453   -0.7092    0.3106 C.ar    1  UNL1        0.2035
     27 O          -4.9968   -1.3112    0.7763 O.3     1  UNL1       -0.4885
     28 C          -6.0067   -0.6411    1.4991 C.3     1  UNL1        0.0791
     29 H          -0.7704   -1.7093    2.7108 H       1  UNL1        0.0660
     30 H          -1.8401   -1.7885    4.1460 H       1  UNL1        0.0660
     31 H          -1.4722   -0.1663    3.4388 H       1  UNL1        0.0660
     32 H          -0.6576   -0.0508    1.2728 H       1  UNL1        0.0661
     33 H          -1.2983    2.5423   -2.2226 H       1  UNL1        0.0836
     34 H           3.5432    3.6026   -2.9542 H       1  UNL1        0.1668
     35 H           5.2482    2.0782   -1.6875 H       1  UNL1        0.0814
     36 H           2.7637    0.4177    1.5817 H       1  UNL1        0.0625
     37 H           3.7594   -1.4060    2.9604 H       1  UNL1        0.0652
     38 H           6.7129   -3.2957    2.1214 H       1  UNL1        0.1437
     39 H           5.1798   -3.5752    2.9829 H       1  UNL1        0.1437
     40 H           5.4224   -0.5986   -1.5437 H       1  UNL1        0.0836
     41 H           1.0777   -0.1618    0.0077 H       1  UNL1        0.0631
     42 H          -2.5592    0.9240   -2.3554 H       1  UNL1        0.0661
     43 H          -4.8343    1.5406   -2.9256 H       1  UNL1        0.0660
     44 H          -3.9620    0.0252   -3.5345 H       1  UNL1        0.0660
     45 H          -5.8042    0.1955   -3.5813 H       1  UNL1        0.0660
     46 H          -6.1470    0.4051    1.1314 H       1  UNL1        0.0660
     47 H          -5.6975   -0.6247    2.5673 H       1  UNL1        0.0660
     48 H          -6.9827   -1.1693    1.3519 H       1  UNL1        0.0660
@<TRIPOS>BOND
     1     1     2    1
     2     2     3    1
     3     3     4   ar
     4     4     5   ar
     5     5     6    1
     6     6     7   ar
     7     7     8   ar
     8     8     9   ar
     9     9    10   ar
    10    10    11   ar
    11    11    12   ar
    12    12    13    1
    13    13    14   ar
    14    14    15   ar
    15    15    16   ar
    16    16    17    1
    17    16    18   ar
    18    18    19   ar
    19    12    20   ar
    20    20    21   ar
    21     5    22   ar
    22    22    23   ar
    23    23    24    1
    24    24    25    1
    25    23    26   ar
    26    26    27    1
    27    27    28    1
    28    26     3   ar
    29    21     6   ar
    30    20     9   ar
    31    19    13   ar
    32     1    29    1
    33     1    30    1
    34     1    31    1
    35     4    32    1
    36     7    33    1
    37    10    34    1
    38    11    35    1
    39    14    36    1
    40    15    37    1
    41    17    38    1
    42    17    39    1
    43    19    40    1
    44    21    41    1
    45    22    42    1
    46    25    43    1
    47    25    44    1
    48    25    45    1
    49    28    46    1
    50    28    47    1
    51    28    48    1
