@<TRIPOS>MOLECULE
*****
 31 33 0 0 0
SMALL
GASTEIGER

@<TRIPOS>ATOM
      1 O           6.8753    0.0313   -0.2737 O.3     1  UNL1       -0.5068
      2 C           5.5062   -0.2339   -0.2146 C.ar    1  UNL1        0.1170
      3 C           4.9884   -1.3117   -0.9196 C.ar    1  UNL1       -0.0184
      4 C           3.6396   -1.5331   -0.8321 C.ar    1  UNL1       -0.0370
      5 C           2.7765   -0.7353   -0.0769 C.ar    1  UNL1        0.0330
      6 N           1.4312   -1.1128   -0.0835 N.pl3   1  UNL1       -0.2937
      7 C           0.3576   -0.2399    0.1267 C.ar    1  UNL1        0.1629
      8 N          -0.9025   -0.3454    0.2355 N.ar    1  UNL1       -0.2247
      9 C          -1.7485    0.5942    0.4076 C.ar    1  UNL1        0.0802
     10 C          -3.2141    0.3507    0.5211 C.ar    1  UNL1        0.0010
     11 C          -3.7557   -0.9097    0.4476 C.ar    1  UNL1       -0.0512
     12 C          -5.1067   -1.1515    0.5493 C.ar    1  UNL1       -0.0428
     13 C          -5.9564   -0.1005    0.7316 C.ar    1  UNL1        0.0410
     14 CL         -7.6747   -0.4297    0.8583 Cl      1  UNL1       -0.0835
     15 C          -5.4427    1.1760    0.8094 C.ar    1  UNL1       -0.0428
     16 C          -4.0786    1.3963    0.7043 C.ar    1  UNL1       -0.0512
     17 C          -1.2560    1.8798    0.4870 C.ar    1  UNL1        0.0049
     18 S           0.5458    1.5985    0.2891 S.2     1  UNL1       -0.0599
     19 C           3.3378    0.3112    0.5973 C.ar    1  UNL1       -0.0370
     20 C           4.7050    0.5855    0.5453 C.ar    1  UNL1       -0.0184
     21 H           7.2399    0.9382   -0.0087 H       1  UNL1        0.2921
     22 H           5.6524   -1.9445   -1.5147 H       1  UNL1        0.0655
     23 H           3.2540   -2.3790   -1.3891 H       1  UNL1        0.0637
     24 H           1.1582   -2.1255   -0.2553 H       1  UNL1        0.1541
     25 H          -3.1020   -1.7558    0.3039 H       1  UNL1        0.0625
     26 H          -5.5219   -2.1636    0.4882 H       1  UNL1        0.0632
     27 H          -6.1303    2.0193    0.9558 H       1  UNL1        0.0632
     28 H          -3.7158    2.4212    0.7714 H       1  UNL1        0.0625
     29 H          -1.7093    2.8119    0.6213 H       1  UNL1        0.0716
     30 H           2.7146    0.9444    1.2019 H       1  UNL1        0.0637
     31 H           5.1325    1.4136    1.0815 H       1  UNL1        0.0655
@<TRIPOS>BOND
     1     1     2    1
     2     2     3   ar
     3     3     4   ar
     4     4     5   ar
     5     5     6    1
     6     6     7    1
     7     7     8   ar
     8     8     9   ar
     9     9    10    1
    10    10    11   ar
    11    11    12   ar
    12    12    13   ar
    13    13    14    1
    14    13    15   ar
    15    15    16   ar
    16     9    17   ar
    17    17    18   ar
    18     5    19   ar
    19    19    20   ar
    20    20     2   ar
    21    18     7   ar
    22    16    10   ar
    23     1    21    1
    24     3    22    1
    25     4    23    1
    26     6    24    1
    27    11    25    1
    28    12    26    1
    29    15    27    1
    30    16    28    1
    31    17    29    1
    32    19    30    1
    33    20    31    1
