@<TRIPOS>MOLECULE
*****
 45 47 0 0 0
SMALL
GASTEIGER

@<TRIPOS>ATOM
      1 C           6.7851   -1.5570   -0.1303 C.3     1  UNL1        0.0789
      2 O           6.7538   -0.2594    0.4280 O.3     1  UNL1       -0.4922
      3 C           5.6764    0.5764    0.1665 C.ar    1  UNL1        0.1569
      4 C           4.6219    0.1836   -0.6276 C.ar    1  UNL1        0.0041
      5 C           3.5461    0.9935   -0.8998 C.ar    1  UNL1        0.0370
      6 N           2.4491    0.6122   -1.7136 N.am    1  UNL1       -0.2850
      7 C           1.2865   -0.0229   -1.1934 C.2     1  UNL1        0.2245
      8 O           1.2051   -0.2661    0.0324 O.2     1  UNL1       -0.2750
      9 C           0.1641   -0.4005   -2.1009 C.3     1  UNL1        0.0824
     10 C          -0.9143   -1.0397   -1.3172 C.ar    1  UNL1        0.1206
     11 N          -1.8891   -0.2690   -0.7931 N.ar    1  UNL1       -0.2186
     12 C          -2.9050   -0.7864   -0.0663 C.ar    1  UNL1        0.1285
     13 N          -3.9402    0.0049    0.4935 N.pl3   1  UNL1       -0.3106
     14 C          -4.0126    1.4384    0.3290 C.3     1  UNL1        0.0370
     15 C          -5.5074    1.7665    0.2575 C.3     1  UNL1        0.0634
     16 O          -6.1726    1.4756    1.4202 O.3     1  UNL1       -0.3767
     17 C          -5.7995    0.3233    2.0590 C.3     1  UNL1        0.0634
     18 C          -4.9720   -0.6285    1.2617 C.3     1  UNL1        0.0370
     19 C          -2.8813   -2.1547    0.1055 C.ar    1  UNL1        0.0427
     20 C          -1.8787   -2.9430   -0.4343 C.ar    1  UNL1        0.2533
     21 O          -1.8577   -4.1891   -0.2774 O.2     1  UNL1       -0.2677
     22 N          -0.8886   -2.3865   -1.1497 N.ar    1  UNL1       -0.3104
     23 C           3.5457    2.2548   -0.3396 C.ar    1  UNL1       -0.0375
     24 C           4.5882    2.7029    0.4720 C.ar    1  UNL1       -0.0211
     25 C           5.6550    1.8514    0.7204 C.ar    1  UNL1        0.1649
     26 F           6.6919    2.2450    1.5044 F       1  UNL1       -0.2017
     27 H           6.9977   -1.4752   -1.2262 H       1  UNL1        0.0660
     28 H           7.6874   -2.0633    0.3090 H       1  UNL1        0.0660
     29 H           5.8672   -2.1358    0.0542 H       1  UNL1        0.0660
     30 H           4.6553   -0.8094   -1.0493 H       1  UNL1        0.0674
     31 H           2.4450    0.7854   -2.7620 H       1  UNL1        0.1548
     32 H          -0.2208    0.4934   -2.6391 H       1  UNL1        0.0438
     33 H           0.5327   -1.1014   -2.8991 H       1  UNL1        0.0438
     34 H          -3.6161    1.9984    1.2000 H       1  UNL1        0.0487
     35 H          -3.5909    1.7865   -0.6386 H       1  UNL1        0.0487
     36 H          -5.6440    2.8660    0.0640 H       1  UNL1        0.0575
     37 H          -5.9549    1.2632   -0.6241 H       1  UNL1        0.0575
     38 H          -6.6919   -0.2533    2.4347 H       1  UNL1        0.0575
     39 H          -5.2061    0.6252    2.9652 H       1  UNL1        0.0575
     40 H          -4.4658   -1.3106    2.0069 H       1  UNL1        0.0487
     41 H          -5.6399   -1.2257    0.5782 H       1  UNL1        0.0487
     42 H          -3.6670   -2.6298    0.6774 H       1  UNL1        0.0706
     43 H          -0.1110   -2.9487   -1.5750 H       1  UNL1        0.1700
     44 H           2.7152    2.9221   -0.5309 H       1  UNL1        0.0637
     45 H           4.5580    3.6874    0.8918 H       1  UNL1        0.0648
@<TRIPOS>BOND
     1     1     2    1
     2     2     3    1
     3     3     4   ar
     4     4     5   ar
     5     5     6    1
     6     6     7   am
     7     7     8    2
     8     7     9    1
     9     9    10    1
    10    10    11   ar
    11    11    12   ar
    12    12    13    1
    13    13    14    1
    14    14    15    1
    15    15    16    1
    16    16    17    1
    17    17    18    1
    18    12    19   ar
    19    19    20   ar
    20    20    21    2
    21    20    22   ar
    22     5    23   ar
    23    23    24   ar
    24    24    25   ar
    25    25    26    1
    26    25     3   ar
    27    22    10   ar
    28    18    13    1
    29     1    27    1
    30     1    28    1
    31     1    29    1
    32     4    30    1
    33     6    31    1
    34     9    32    1
    35     9    33    1
    36    14    34    1
    37    14    35    1
    38    15    36    1
    39    15    37    1
    40    17    38    1
    41    17    39    1
    42    18    40    1
    43    18    41    1
    44    19    42    1
    45    22    43    1
    46    23    44    1
    47    24    45    1
