
     RDKit          3D

 73 78  0  0  0  0  0  0  0  0999 V2000
   -3.0823    7.1259    2.4259 C   0  0  0  0  0  0  0  0  0  0  0  0
   -2.3478    5.9282    2.2421 O   0  0  0  0  0  0  0  0  0  0  0  0
   -2.2124    5.3392    1.0009 C   0  0  0  0  0  0  0  0  0  0  0  0
   -1.4824    4.1762    0.9068 C   0  0  0  0  0  0  0  0  0  0  0  0
   -1.3104    3.5395   -0.3044 C   0  0  0  0  0  0  0  0  0  0  0  0
   -0.5556    2.3392   -0.4047 N   0  0  0  0  0  0  0  0  0  0  0  0
    0.8650    2.2209   -0.6530 C   0  0  0  0  0  0  0  0  0  0  0  0
    1.5127    3.1093   -1.2592 O   0  0  0  0  0  0  0  0  0  0  0  0
    1.3252    0.9931   -0.1108 N   0  0  0  0  0  0  0  0  0  0  0  0
    2.6519    0.4578   -0.1164 C   0  0  0  0  0  0  0  0  0  0  0  0
    3.7174    1.1392   -0.6625 C   0  0  0  0  0  0  0  0  0  0  0  0
    5.0150    0.6101   -0.6699 C   0  0  0  0  0  0  0  0  0  0  0  0
    5.2801   -0.6189   -0.1289 C   0  0  0  0  0  0  0  0  0  0  0  0
    6.6089   -1.2181   -0.1085 C   0  0  0  0  0  0  0  0  0  0  0  0
    7.7370   -0.4534   -0.0132 C   0  0  0  0  0  0  0  0  0  0  0  0
    8.9877   -1.0372    0.0055 C   0  0  0  0  0  0  0  0  0  0  0  0
    9.1027   -2.4182   -0.0733 C   0  0  0  0  0  0  0  0  0  0  0  0
    7.9761   -3.2268   -0.1712 C   0  0  0  0  0  0  0  0  0  0  0  0
    8.1015   -4.6761   -0.2538 C   0  0  0  0  0  0  0  0  0  0  0  0
    9.2434   -5.1948   -0.2354 O   0  0  0  0  0  0  0  0  0  0  0  0
    7.0037   -5.4987   -0.3517 O   0  0  0  0  0  0  0  0  0  0  0  0
    6.7557   -2.5871   -0.1853 C   0  0  0  0  0  0  0  0  0  0  0  0
    4.2179   -1.3013    0.4168 C   0  0  0  0  0  0  0  0  0  0  0  0
    2.9318   -0.7802    0.4257 C   0  0  0  0  0  0  0  0  0  0  0  0
    0.1757    0.3834    0.4606 C   0  0  0  0  0  0  0  0  0  0  0  0
    0.0895   -0.4540    1.3867 O   0  0  0  0  0  0  0  0  0  0  0  0
   -0.9922    0.9595   -0.2915 C   0  0  0  0  0  0  0  0  0  0  0  0
   -1.0970    0.2547   -1.6035 C   0  0  0  0  0  0  0  0  0  0  0  0
   -2.5601    0.0328   -1.9267 C   0  0  0  0  0  0  0  0  0  0  0  0
   -3.0577   -0.9310   -0.9642 N   0  0  0  0  0  0  0  0  0  0  0  0
   -4.4324   -1.3002   -1.2760 C   0  0  0  0  0  0  0  0  0  0  0  0
   -4.8863   -2.2999   -0.2826 C   0  0  0  0  0  0  0  0  0  0  0  0
   -4.0735   -2.7499    0.7034 N   0  0  0  0  0  0  0  0  0  0  0  0
   -4.4822   -3.6459    1.5882 C   0  0  0  0  0  0  0  0  0  0  0  0
   -5.7569   -4.1534    1.5344 C   0  0  0  0  0  0  0  0  0  0  0  0
   -6.6031   -3.7133    0.5429 C   0  0  0  0  0  0  0  0  0  0  0  0
   -6.1660   -2.7842   -0.3674 C   0  0  0  0  0  0  0  0  0  0  0  0
   -7.0586   -2.3023   -1.4347 C   0  0  0  0  0  0  0  0  0  0  0  0
   -2.9342   -0.4621    0.3974 C   0  0  0  0  0  0  0  0  0  0  0  0
   -2.2607    0.8805    0.5221 C   0  0  0  0  0  0  0  0  0  0  0  0
   -1.8915    4.1126   -1.3857 N   0  0  0  0  0  0  0  0  0  0  0  0
   -2.6083    5.2518   -1.3025 C   0  0  0  0  0  0  0  0  0  0  0  0
   -2.7678    5.8631   -0.1106 N   0  0  0  0  0  0  0  0  0  0  0  0
   -2.5605    7.7021    3.2087 H   0  0  0  0  0  0  0  0  0  0  0  0
   -4.1055    6.8161    2.7480 H   0  0  0  0  0  0  0  0  0  0  0  0
   -3.1420    7.6254    1.4513 H   0  0  0  0  0  0  0  0  0  0  0  0
   -1.0351    3.7586    1.8160 H   0  0  0  0  0  0  0  0  0  0  0  0
    3.5400    2.1203   -1.1008 H   0  0  0  0  0  0  0  0  0  0  0  0
    5.7976    1.1817   -1.1057 H   0  0  0  0  0  0  0  0  0  0  0  0
    7.6727    0.6054    0.0482 H   0  0  0  0  0  0  0  0  0  0  0  0
    9.9026   -0.4640    0.0799 H   0  0  0  0  0  0  0  0  0  0  0  0
   10.0677   -2.8767   -0.0591 H   0  0  0  0  0  0  0  0  0  0  0  0
    7.0259   -6.4225   -0.7717 H   0  0  0  0  0  0  0  0  0  0  0  0
    5.8751   -3.2399   -0.2630 H   0  0  0  0  0  0  0  0  0  0  0  0
    4.3715   -2.2935    0.8655 H   0  0  0  0  0  0  0  0  0  0  0  0
    2.1078   -1.3548    0.8678 H   0  0  0  0  0  0  0  0  0  0  0  0
   -0.6064   -0.7350   -1.5608 H   0  0  0  0  0  0  0  0  0  0  0  0
   -0.6188    0.8506   -2.3915 H   0  0  0  0  0  0  0  0  0  0  0  0
   -2.6070   -0.4506   -2.9239 H   0  0  0  0  0  0  0  0  0  0  0  0
   -3.1345    0.9690   -1.9435 H   0  0  0  0  0  0  0  0  0  0  0  0
   -5.1041   -0.3968   -1.2484 H   0  0  0  0  0  0  0  0  0  0  0  0
   -4.4407   -1.6830   -2.3159 H   0  0  0  0  0  0  0  0  0  0  0  0
   -3.8068   -3.9768    2.3547 H   0  0  0  0  0  0  0  0  0  0  0  0
   -6.1063   -4.9007    2.2677 H   0  0  0  0  0  0  0  0  0  0  0  0
   -7.6087   -4.1217    0.5102 H   0  0  0  0  0  0  0  0  0  0  0  0
   -6.5795   -1.5714   -2.0940 H   0  0  0  0  0  0  0  0  0  0  0  0
   -7.4962   -3.1410   -2.0372 H   0  0  0  0  0  0  0  0  0  0  0  0
   -7.9002   -1.7602   -0.9299 H   0  0  0  0  0  0  0  0  0  0  0  0
   -2.2929   -1.1883    0.9515 H   0  0  0  0  0  0  0  0  0  0  0  0
   -3.9073   -0.3882    0.9228 H   0  0  0  0  0  0  0  0  0  0  0  0
   -1.9588    0.9873    1.5882 H   0  0  0  0  0  0  0  0  0  0  0  0
   -2.9551    1.7223    0.3104 H   0  0  0  0  0  0  0  0  0  0  0  0
   -3.0740    5.7159   -2.1534 H   0  0  0  0  0  0  0  0  0  0  0  0
  1  2  1  0
  2  3  1  0
  3  4  2  0
  4  5  1  0
  5  6  1  0
  6  7  1  0
  7  8  2  0
  7  9  1  0
  9 10  1  0
 10 11  2  0
 11 12  1  0
 12 13  2  0
 13 14  1  0
 14 15  2  0
 15 16  1  0
 16 17  2  0
 17 18  1  0
 18 19  1  0
 19 20  2  0
 19 21  1  0
 18 22  2  0
 13 23  1  0
 23 24  2  0
  9 25  1  0
 25 26  2  0
 25 27  1  0
 27 28  1  0
 28 29  1  0
 29 30  1  0
 30 31  1  0
 31 32  1  0
 32 33  2  0
 33 34  1  0
 34 35  2  0
 35 36  1  0
 36 37  2  0
 37 38  1  0
 30 39  1  0
 39 40  1  0
  5 41  2  0
 41 42  1  0
 42 43  2  0
 43  3  1  0
 27  6  1  0
 37 32  1  0
 24 10  1  0
 40 27  1  0
 22 14  1  0
  1 44  1  0
  1 45  1  0
  1 46  1  0
  4 47  1  0
 11 48  1  0
 12 49  1  0
 15 50  1  0
 16 51  1  0
 17 52  1  0
 21 53  1  0
 22 54  1  0
 23 55  1  0
 24 56  1  0
 28 57  1  0
 28 58  1  0
 29 59  1  0
 29 60  1  0
 31 61  1  0
 31 62  1  0
 34 63  1  0
 35 64  1  0
 36 65  1  0
 38 66  1  0
 38 67  1  0
 38 68  1  0
 39 69  1  0
 39 70  1  0
 40 71  1  0
 40 72  1  0
 42 73  1  0
M  END
$$$$
