@<TRIPOS>MOLECULE
*****
 73 78 0 0 0
SMALL
GASTEIGER

@<TRIPOS>ATOM
      1 C          -3.0823    7.1259    2.4259 C.3     1  UNL1        0.0804
      2 O          -2.3478    5.9282    2.2421 O.3     1  UNL1       -0.4795
      3 C          -2.2124    5.3392    1.0009 C.ar    1  UNL1        0.2191
      4 C          -1.4824    4.1762    0.9068 C.ar    1  UNL1        0.0404
      5 C          -1.3104    3.5395   -0.3044 C.ar    1  UNL1        0.1364
      6 N          -0.5556    2.3392   -0.4047 N.am    1  UNL1       -0.2240
      7 C           0.8650    2.2209   -0.6530 C.2     1  UNL1        0.3219
      8 O           1.5127    3.1093   -1.2592 O.2     1  UNL1       -0.2512
      9 N           1.3252    0.9931   -0.1108 N.am    1  UNL1       -0.1920
     10 C           2.6519    0.4578   -0.1164 C.ar    1  UNL1        0.0455
     11 C           3.7174    1.1392   -0.6625 C.ar    1  UNL1       -0.0392
     12 C           5.0150    0.6101   -0.6699 C.ar    1  UNL1       -0.0523
     13 C           5.2801   -0.6189   -0.1289 C.ar    1  UNL1       -0.0177
     14 C           6.6089   -1.2181   -0.1085 C.ar    1  UNL1       -0.0171
     15 C           7.7370   -0.4534   -0.0132 C.ar    1  UNL1       -0.0540
     16 C           8.9877   -1.0372    0.0055 C.ar    1  UNL1       -0.0604
     17 C           9.1027   -2.4182   -0.0733 C.ar    1  UNL1       -0.0477
     18 C           7.9761   -3.2268   -0.1712 C.ar    1  UNL1        0.0594
     19 C           8.1015   -4.6761   -0.2538 C.2     1  UNL1        0.3368
     20 O           9.2434   -5.1948   -0.2354 O.2     1  UNL1       -0.2451
     21 O           7.0037   -5.4987   -0.3517 O.3     1  UNL1       -0.4771
     22 C           6.7557   -2.5871   -0.1853 C.ar    1  UNL1       -0.0400
     23 C           4.2179   -1.3013    0.4168 C.ar    1  UNL1       -0.0523
     24 C           2.9318   -0.7802    0.4257 C.ar    1  UNL1       -0.0392
     25 C           0.1757    0.3834    0.4606 C.2     1  UNL1        0.2516
     26 O           0.0895   -0.4540    1.3867 O.2     1  UNL1       -0.2724
     27 C          -0.9922    0.9595   -0.2915 C.3     1  UNL1        0.1240
     28 C          -1.0970    0.2547   -1.6035 C.3     1  UNL1       -0.0095
     29 C          -2.5601    0.0328   -1.9267 C.3     1  UNL1        0.0017
     30 N          -3.0577   -0.9310   -0.9642 N.3     1  UNL1       -0.2965
     31 C          -4.4324   -1.3002   -1.2760 C.3     1  UNL1        0.0415
     32 C          -4.8863   -2.2999   -0.2826 C.ar    1  UNL1        0.0581
     33 N          -4.0735   -2.7499    0.7034 N.ar    1  UNL1       -0.2583
     34 C          -4.4822   -3.6459    1.5882 C.ar    1  UNL1        0.0279
     35 C          -5.7569   -4.1534    1.5344 C.ar    1  UNL1       -0.0433
     36 C          -6.6031   -3.7133    0.5429 C.ar    1  UNL1       -0.0557
     37 C          -6.1660   -2.7842   -0.3674 C.ar    1  UNL1       -0.0279
     38 C          -7.0586   -2.3023   -1.4347 C.3     1  UNL1       -0.0380
     39 C          -2.9342   -0.4621    0.3974 C.3     1  UNL1        0.0017
     40 C          -2.2607    0.8805    0.5221 C.3     1  UNL1       -0.0095
     41 N          -1.8915    4.1126   -1.3857 N.ar    1  UNL1       -0.2200
     42 C          -2.6083    5.2518   -1.3025 C.ar    1  UNL1        0.1219
     43 N          -2.7678    5.8631   -0.1106 N.ar    1  UNL1       -0.2013
     44 H          -2.5605    7.7021    3.2087 H       1  UNL1        0.0660
     45 H          -4.1055    6.8161    2.7480 H       1  UNL1        0.0660
     46 H          -3.1420    7.6254    1.4513 H       1  UNL1        0.0660
     47 H          -1.0351    3.7586    1.8160 H       1  UNL1        0.0705
     48 H           3.5400    2.1203   -1.1008 H       1  UNL1        0.0636
     49 H           5.7976    1.1817   -1.1057 H       1  UNL1        0.0624
     50 H           7.6727    0.6054    0.0482 H       1  UNL1        0.0624
     51 H           9.9026   -0.4640    0.0799 H       1  UNL1        0.0618
     52 H          10.0677   -2.8767   -0.0591 H       1  UNL1        0.0626
     53 H           7.0259   -6.4225   -0.7717 H       1  UNL1        0.2954
     54 H           5.8751   -3.2399   -0.2630 H       1  UNL1        0.0632
     55 H           4.3715   -2.2935    0.8655 H       1  UNL1        0.0624
     56 H           2.1078   -1.3548    0.8678 H       1  UNL1        0.0636
     57 H          -0.6064   -0.7350   -1.5608 H       1  UNL1        0.0303
     58 H          -0.6188    0.8506   -2.3915 H       1  UNL1        0.0303
     59 H          -2.6070   -0.4506   -2.9239 H       1  UNL1        0.0427
     60 H          -3.1345    0.9690   -1.9435 H       1  UNL1        0.0427
     61 H          -5.1041   -0.3968   -1.2484 H       1  UNL1        0.0491
     62 H          -4.4407   -1.6830   -2.3159 H       1  UNL1        0.0491
     63 H          -3.8068   -3.9768    2.3547 H       1  UNL1        0.0829
     64 H          -6.1063   -4.9007    2.2677 H       1  UNL1        0.0633
     65 H          -7.6087   -4.1217    0.5102 H       1  UNL1        0.0621
     66 H          -6.5795   -1.5714   -2.0940 H       1  UNL1        0.0278
     67 H          -7.4962   -3.1410   -2.0372 H       1  UNL1        0.0278
     68 H          -7.9002   -1.7602   -0.9299 H       1  UNL1        0.0278
     69 H          -2.2929   -1.1883    0.9515 H       1  UNL1        0.0427
     70 H          -3.9073   -0.3882    0.9228 H       1  UNL1        0.0427
     71 H          -1.9588    0.9873    1.5882 H       1  UNL1        0.0303
     72 H          -2.9551    1.7223    0.3104 H       1  UNL1        0.0303
     73 H          -3.0740    5.7159   -2.1534 H       1  UNL1        0.1049
@<TRIPOS>BOND
     1     1     2    1
     2     2     3    1
     3     3     4   ar
     4     4     5   ar
     5     5     6    1
     6     6     7   am
     7     7     8    2
     8     7     9   am
     9     9    10    1
    10    10    11   ar
    11    11    12   ar
    12    12    13   ar
    13    13    14    1
    14    14    15   ar
    15    15    16   ar
    16    16    17   ar
    17    17    18   ar
    18    18    19    1
    19    19    20    2
    20    19    21    1
    21    18    22   ar
    22    13    23   ar
    23    23    24   ar
    24     9    25   am
    25    25    26    2
    26    25    27    1
    27    27    28    1
    28    28    29    1
    29    29    30    1
    30    30    31    1
    31    31    32    1
    32    32    33   ar
    33    33    34   ar
    34    34    35   ar
    35    35    36   ar
    36    36    37   ar
    37    37    38    1
    38    30    39    1
    39    39    40    1
    40     5    41   ar
    41    41    42   ar
    42    42    43   ar
    43    43     3   ar
    44    27     6    1
    45    37    32   ar
    46    24    10   ar
    47    40    27    1
    48    22    14   ar
    49     1    44    1
    50     1    45    1
    51     1    46    1
    52     4    47    1
    53    11    48    1
    54    12    49    1
    55    15    50    1
    56    16    51    1
    57    17    52    1
    58    21    53    1
    59    22    54    1
    60    23    55    1
    61    24    56    1
    62    28    57    1
    63    28    58    1
    64    29    59    1
    65    29    60    1
    66    31    61    1
    67    31    62    1
    68    34    63    1
    69    35    64    1
    70    36    65    1
    71    38    66    1
    72    38    67    1
    73    38    68    1
    74    39    69    1
    75    39    70    1
    76    40    71    1
    77    40    72    1
    78    42    73    1
