@<TRIPOS>MOLECULE
*****
 34 35 0 0 0
SMALL
GASTEIGER

@<TRIPOS>ATOM
      1 N          -6.4466    0.2725   -0.4874 N.3     1  UNL1       -0.2035
      2 S          -5.3529   -1.0022   -0.8814 S.O2    1  UNL1        0.0559
      3 O          -5.6814   -2.2005   -0.0335 O.2     1  UNL1       -0.1533
      4 O          -5.4440   -1.3253   -2.3357 O.2     1  UNL1       -0.1533
      5 C          -3.7067   -0.5299   -0.4956 C.ar    1  UNL1        0.1050
      6 C          -2.9381    0.1019   -1.4418 C.ar    1  UNL1       -0.0346
      7 C          -1.6252    0.4926   -1.1727 C.ar    1  UNL1       -0.0478
      8 C          -1.0599    0.2530    0.0605 C.ar    1  UNL1        0.0368
      9 C          -1.8656   -0.3827    0.9799 C.ar    1  UNL1       -0.0478
     10 C          -3.1466   -0.7715    0.7377 C.ar    1  UNL1       -0.0346
     11 C           0.3155    0.6837    0.2834 C.2     1  UNL1        0.2443
     12 O           0.8895    1.2521   -0.6807 O.2     1  UNL1       -0.2702
     13 N           1.0394    0.5084    1.4936 N.am    1  UNL1       -0.3071
     14 C           2.3973    0.9445    1.6842 C.3     1  UNL1        0.0399
     15 C           3.3693    0.3430    0.7661 C.ar    1  UNL1        0.0050
     16 C           3.8821   -0.9118    0.8103 C.ar    1  UNL1        0.1308
     17 F           3.4568   -1.7102    1.8107 F       1  UNL1       -0.2051
     18 C           4.7948   -1.3490   -0.1235 C.ar    1  UNL1        0.0091
     19 C           5.2493   -0.5453   -1.1643 C.ar    1  UNL1        0.1261
     20 F           6.1364   -0.9084   -2.1072 F       1  UNL1       -0.2054
     21 C           4.7347    0.7396   -1.2230 C.ar    1  UNL1       -0.0260
     22 C           3.8190    1.1609   -0.2765 C.ar    1  UNL1       -0.0516
     23 H          -6.5203    0.3937    0.5439 H       1  UNL1        0.1442
     24 H          -5.9926    1.1578   -0.8400 H       1  UNL1        0.1442
     25 H          -3.3949    0.2841   -2.4066 H       1  UNL1        0.0637
     26 H          -1.1327    0.9737   -1.9888 H       1  UNL1        0.0626
     27 H          -1.4390   -0.5792    1.9535 H       1  UNL1        0.0626
     28 H          -3.7441   -1.2685    1.4898 H       1  UNL1        0.0637
     29 H           0.4836    0.0265    2.2419 H       1  UNL1        0.1493
     30 H           2.4925    2.0553    1.7175 H       1  UNL1        0.0513
     31 H           2.6991    0.6211    2.7174 H       1  UNL1        0.0513
     32 H           5.2103   -2.3572   -0.0926 H       1  UNL1        0.0675
     33 H           5.0561    1.4098   -2.0165 H       1  UNL1        0.0646
     34 H           3.4649    2.1675   -0.3854 H       1  UNL1        0.0623
@<TRIPOS>BOND
     1     1     2    1
     2     2     3    2
     3     2     4    2
     4     2     5    1
     5     5     6   ar
     6     6     7   ar
     7     7     8   ar
     8     8     9   ar
     9     9    10   ar
    10     8    11    1
    11    11    12    2
    12    11    13   am
    13    13    14    1
    14    14    15    1
    15    15    16   ar
    16    16    17    1
    17    16    18   ar
    18    18    19   ar
    19    19    20    1
    20    19    21   ar
    21    21    22   ar
    22    10     5   ar
    23    22    15   ar
    24     1    23    1
    25     1    24    1
    26     6    25    1
    27     7    26    1
    28     9    27    1
    29    10    28    1
    30    13    29    1
    31    14    30    1
    32    14    31    1
    33    18    32    1
    34    21    33    1
    35    22    34    1
