@<TRIPOS>MOLECULE
*****
 36 37 0 0 0
SMALL
GASTEIGER

@<TRIPOS>ATOM
      1 O           6.0934    0.4548    0.8305 O.3     1  UNL1       -0.3927
      2 C           5.2431    0.9713   -0.1178 C.3     1  UNL1        0.0676
      3 C           4.0497    0.0378   -0.3668 C.3     1  UNL1        0.0730
      4 O           3.2154    0.5771   -1.3188 O.3     1  UNL1       -0.3569
      5 C           2.1098   -0.1515   -1.6502 C.3     1  UNL1        0.1283
      6 N           1.2257   -0.4116   -0.5620 N.ar    1  UNL1       -0.2765
      7 C           0.2569    0.4757   -0.2808 C.ar    1  UNL1        0.0202
      8 C          -0.6285    0.2627    0.7826 C.ar    1  UNL1        0.0376
      9 C          -1.6613    1.3279    0.9872 C.3     1  UNL1        0.0041
     10 C          -2.9967    0.9464    0.5121 C.ar    1  UNL1       -0.0428
     11 C          -3.2360    1.2476   -0.8286 C.ar    1  UNL1       -0.0583
     12 C          -4.4531    0.9487   -1.4193 C.ar    1  UNL1       -0.0615
     13 C          -5.4774    0.3409   -0.7039 C.ar    1  UNL1       -0.0617
     14 C          -5.2326    0.0458    0.6238 C.ar    1  UNL1       -0.0615
     15 C          -4.0328    0.3432    1.1966 C.ar    1  UNL1       -0.0583
     16 C          -0.5274   -0.8645    1.5681 C.ar    1  UNL1        0.2574
     17 O          -1.3355   -1.0267    2.5138 O.2     1  UNL1       -0.2674
     18 N           0.4555   -1.7577    1.2772 N.ar    1  UNL1       -0.2746
     19 C           1.2693   -1.4883    0.2415 C.ar    1  UNL1        0.3311
     20 O           2.1627   -2.3673    0.0279 O.2     1  UNL1       -0.2464
     21 H           6.8701   -0.0057    0.4341 H       1  UNL1        0.2095
     22 H           4.8021    1.9389    0.1883 H       1  UNL1        0.0580
     23 H           5.6983    1.1183   -1.1186 H       1  UNL1        0.0580
     24 H           4.3901   -0.9529   -0.7269 H       1  UNL1        0.0583
     25 H           3.5322   -0.0839    0.6209 H       1  UNL1        0.0583
     26 H           1.5505    0.4636   -2.4133 H       1  UNL1        0.0801
     27 H           2.4324   -1.0639   -2.1942 H       1  UNL1        0.0801
     28 H           0.1752    1.3688   -0.9014 H       1  UNL1        0.0816
     29 H          -1.3319    2.2895    0.5441 H       1  UNL1        0.0364
     30 H          -1.7703    1.5571    2.0875 H       1  UNL1        0.0364
     31 H          -2.5180    1.7211   -1.4911 H       1  UNL1        0.0620
     32 H          -4.6733    1.1716   -2.4689 H       1  UNL1        0.0618
     33 H          -6.4252    0.1108   -1.1743 H       1  UNL1        0.0618
     34 H          -5.9880   -0.4223    1.2192 H       1  UNL1        0.0618
     35 H          -3.8042    0.1297    2.2293 H       1  UNL1        0.0620
     36 H           0.5598   -2.6215    1.8519 H       1  UNL1        0.1734
@<TRIPOS>BOND
     1     1     2    1
     2     2     3    1
     3     3     4    1
     4     4     5    1
     5     5     6    1
     6     6     7   ar
     7     7     8   ar
     8     8     9    1
     9     9    10    1
    10    10    11   ar
    11    11    12   ar
    12    12    13   ar
    13    13    14   ar
    14    14    15   ar
    15     8    16   ar
    16    16    17    2
    17    16    18   ar
    18    18    19   ar
    19    19    20    2
    20    19     6   ar
    21    15    10   ar
    22     1    21    1
    23     2    22    1
    24     2    23    1
    25     3    24    1
    26     3    25    1
    27     5    26    1
    28     5    27    1
    29     7    28    1
    30     9    29    1
    31     9    30    1
    32    11    31    1
    33    12    32    1
    34    13    33    1
    35    14    34    1
    36    15    35    1
    37    18    36    1
