
     RDKit          3D

 59 62  0  0  0  0  0  0  0  0999 V2000
   -3.1201   -4.9360   -2.6573 C   0  0  0  0  0  0  0  0  0  0  0  0
   -3.3683   -3.9470   -1.7010 O   0  0  0  0  0  0  0  0  0  0  0  0
   -2.3951   -3.0927   -1.2021 C   0  0  0  0  0  0  0  0  0  0  0  0
   -1.0590   -3.1463   -1.6188 C   0  0  0  0  0  0  0  0  0  0  0  0
   -0.1256   -2.2784   -1.0966 C   0  0  0  0  0  0  0  0  0  0  0  0
   -0.5138   -1.3361   -0.1434 C   0  0  0  0  0  0  0  0  0  0  0  0
   -1.8271   -1.2473    0.2978 C   0  0  0  0  0  0  0  0  0  0  0  0
   -2.7090   -2.1385   -0.2586 C   0  0  0  0  0  0  0  0  0  0  0  0
   -1.9033   -0.2200    1.2500 C   0  0  0  0  0  0  0  0  0  0  0  0
   -3.0938    0.0986    1.8599 O   0  0  0  0  0  0  0  0  0  0  0  0
   -4.0189    1.0324    1.4902 C   0  0  0  0  0  0  0  0  0  0  0  0
   -4.1406    2.1977    2.1956 C   0  0  0  0  0  0  0  0  0  0  0  0
   -5.0697    3.1462    1.8262 C   0  0  0  0  0  0  0  0  0  0  0  0
   -5.8779    2.9122    0.7392 C   0  0  0  0  0  0  0  0  0  0  0  0
   -5.7973    1.7572   -0.0044 C   0  0  0  0  0  0  0  0  0  0  0  0
   -6.7032    1.5893   -1.1538 C   0  0  0  0  0  0  0  0  0  0  0  0
   -6.7926    2.7604   -1.9154 F   0  0  0  0  0  0  0  0  0  0  0  0
   -8.0019    1.3795   -0.6701 F   0  0  0  0  0  0  0  0  0  0  0  0
   -6.4010    0.5213   -1.9446 F   0  0  0  0  0  0  0  0  0  0  0  0
   -4.8489    0.8371    0.4068 C   0  0  0  0  0  0  0  0  0  0  0  0
   -0.6455    0.2949    1.3751 C   0  0  0  0  0  0  0  0  0  0  0  0
   -0.2018    1.3808    2.2731 C   0  0  0  0  0  0  0  0  0  0  0  0
   -0.9499    1.9729    3.0664 O   0  0  0  0  0  0  0  0  0  0  0  0
    1.1270    1.8008    2.2655 O   0  0  0  0  0  0  0  0  0  0  0  0
    0.1563   -0.3920    0.5310 N   0  0  0  0  0  0  0  0  0  0  0  0
    1.5554   -0.1620    0.3565 C   0  0  0  0  0  0  0  0  0  0  0  0
    2.4640   -1.0947    0.7778 C   0  0  0  0  0  0  0  0  0  0  0  0
    3.8098   -0.8490    0.5980 C   0  0  0  0  0  0  0  0  0  0  0  0
    4.2571    0.3193    0.0015 C   0  0  0  0  0  0  0  0  0  0  0  0
    5.6903    0.6239   -0.2110 C   0  0  0  0  0  0  0  0  0  0  0  0
    6.5658   -0.5200    0.3155 C   0  0  0  0  0  0  0  0  0  0  0  0
    6.0236    1.8629    0.6020 C   0  0  0  0  0  0  0  0  0  0  0  0
    5.9513    0.8693   -1.6600 C   0  0  0  0  0  0  0  0  0  0  0  0
    3.3266    1.2365   -0.4112 C   0  0  0  0  0  0  0  0  0  0  0  0
    1.9830    0.9965   -0.2343 C   0  0  0  0  0  0  0  0  0  0  0  0
   -2.1653   -5.4402   -2.4107 H   0  0  0  0  0  0  0  0  0  0  0  0
   -3.1575   -4.5768   -3.6972 H   0  0  0  0  0  0  0  0  0  0  0  0
   -3.9119   -5.7278   -2.5142 H   0  0  0  0  0  0  0  0  0  0  0  0
   -0.8254   -3.8988   -2.3593 H   0  0  0  0  0  0  0  0  0  0  0  0
    0.8982   -2.3275   -1.4228 H   0  0  0  0  0  0  0  0  0  0  0  0
   -3.7397   -2.1073    0.0713 H   0  0  0  0  0  0  0  0  0  0  0  0
   -3.5365    2.4256    3.0720 H   0  0  0  0  0  0  0  0  0  0  0  0
   -5.1712    4.0903    2.3934 H   0  0  0  0  0  0  0  0  0  0  0  0
   -6.6013    3.6876    0.4784 H   0  0  0  0  0  0  0  0  0  0  0  0
   -4.8111   -0.0618   -0.2041 H   0  0  0  0  0  0  0  0  0  0  0  0
    1.5153    2.3166    3.0645 H   0  0  0  0  0  0  0  0  0  0  0  0
    2.1345   -2.0399    1.2591 H   0  0  0  0  0  0  0  0  0  0  0  0
    4.5458   -1.5893    0.9319 H   0  0  0  0  0  0  0  0  0  0  0  0
    6.3760   -0.6606    1.3871 H   0  0  0  0  0  0  0  0  0  0  0  0
    6.2065   -1.4279   -0.2412 H   0  0  0  0  0  0  0  0  0  0  0  0
    7.6197   -0.2921    0.0879 H   0  0  0  0  0  0  0  0  0  0  0  0
    7.1158    1.9064    0.7573 H   0  0  0  0  0  0  0  0  0  0  0  0
    5.4759    1.8436    1.5617 H   0  0  0  0  0  0  0  0  0  0  0  0
    5.7414    2.7865    0.0419 H   0  0  0  0  0  0  0  0  0  0  0  0
    5.8317    1.9680   -1.8503 H   0  0  0  0  0  0  0  0  0  0  0  0
    6.9774    0.5952   -1.9715 H   0  0  0  0  0  0  0  0  0  0  0  0
    5.1860    0.3739   -2.2902 H   0  0  0  0  0  0  0  0  0  0  0  0
    3.6553    2.1584   -0.8809 H   0  0  0  0  0  0  0  0  0  0  0  0
    1.2943    1.7683   -0.5857 H   0  0  0  0  0  0  0  0  0  0  0  0
  1  2  1  0
  2  3  1  0
  3  4  2  0
  4  5  1  0
  5  6  2  0
  6  7  1  0
  7  8  2  0
  7  9  1  0
  9 10  1  0
 10 11  1  0
 11 12  2  0
 12 13  1  0
 13 14  2  0
 14 15  1  0
 15 16  1  0
 16 17  1  0
 16 18  1  0
 16 19  1  0
 15 20  2  0
  9 21  2  0
 21 22  1  0
 22 23  2  0
 22 24  1  0
 21 25  1  0
 25 26  1  0
 26 27  2  0
 27 28  1  0
 28 29  2  0
 29 30  1  0
 30 31  1  0
 30 32  1  0
 30 33  1  0
 29 34  1  0
 34 35  2  0
  8  3  1  0
 20 11  1  0
 35 26  1  0
 25  6  1  0
  1 36  1  0
  1 37  1  0
  1 38  1  0
  4 39  1  0
  5 40  1  0
  8 41  1  0
 12 42  1  0
 13 43  1  0
 14 44  1  0
 20 45  1  0
 24 46  1  0
 27 47  1  0
 28 48  1  0
 31 49  1  0
 31 50  1  0
 31 51  1  0
 32 52  1  0
 32 53  1  0
 32 54  1  0
 33 55  1  0
 33 56  1  0
 33 57  1  0
 34 58  1  0
 35 59  1  0
M  END
$$$$
