@<TRIPOS>MOLECULE
*****
 59 62 0 0 0
SMALL
GASTEIGER

@<TRIPOS>ATOM
      1 C          -3.1201   -4.9360   -2.6573 C.3     1  UNL1        0.0788
      2 O          -3.3683   -3.9470   -1.7010 O.3     1  UNL1       -0.4951
      3 C          -2.3951   -3.0927   -1.2021 C.ar    1  UNL1        0.1209
      4 C          -1.0590   -3.1463   -1.6188 C.ar    1  UNL1       -0.0180
      5 C          -0.1256   -2.2784   -1.0966 C.ar    1  UNL1       -0.0337
      6 C          -0.5138   -1.3361   -0.1434 C.ar    1  UNL1        0.0584
      7 C          -1.8271   -1.2473    0.2978 C.ar    1  UNL1        0.0468
      8 C          -2.7090   -2.1385   -0.2586 C.ar    1  UNL1       -0.0072
      9 C          -1.9033   -0.2200    1.2500 C.ar    1  UNL1        0.1684
     10 O          -3.0938    0.0986    1.8599 O.3     1  UNL1       -0.4530
     11 C          -4.0189    1.0324    1.4902 C.ar    1  UNL1        0.1291
     12 C          -4.1406    2.1977    2.1956 C.ar    1  UNL1       -0.0193
     13 C          -5.0697    3.1462    1.8262 C.ar    1  UNL1       -0.0578
     14 C          -5.8779    2.9122    0.7392 C.ar    1  UNL1       -0.0499
     15 C          -5.7973    1.7572   -0.0044 C.ar    1  UNL1        0.0583
     16 C          -6.7032    1.5893   -1.1538 C.3     1  UNL1        0.4175
     17 F          -6.7926    2.7604   -1.9154 F       1  UNL1       -0.1659
     18 F          -8.0019    1.3795   -0.6701 F       1  UNL1       -0.1659
     19 F          -6.4010    0.5213   -1.9446 F       1  UNL1       -0.1659
     20 C          -4.8489    0.8371    0.4068 C.ar    1  UNL1       -0.0077
     21 C          -0.6455    0.2949    1.3751 C.ar    1  UNL1        0.1750
     22 C          -0.2018    1.3808    2.2731 C.2     1  UNL1        0.3575
     23 O          -0.9499    1.9729    3.0664 O.2     1  UNL1       -0.2433
     24 O           1.1270    1.8008    2.2655 O.3     1  UNL1       -0.4760
     25 N           0.1563   -0.3920    0.5310 N.ar    1  UNL1       -0.3004
     26 C           1.5554   -0.1620    0.3565 C.ar    1  UNL1        0.0475
     27 C           2.4640   -1.0947    0.7778 C.ar    1  UNL1       -0.0375
     28 C           3.8098   -0.8490    0.5980 C.ar    1  UNL1       -0.0561
     29 C           4.2571    0.3193    0.0015 C.ar    1  UNL1       -0.0418
     30 C           5.6903    0.6239   -0.2110 C.3     1  UNL1       -0.0127
     31 C           6.5658   -0.5200    0.3155 C.3     1  UNL1       -0.0560
     32 C           6.0236    1.8629    0.6020 C.3     1  UNL1       -0.0560
     33 C           5.9513    0.8693   -1.6600 C.3     1  UNL1       -0.0560
     34 C           3.3266    1.2365   -0.4112 C.ar    1  UNL1       -0.0561
     35 C           1.9830    0.9965   -0.2343 C.ar    1  UNL1       -0.0375
     36 H          -2.1653   -5.4402   -2.4107 H       1  UNL1        0.0660
     37 H          -3.1575   -4.5768   -3.6972 H       1  UNL1        0.0660
     38 H          -3.9119   -5.7278   -2.5142 H       1  UNL1        0.0660
     39 H          -0.8254   -3.8988   -2.3593 H       1  UNL1        0.0655
     40 H           0.8982   -2.3275   -1.4228 H       1  UNL1        0.0640
     41 H          -3.7397   -2.1073    0.0713 H       1  UNL1        0.0662
     42 H          -3.5365    2.4256    3.0720 H       1  UNL1        0.0654
     43 H          -5.1712    4.0903    2.3934 H       1  UNL1        0.0619
     44 H          -6.6013    3.6876    0.4784 H       1  UNL1        0.0623
     45 H          -4.8111   -0.0618   -0.2041 H       1  UNL1        0.0660
     46 H           1.5153    2.3166    3.0645 H       1  UNL1        0.2955
     47 H           2.1345   -2.0399    1.2591 H       1  UNL1        0.0638
     48 H           4.5458   -1.5893    0.9319 H       1  UNL1        0.0621
     49 H           6.3760   -0.6606    1.3871 H       1  UNL1        0.0238
     50 H           6.2065   -1.4279   -0.2412 H       1  UNL1        0.0238
     51 H           7.6197   -0.2921    0.0879 H       1  UNL1        0.0238
     52 H           7.1158    1.9064    0.7573 H       1  UNL1        0.0238
     53 H           5.4759    1.8436    1.5617 H       1  UNL1        0.0238
     54 H           5.7414    2.7865    0.0419 H       1  UNL1        0.0238
     55 H           5.8317    1.9680   -1.8503 H       1  UNL1        0.0238
     56 H           6.9774    0.5952   -1.9715 H       1  UNL1        0.0238
     57 H           5.1860    0.3739   -2.2902 H       1  UNL1        0.0238
     58 H           3.6553    2.1584   -0.8809 H       1  UNL1        0.0621
     59 H           1.2943    1.7683   -0.5857 H       1  UNL1        0.0638
@<TRIPOS>BOND
     1     1     2    1
     2     2     3    1
     3     3     4   ar
     4     4     5   ar
     5     5     6   ar
     6     6     7   ar
     7     7     8   ar
     8     7     9   ar
     9     9    10    1
    10    10    11    1
    11    11    12   ar
    12    12    13   ar
    13    13    14   ar
    14    14    15   ar
    15    15    16    1
    16    16    17    1
    17    16    18    1
    18    16    19    1
    19    15    20   ar
    20     9    21   ar
    21    21    22    1
    22    22    23    2
    23    22    24    1
    24    21    25   ar
    25    25    26    1
    26    26    27   ar
    27    27    28   ar
    28    28    29   ar
    29    29    30    1
    30    30    31    1
    31    30    32    1
    32    30    33    1
    33    29    34   ar
    34    34    35   ar
    35     8     3   ar
    36    20    11   ar
    37    35    26   ar
    38    25     6   ar
    39     1    36    1
    40     1    37    1
    41     1    38    1
    42     4    39    1
    43     5    40    1
    44     8    41    1
    45    12    42    1
    46    13    43    1
    47    14    44    1
    48    20    45    1
    49    24    46    1
    50    27    47    1
    51    28    48    1
    52    31    49    1
    53    31    50    1
    54    31    51    1
    55    32    52    1
    56    32    53    1
    57    32    54    1
    58    33    55    1
    59    33    56    1
    60    33    57    1
    61    34    58    1
    62    35    59    1
