
     RDKit          3D

 12 12  0  0  0  0  0  0  0  0999 V2000
   -1.6994   -0.2386    0.1770 C   0  0  0  0  0  0  0  0  0  0  0  0
   -0.2497    0.0681    0.0402 C   0  0  0  0  0  0  0  0  0  0  0  0
    0.3767    1.3147    0.0973 C   0  0  0  0  0  0  0  0  0  0  0  0
    1.6945    1.0848   -0.0800 N   0  0  0  0  0  0  0  0  0  0  0  0
    1.9299   -0.2224   -0.2438 C   0  0  0  0  0  0  0  0  0  0  0  0
    0.7151   -0.8269   -0.1654 N   0  0  0  0  0  0  0  0  0  0  0  0
   -2.2214    0.5801    0.7236 H   0  0  0  0  0  0  0  0  0  0  0  0
   -2.1230   -0.2993   -0.8404 H   0  0  0  0  0  0  0  0  0  0  0  0
   -1.8183   -1.2234    0.6993 H   0  0  0  0  0  0  0  0  0  0  0  0
   -0.1960    2.2243    0.2589 H   0  0  0  0  0  0  0  0  0  0  0  0
    2.9359   -0.5891   -0.3992 H   0  0  0  0  0  0  0  0  0  0  0  0
    0.6556   -1.8724   -0.2675 H   0  0  0  0  0  0  0  0  0  0  0  0
  1  2  1  0
  2  3  2  0
  3  4  1  0
  4  5  2  0
  5  6  1  0
  6  2  1  0
  1  7  1  0
  1  8  1  0
  1  9  1  0
  3 10  1  0
  5 11  1  0
  6 12  1  0
M  END
$$$$
