@<TRIPOS>MOLECULE
*****
 24 24 0 0 0
SMALL
GASTEIGER

@<TRIPOS>ATOM
      1 O           3.0212    0.6939   -0.6846 O.3     1  UNL1       -0.3924
      2 C           2.4276   -0.2942    0.0636 C.3     1  UNL1        0.0730
      3 C           0.9322   -0.2615   -0.0641 C.3     1  UNL1        0.1130
      4 O           0.3601   -1.2718    0.7032 O.3     1  UNL1       -0.3407
      5 C          -0.9077   -1.5005    0.1684 C.3     1  UNL1        0.1854
      6 O          -1.5018   -2.6068    0.7534 O.3     1  UNL1       -0.3649
      7 C          -1.8068   -0.3090    0.2798 C.3     1  UNL1        0.1339
      8 O          -2.8632   -0.5273   -0.6297 O.3     1  UNL1       -0.3841
      9 C          -1.1452    0.9646   -0.1434 C.3     1  UNL1        0.1141
     10 O          -1.8693    2.0676    0.3421 O.3     1  UNL1       -0.3864
     11 C           0.3058    1.0379    0.3212 C.3     1  UNL1        0.1119
     12 O           0.8840    2.0670   -0.4549 O.3     1  UNL1       -0.3865
     13 H           3.8359    0.3918   -1.1542 H       1  UNL1        0.2095
     14 H           2.7488   -0.3550    1.1063 H       1  UNL1        0.0584
     15 H           2.7368   -1.2778   -0.3972 H       1  UNL1        0.0584
     16 H           0.6814   -0.4393   -1.1366 H       1  UNL1        0.0647
     17 H          -0.7549   -1.6894   -0.9291 H       1  UNL1        0.0935
     18 H          -0.9282   -3.3938    0.5236 H       1  UNL1        0.2126
     19 H          -2.2397   -0.2169    1.2904 H       1  UNL1        0.0671
     20 H          -2.4796   -0.3699   -1.5232 H       1  UNL1        0.2101
     21 H          -1.1124    0.9895   -1.2629 H       1  UNL1        0.0648
     22 H          -2.3255    2.4921   -0.4400 H       1  UNL1        0.2100
     23 H           0.3675    1.2955    1.3833 H       1  UNL1        0.0647
     24 H           1.6332    2.5133    0.0103 H       1  UNL1        0.2100
@<TRIPOS>BOND
     1     1     2    1
     2     2     3    1
     3     3     4    1
     4     4     5    1
     5     5     6    1
     6     5     7    1
     7     7     8    1
     8     7     9    1
     9     9    10    1
    10     9    11    1
    11    11    12    1
    12    11     3    1
    13     1    13    1
    14     2    14    1
    15     2    15    1
    16     3    16    1
    17     5    17    1
    18     6    18    1
    19     7    19    1
    20     8    20    1
    21     9    21    1
    22    10    22    1
    23    11    23    1
    24    12    24    1
