
     RDKit          3D

 15 14  0  0  0  0  0  0  0  0999 V2000
   -1.1984   -1.3907   -1.3583 O   0  0  0  0  0  0  0  0  0  0  0  0
   -0.4553   -0.3078   -0.8587 C   0  0  2  0  0  0  0  0  0  0  0  0
    0.6410   -0.8919   -0.0047 C   0  0  0  0  0  0  0  0  0  0  0  0
    1.5268    0.1189    0.6058 C   0  0  0  0  0  0  0  0  0  0  0  0
    1.7335    1.4861    0.6874 O   0  0  0  0  0  0  0  0  0  0  0  0
    2.4788   -0.2692    1.3411 O   0  0  0  0  0  0  0  0  0  0  0  0
   -1.4266    0.4621   -0.0250 C   0  0  0  0  0  0  0  0  0  0  0  0
   -1.2216    1.6233    0.6997 O   0  0  0  0  0  0  0  0  0  0  0  0
   -2.5239   -0.1603   -0.0985 O   0  0  0  0  0  0  0  0  0  0  0  0
   -1.4216   -1.9486   -0.5629 H   0  0  0  0  0  0  0  0  0  0  0  0
   -0.0702    0.2530   -1.7145 H   0  0  0  0  0  0  0  0  0  0  0  0
    0.1999   -1.4944    0.8021 H   0  0  0  0  0  0  0  0  0  0  0  0
    1.2792   -1.5253   -0.6469 H   0  0  0  0  0  0  0  0  0  0  0  0
    2.5094    1.9071    0.1548 H   0  0  0  0  0  0  0  0  0  0  0  0
   -2.0508    2.1378    0.9784 H   0  0  0  0  0  0  0  0  0  0  0  0
  1  2  1  0
  2  3  1  0
  3  4  1  0
  4  5  1  0
  4  6  2  0
  2  7  1  0
  7  8  1  0
  7  9  2  0
  1 10  1  0
  2 11  1  6
  3 12  1  0
  3 13  1  0
  5 14  1  0
  8 15  1  0
M  END
$$$$
