@<TRIPOS>MOLECULE
*****
 65 67 0 0 0
SMALL
GASTEIGER

@<TRIPOS>ATOM
      1 C          -6.4566    1.9201   -0.7259 C.3     1  UNL1       -0.0524
      2 C          -6.4794    0.4586   -1.0295 C.3     1  UNL1       -0.0038
      3 N          -7.2124   -0.2760   -0.0496 N.3     1  UNL1       -0.2996
      4 C          -7.2486   -1.6955   -0.3639 C.3     1  UNL1       -0.0038
      5 C          -8.0937   -1.8820   -1.6117 C.3     1  UNL1       -0.0524
      6 C          -6.8296   -0.0300    1.3040 C.3     1  UNL1        0.0331
      7 C          -5.4686   -0.5231    1.6841 C.3     1  UNL1        0.1022
      8 O          -4.4124    0.0292    0.9540 O.3     1  UNL1       -0.4907
      9 C          -3.1199   -0.3848    1.2598 C.ar    1  UNL1        0.1212
     10 C          -2.8616   -1.3317    2.2615 C.ar    1  UNL1       -0.0199
     11 C          -1.5483   -1.6977    2.5149 C.ar    1  UNL1       -0.0577
     12 C          -0.5054   -1.1234    1.7757 C.ar    1  UNL1       -0.0533
     13 C          -0.7566   -0.1969    0.7958 C.ar    1  UNL1       -0.0078
     14 C           0.3484    0.3966    0.0478 C.ar    1  UNL1        0.0220
     15 C           1.6670    0.2376    0.1224 C.ar    1  UNL1       -0.0329
     16 C           2.4864    0.9280   -0.6993 C.ar    1  UNL1        0.0658
     17 C           3.9742    0.8138   -0.6870 C.2     1  UNL1        0.2467
     18 O           4.6264    1.4690   -1.4985 O.2     1  UNL1       -0.2701
     19 N           4.6523   -0.0182    0.2243 N.am    1  UNL1       -0.3072
     20 C           6.0923   -0.1539    0.2685 C.3     1  UNL1        0.0359
     21 C           6.5641   -1.5836    0.1532 C.3     1  UNL1       -0.0322
     22 C           8.0709   -1.5687    0.0506 C.3     1  UNL1       -0.0387
     23 C           8.6528   -0.7954    1.1996 C.3     1  UNL1       -0.0040
     24 N           8.1064    0.5520    1.3017 N.3     1  UNL1       -0.3142
     25 C           6.6649    0.4014    1.5577 C.3     1  UNL1        0.0144
     26 C           1.8860    1.7824   -1.5934 C.ar    1  UNL1        0.0856
     27 N           2.4446    2.6502   -2.5836 N.am    1  UNL1       -0.2633
     28 C           2.7104    2.3002   -3.9125 C.2     1  UNL1        0.3017
     29 N           3.2669    3.1885   -4.8749 N.am    1  UNL1       -0.3131
     30 O           2.4345    1.1144   -4.2728 O.2     1  UNL1       -0.2527
     31 S           0.1693    1.5936   -1.2553 S.2     1  UNL1       -0.0727
     32 C          -2.0615    0.1485    0.5633 C.ar    1  UNL1       -0.0117
     33 H          -6.6274    2.5278   -1.6509 H       1  UNL1        0.0242
     34 H          -7.2483    2.2608   -0.0227 H       1  UNL1        0.0242
     35 H          -5.4714    2.2228   -0.2928 H       1  UNL1        0.0242
     36 H          -6.9747    0.3101   -2.0144 H       1  UNL1        0.0424
     37 H          -5.4619    0.0062   -1.1304 H       1  UNL1        0.0424
     38 H          -7.7588   -2.2303    0.4506 H       1  UNL1        0.0424
     39 H          -6.2641   -2.1273   -0.5616 H       1  UNL1        0.0424
     40 H          -8.9277   -1.1250   -1.6062 H       1  UNL1        0.0242
     41 H          -7.5034   -1.6418   -2.5288 H       1  UNL1        0.0242
     42 H          -8.4935   -2.8936   -1.6824 H       1  UNL1        0.0242
     43 H          -6.8829    1.0426    1.5624 H       1  UNL1        0.0460
     44 H          -7.5538   -0.5591    1.9740 H       1  UNL1        0.0460
     45 H          -5.3023   -0.2232    2.7609 H       1  UNL1        0.0709
     46 H          -5.3656   -1.6266    1.6327 H       1  UNL1        0.0709
     47 H          -3.6835   -1.7591    2.8175 H       1  UNL1        0.0654
     48 H          -1.3335   -2.4253    3.2842 H       1  UNL1        0.0619
     49 H           0.5120   -1.4301    1.9966 H       1  UNL1        0.0624
     50 H           2.0869   -0.4828    0.8826 H       1  UNL1        0.0637
     51 H           4.1033   -0.5701    0.9066 H       1  UNL1        0.1493
     52 H           6.5579    0.4457   -0.5429 H       1  UNL1        0.0511
     53 H           6.0964   -2.1271   -0.6899 H       1  UNL1        0.0284
     54 H           6.3148   -2.0696    1.1362 H       1  UNL1        0.0284
     55 H           8.3335   -1.0973   -0.9126 H       1  UNL1        0.0278
     56 H           8.4628   -2.6043    0.1324 H       1  UNL1        0.0278
     57 H           8.4793   -1.3459    2.1393 H       1  UNL1        0.0424
     58 H           9.7500   -0.6816    1.0371 H       1  UNL1        0.0424
     59 H           8.2212    1.0232    0.3724 H       1  UNL1        0.1220
     60 H           6.5733   -0.3864    2.3263 H       1  UNL1        0.0442
     61 H           6.2179    1.3677    1.8459 H       1  UNL1        0.0442
     62 H           2.6626    3.6193   -2.2645 H       1  UNL1        0.1569
     63 H           3.8972    2.7782   -5.5984 H       1  UNL1        0.1465
     64 H           3.0932    4.2048   -4.9100 H       1  UNL1        0.1465
     65 H          -2.2730    0.8744   -0.2027 H       1  UNL1        0.0660
@<TRIPOS>BOND
     1     1     2    1
     2     2     3    1
     3     3     4    1
     4     4     5    1
     5     3     6    1
     6     6     7    1
     7     7     8    1
     8     8     9    1
     9     9    10   ar
    10    10    11   ar
    11    11    12   ar
    12    12    13   ar
    13    13    14    1
    14    14    15   ar
    15    15    16   ar
    16    16    17    1
    17    17    18    2
    18    17    19   am
    19    19    20    1
    20    20    21    1
    21    21    22    1
    22    22    23    1
    23    23    24    1
    24    24    25    1
    25    16    26   ar
    26    26    27    1
    27    27    28   am
    28    28    29   am
    29    28    30    2
    30    26    31   ar
    31    13    32   ar
    32    32     9   ar
    33    31    14   ar
    34    25    20    1
    35     1    33    1
    36     1    34    1
    37     1    35    1
    38     2    36    1
    39     2    37    1
    40     4    38    1
    41     4    39    1
    42     5    40    1
    43     5    41    1
    44     5    42    1
    45     6    43    1
    46     6    44    1
    47     7    45    1
    48     7    46    1
    49    10    47    1
    50    11    48    1
    51    12    49    1
    52    15    50    1
    53    19    51    1
    54    20    52    1
    55    21    53    1
    56    21    54    1
    57    22    55    1
    58    22    56    1
    59    23    57    1
    60    23    58    1
    61    24    59    1
    62    25    60    1
    63    25    61    1
    64    27    62    1
    65    29    63    1
    66    29    64    1
    67    32    65    1
