
     RDKit          3D

 65 67  0  0  0  0  0  0  0  0999 V2000
   -6.4566    1.9201   -0.7259 C   0  0  0  0  0  0  0  0  0  0  0  0
   -6.4794    0.4586   -1.0295 C   0  0  0  0  0  0  0  0  0  0  0  0
   -7.2124   -0.2760   -0.0496 N   0  0  0  0  0  0  0  0  0  0  0  0
   -7.2486   -1.6955   -0.3639 C   0  0  0  0  0  0  0  0  0  0  0  0
   -8.0937   -1.8820   -1.6117 C   0  0  0  0  0  0  0  0  0  0  0  0
   -6.8296   -0.0300    1.3040 C   0  0  0  0  0  0  0  0  0  0  0  0
   -5.4686   -0.5231    1.6841 C   0  0  0  0  0  0  0  0  0  0  0  0
   -4.4124    0.0292    0.9540 O   0  0  0  0  0  0  0  0  0  0  0  0
   -3.1199   -0.3848    1.2598 C   0  0  0  0  0  0  0  0  0  0  0  0
   -2.8616   -1.3317    2.2615 C   0  0  0  0  0  0  0  0  0  0  0  0
   -1.5483   -1.6977    2.5149 C   0  0  0  0  0  0  0  0  0  0  0  0
   -0.5054   -1.1234    1.7757 C   0  0  0  0  0  0  0  0  0  0  0  0
   -0.7566   -0.1969    0.7958 C   0  0  0  0  0  0  0  0  0  0  0  0
    0.3484    0.3966    0.0478 C   0  0  0  0  0  0  0  0  0  0  0  0
    1.6670    0.2376    0.1224 C   0  0  0  0  0  0  0  0  0  0  0  0
    2.4864    0.9280   -0.6993 C   0  0  0  0  0  0  0  0  0  0  0  0
    3.9742    0.8138   -0.6870 C   0  0  0  0  0  0  0  0  0  0  0  0
    4.6264    1.4690   -1.4985 O   0  0  0  0  0  0  0  0  0  0  0  0
    4.6523   -0.0182    0.2243 N   0  0  0  0  0  0  0  0  0  0  0  0
    6.0923   -0.1539    0.2685 C   0  0  0  0  0  0  0  0  0  0  0  0
    6.5641   -1.5836    0.1532 C   0  0  0  0  0  0  0  0  0  0  0  0
    8.0709   -1.5687    0.0506 C   0  0  0  0  0  0  0  0  0  0  0  0
    8.6528   -0.7954    1.1996 C   0  0  0  0  0  0  0  0  0  0  0  0
    8.1064    0.5520    1.3017 N   0  0  0  0  0  0  0  0  0  0  0  0
    6.6649    0.4014    1.5577 C   0  0  0  0  0  0  0  0  0  0  0  0
    1.8860    1.7824   -1.5934 C   0  0  0  0  0  0  0  0  0  0  0  0
    2.4446    2.6502   -2.5836 N   0  0  0  0  0  0  0  0  0  0  0  0
    2.7104    2.3002   -3.9125 C   0  0  0  0  0  0  0  0  0  0  0  0
    3.2669    3.1885   -4.8749 N   0  0  0  0  0  0  0  0  0  0  0  0
    2.4345    1.1144   -4.2728 O   0  0  0  0  0  0  0  0  0  0  0  0
    0.1693    1.5936   -1.2553 S   0  0  0  0  0  0  0  0  0  0  0  0
   -2.0615    0.1485    0.5633 C   0  0  0  0  0  0  0  0  0  0  0  0
   -6.6274    2.5278   -1.6509 H   0  0  0  0  0  0  0  0  0  0  0  0
   -7.2483    2.2608   -0.0227 H   0  0  0  0  0  0  0  0  0  0  0  0
   -5.4714    2.2228   -0.2928 H   0  0  0  0  0  0  0  0  0  0  0  0
   -6.9747    0.3101   -2.0144 H   0  0  0  0  0  0  0  0  0  0  0  0
   -5.4619    0.0062   -1.1304 H   0  0  0  0  0  0  0  0  0  0  0  0
   -7.7588   -2.2303    0.4506 H   0  0  0  0  0  0  0  0  0  0  0  0
   -6.2641   -2.1273   -0.5616 H   0  0  0  0  0  0  0  0  0  0  0  0
   -8.9277   -1.1250   -1.6062 H   0  0  0  0  0  0  0  0  0  0  0  0
   -7.5034   -1.6418   -2.5288 H   0  0  0  0  0  0  0  0  0  0  0  0
   -8.4935   -2.8936   -1.6824 H   0  0  0  0  0  0  0  0  0  0  0  0
   -6.8829    1.0426    1.5624 H   0  0  0  0  0  0  0  0  0  0  0  0
   -7.5538   -0.5591    1.9740 H   0  0  0  0  0  0  0  0  0  0  0  0
   -5.3023   -0.2232    2.7609 H   0  0  0  0  0  0  0  0  0  0  0  0
   -5.3656   -1.6266    1.6327 H   0  0  0  0  0  0  0  0  0  0  0  0
   -3.6835   -1.7591    2.8175 H   0  0  0  0  0  0  0  0  0  0  0  0
   -1.3335   -2.4253    3.2842 H   0  0  0  0  0  0  0  0  0  0  0  0
    0.5120   -1.4301    1.9966 H   0  0  0  0  0  0  0  0  0  0  0  0
    2.0869   -0.4828    0.8826 H   0  0  0  0  0  0  0  0  0  0  0  0
    4.1033   -0.5701    0.9066 H   0  0  0  0  0  0  0  0  0  0  0  0
    6.5579    0.4457   -0.5429 H   0  0  0  0  0  0  0  0  0  0  0  0
    6.0964   -2.1271   -0.6899 H   0  0  0  0  0  0  0  0  0  0  0  0
    6.3148   -2.0696    1.1362 H   0  0  0  0  0  0  0  0  0  0  0  0
    8.3335   -1.0973   -0.9126 H   0  0  0  0  0  0  0  0  0  0  0  0
    8.4628   -2.6043    0.1324 H   0  0  0  0  0  0  0  0  0  0  0  0
    8.4793   -1.3459    2.1393 H   0  0  0  0  0  0  0  0  0  0  0  0
    9.7500   -0.6816    1.0371 H   0  0  0  0  0  0  0  0  0  0  0  0
    8.2212    1.0232    0.3724 H   0  0  0  0  0  0  0  0  0  0  0  0
    6.5733   -0.3864    2.3263 H   0  0  0  0  0  0  0  0  0  0  0  0
    6.2179    1.3677    1.8459 H   0  0  0  0  0  0  0  0  0  0  0  0
    2.6626    3.6193   -2.2645 H   0  0  0  0  0  0  0  0  0  0  0  0
    3.8972    2.7782   -5.5984 H   0  0  0  0  0  0  0  0  0  0  0  0
    3.0932    4.2048   -4.9100 H   0  0  0  0  0  0  0  0  0  0  0  0
   -2.2730    0.8744   -0.2027 H   0  0  0  0  0  0  0  0  0  0  0  0
  1  2  1  0
  2  3  1  0
  3  4  1  0
  4  5  1  0
  3  6  1  0
  6  7  1  0
  7  8  1  0
  8  9  1  0
  9 10  2  0
 10 11  1  0
 11 12  2  0
 12 13  1  0
 13 14  1  0
 14 15  2  0
 15 16  1  0
 16 17  1  0
 17 18  2  0
 17 19  1  0
 19 20  1  0
 20 21  1  0
 21 22  1  0
 22 23  1  0
 23 24  1  0
 24 25  1  0
 16 26  2  0
 26 27  1  0
 27 28  1  0
 28 29  1  0
 28 30  2  0
 26 31  1  0
 13 32  2  0
 32  9  1  0
 31 14  1  0
 25 20  1  0
  1 33  1  0
  1 34  1  0
  1 35  1  0
  2 36  1  0
  2 37  1  0
  4 38  1  0
  4 39  1  0
  5 40  1  0
  5 41  1  0
  5 42  1  0
  6 43  1  0
  6 44  1  0
  7 45  1  0
  7 46  1  0
 10 47  1  0
 11 48  1  0
 12 49  1  0
 15 50  1  0
 19 51  1  0
 20 52  1  0
 21 53  1  0
 21 54  1  0
 22 55  1  0
 22 56  1  0
 23 57  1  0
 23 58  1  0
 24 59  1  0
 25 60  1  0
 25 61  1  0
 27 62  1  0
 29 63  1  0
 29 64  1  0
 32 65  1  0
M  END
$$$$
