
     RDKit          3D

 39 40  0  0  0  0  0  0  0  0999 V2000
   -1.5181    3.8359   -0.1346 C   0  0  0  0  0  0  0  0  0  0  0  0
   -2.3528    2.7350    0.1689 O   0  0  0  0  0  0  0  0  0  0  0  0
   -1.8623    1.4650   -0.1936 C   0  0  0  0  0  0  0  0  0  0  0  0
   -0.6468    1.2922   -0.8054 C   0  0  0  0  0  0  0  0  0  0  0  0
   -0.1628    0.0457   -1.1618 C   0  0  0  0  0  0  0  0  0  0  0  0
    1.1412   -0.1524   -1.8309 C   0  0  0  0  0  0  0  0  0  0  0  0
    2.3017   -0.1153   -0.9089 C   0  0  0  0  0  0  0  0  0  0  0  0
    3.1228    1.0152   -0.8290 C   0  0  0  0  0  0  0  0  0  0  0  0
    4.1630    1.0260    0.0165 N   0  0  0  0  0  0  0  0  0  0  0  0
    4.4795   -0.0060    0.8164 C   0  0  0  0  0  0  0  0  0  0  0  0
    5.5999    0.0456    1.7087 N   0  0  0  0  0  0  0  0  0  0  0  0
    3.6983   -1.0947    0.7471 N   0  0  0  0  0  0  0  0  0  0  0  0
    2.6308   -1.1663   -0.0892 C   0  0  0  0  0  0  0  0  0  0  0  0
    1.8562   -2.3815   -0.0924 N   0  0  0  0  0  0  0  0  0  0  0  0
   -0.9645   -1.0316   -0.8730 C   0  0  0  0  0  0  0  0  0  0  0  0
   -2.2010   -0.8696   -0.2520 C   0  0  0  0  0  0  0  0  0  0  0  0
   -3.0299   -1.9633    0.0489 O   0  0  0  0  0  0  0  0  0  0  0  0
   -2.5390   -3.2395   -0.3141 C   0  0  0  0  0  0  0  0  0  0  0  0
   -2.6518    0.3748    0.0884 C   0  0  0  0  0  0  0  0  0  0  0  0
   -3.8967    0.5644    0.7166 O   0  0  0  0  0  0  0  0  0  0  0  0
   -3.8893    0.5375    2.1380 C   0  0  0  0  0  0  0  0  0  0  0  0
   -0.5591    3.7344    0.4070 H   0  0  0  0  0  0  0  0  0  0  0  0
   -2.0430    4.7892    0.1398 H   0  0  0  0  0  0  0  0  0  0  0  0
   -1.3388    3.9220   -1.2379 H   0  0  0  0  0  0  0  0  0  0  0  0
   -0.0465    2.1707   -1.0150 H   0  0  0  0  0  0  0  0  0  0  0  0
    1.2979    0.6423   -2.6014 H   0  0  0  0  0  0  0  0  0  0  0  0
    1.1359   -1.1618   -2.2900 H   0  0  0  0  0  0  0  0  0  0  0  0
    2.8624    1.8396   -1.4749 H   0  0  0  0  0  0  0  0  0  0  0  0
    6.1166    0.9251    1.8999 H   0  0  0  0  0  0  0  0  0  0  0  0
    5.8851   -0.8334    2.1657 H   0  0  0  0  0  0  0  0  0  0  0  0
    2.0541   -3.1470   -0.7715 H   0  0  0  0  0  0  0  0  0  0  0  0
    1.0988   -2.4160    0.6341 H   0  0  0  0  0  0  0  0  0  0  0  0
   -0.6753   -2.0641   -1.1222 H   0  0  0  0  0  0  0  0  0  0  0  0
   -1.6682   -3.5518    0.2803 H   0  0  0  0  0  0  0  0  0  0  0  0
   -3.3583   -3.9913   -0.1424 H   0  0  0  0  0  0  0  0  0  0  0  0
   -2.2975   -3.2635   -1.4157 H   0  0  0  0  0  0  0  0  0  0  0  0
   -3.2985    1.3728    2.5679 H   0  0  0  0  0  0  0  0  0  0  0  0
   -4.9502    0.5613    2.5084 H   0  0  0  0  0  0  0  0  0  0  0  0
   -3.4936   -0.4455    2.5031 H   0  0  0  0  0  0  0  0  0  0  0  0
  1  2  1  0
  2  3  1  0
  3  4  2  0
  4  5  1  0
  5  6  1  0
  6  7  1  0
  7  8  2  0
  8  9  1  0
  9 10  2  0
 10 11  1  0
 10 12  1  0
 12 13  2  0
 13 14  1  0
  5 15  2  0
 15 16  1  0
 16 17  1  0
 17 18  1  0
 16 19  2  0
 19 20  1  0
 20 21  1  0
 19  3  1  0
 13  7  1  0
  1 22  1  0
  1 23  1  0
  1 24  1  0
  4 25  1  0
  6 26  1  0
  6 27  1  0
  8 28  1  0
 11 29  1  0
 11 30  1  0
 14 31  1  0
 14 32  1  0
 15 33  1  0
 18 34  1  0
 18 35  1  0
 18 36  1  0
 21 37  1  0
 21 38  1  0
 21 39  1  0
M  END
$$$$
