@<TRIPOS>MOLECULE
*****
 39 40 0 0 0
SMALL
GASTEIGER

@<TRIPOS>ATOM
      1 C          -1.5181    3.8359   -0.1346 C.3     1  UNL1        0.0790
      2 O          -2.3528    2.7350    0.1689 O.3     1  UNL1       -0.4913
      3 C          -1.8623    1.4650   -0.1936 C.ar    1  UNL1        0.1654
      4 C          -0.6468    1.2922   -0.8054 C.ar    1  UNL1       -0.0126
      5 C          -0.1628    0.0457   -1.1618 C.ar    1  UNL1       -0.0358
      6 C           1.1412   -0.1524   -1.8309 C.3     1  UNL1        0.0025
      7 C           2.3017   -0.1153   -0.9089 C.ar    1  UNL1        0.0146
      8 C           3.1228    1.0152   -0.8290 C.ar    1  UNL1        0.0379
      9 N           4.1630    1.0260    0.0165 N.ar    1  UNL1       -0.2227
     10 C           4.4795   -0.0060    0.8164 C.ar    1  UNL1        0.2142
     11 N           5.5999    0.0456    1.7087 N.pl3   1  UNL1       -0.3274
     12 N           3.6983   -1.0947    0.7471 N.ar    1  UNL1       -0.1999
     13 C           2.6308   -1.1663   -0.0892 C.ar    1  UNL1        0.1247
     14 N           1.8562   -2.3815   -0.0924 N.pl3   1  UNL1       -0.3428
     15 C          -0.9645   -1.0316   -0.8730 C.ar    1  UNL1       -0.0126
     16 C          -2.2010   -0.8696   -0.2520 C.ar    1  UNL1        0.1654
     17 O          -3.0299   -1.9633    0.0489 O.3     1  UNL1       -0.4913
     18 C          -2.5390   -3.2395   -0.3141 C.3     1  UNL1        0.0790
     19 C          -2.6518    0.3748    0.0884 C.ar    1  UNL1        0.2035
     20 O          -3.8967    0.5644    0.7166 O.3     1  UNL1       -0.4885
     21 C          -3.8893    0.5375    2.1380 C.3     1  UNL1        0.0791
     22 H          -0.5591    3.7344    0.4070 H       1  UNL1        0.0660
     23 H          -2.0430    4.7892    0.1398 H       1  UNL1        0.0660
     24 H          -1.3388    3.9220   -1.2379 H       1  UNL1        0.0660
     25 H          -0.0465    2.1707   -1.0150 H       1  UNL1        0.0658
     26 H           1.2979    0.6423   -2.6014 H       1  UNL1        0.0363
     27 H           1.1359   -1.1618   -2.2900 H       1  UNL1        0.0363
     28 H           2.8624    1.8396   -1.4749 H       1  UNL1        0.0834
     29 H           6.1166    0.9251    1.8999 H       1  UNL1        0.1452
     30 H           5.8851   -0.8334    2.1657 H       1  UNL1        0.1452
     31 H           2.0541   -3.1470   -0.7715 H       1  UNL1        0.1437
     32 H           1.0988   -2.4160    0.6341 H       1  UNL1        0.1437
     33 H          -0.6753   -2.0641   -1.1222 H       1  UNL1        0.0658
     34 H          -1.6682   -3.5518    0.2803 H       1  UNL1        0.0660
     35 H          -3.3583   -3.9913   -0.1424 H       1  UNL1        0.0660
     36 H          -2.2975   -3.2635   -1.4157 H       1  UNL1        0.0660
     37 H          -3.2985    1.3728    2.5679 H       1  UNL1        0.0660
     38 H          -4.9502    0.5613    2.5084 H       1  UNL1        0.0660
     39 H          -3.4936   -0.4455    2.5031 H       1  UNL1        0.0660
@<TRIPOS>BOND
     1     1     2    1
     2     2     3    1
     3     3     4   ar
     4     4     5   ar
     5     5     6    1
     6     6     7    1
     7     7     8   ar
     8     8     9   ar
     9     9    10   ar
    10    10    11    1
    11    10    12   ar
    12    12    13   ar
    13    13    14    1
    14     5    15   ar
    15    15    16   ar
    16    16    17    1
    17    17    18    1
    18    16    19   ar
    19    19    20    1
    20    20    21    1
    21    19     3   ar
    22    13     7   ar
    23     1    22    1
    24     1    23    1
    25     1    24    1
    26     4    25    1
    27     6    26    1
    28     6    27    1
    29     8    28    1
    30    11    29    1
    31    11    30    1
    32    14    31    1
    33    14    32    1
    34    15    33    1
    35    18    34    1
    36    18    35    1
    37    18    36    1
    38    21    37    1
    39    21    38    1
    40    21    39    1
