
     RDKit          3D

 75 80  0  0  0  0  0  0  0  0999 V2000
    7.0303   -1.0374    0.8725 C   0  0  0  0  0  0  0  0  0  0  0  0
    7.2597    0.3236    0.3716 C   0  0  0  0  0  0  0  0  0  0  0  0
    8.5718    0.8042    0.3610 C   0  0  0  0  0  0  0  0  0  0  0  0
    8.8955    2.0648   -0.0859 C   0  0  0  0  0  0  0  0  0  0  0  0
   10.2783    2.5539   -0.0902 C   0  0  0  0  0  0  0  0  0  0  0  0
   10.5195    3.7092   -0.5075 O   0  0  0  0  0  0  0  0  0  0  0  0
   11.3341    1.7735    0.3558 O   0  0  0  0  0  0  0  0  0  0  0  0
    7.8739    2.8704   -0.5366 C   0  0  0  0  0  0  0  0  0  0  0  0
    6.5657    2.4138   -0.5348 C   0  0  0  0  0  0  0  0  0  0  0  0
    6.2534    1.1450   -0.0833 C   0  0  0  0  0  0  0  0  0  0  0  0
    4.8691    0.6792   -0.0900 C   0  0  0  0  0  0  0  0  0  0  0  0
    3.8785    1.5090    0.3812 C   0  0  0  0  0  0  0  0  0  0  0  0
    2.5358    1.1106    0.3933 C   0  0  0  0  0  0  0  0  0  0  0  0
    2.1777   -0.1453   -0.0761 C   0  0  0  0  0  0  0  0  0  0  0  0
    0.8118   -0.5762   -0.0683 N   0  0  0  0  0  0  0  0  0  0  0  0
    0.2480   -1.7884   -0.5410 C   0  0  0  0  0  0  0  0  0  0  0  0
    0.8591   -2.7325   -1.0678 O   0  0  0  0  0  0  0  0  0  0  0  0
   -1.1828   -1.7604   -0.3120 N   0  0  0  0  0  0  0  0  0  0  0  0
   -1.9734   -2.9264   -0.2876 C   0  0  0  0  0  0  0  0  0  0  0  0
   -2.5536   -3.4020   -1.3921 N   0  0  0  0  0  0  0  0  0  0  0  0
   -3.3142   -4.5181   -1.3973 C   0  0  0  0  0  0  0  0  0  0  0  0
   -3.4942   -5.1891   -0.2063 C   0  0  0  0  0  0  0  0  0  0  0  0
   -2.9149   -4.7200    0.9131 N   0  0  0  0  0  0  0  0  0  0  0  0
   -2.1497   -3.5920    0.9029 C   0  0  0  0  0  0  0  0  0  0  0  0
   -1.5513   -3.1569    2.1926 C   0  0  0  0  0  0  0  0  0  0  0  0
   -1.5655   -0.3691   -0.1344 C   0  0  0  0  0  0  0  0  0  0  0  0
   -1.9031    0.2151   -1.4642 C   0  0  0  0  0  0  0  0  0  0  0  0
   -2.5697    1.5531   -1.3630 C   0  0  0  0  0  0  0  0  0  0  0  0
   -3.7577    1.5422   -0.5404 N   0  0  0  0  0  0  0  0  0  0  0  0
   -4.7853    0.7990   -1.2095 C   0  0  0  0  0  0  0  0  0  0  0  0
   -6.0514    0.7143   -0.4995 C   0  0  0  0  0  0  0  0  0  0  0  0
   -6.3793   -0.4271    0.1287 N   0  0  0  0  0  0  0  0  0  0  0  0
   -7.5489   -0.5561    0.8058 C   0  0  0  0  0  0  0  0  0  0  0  0
   -8.4505    0.4843    0.8755 C   0  0  0  0  0  0  0  0  0  0  0  0
   -8.1070    1.6598    0.2254 C   0  0  0  0  0  0  0  0  0  0  0  0
   -6.9124    1.7839   -0.4631 C   0  0  0  0  0  0  0  0  0  0  0  0
   -6.5048    3.0087   -1.1674 C   0  0  0  0  0  0  0  0  0  0  0  0
   -3.4385    1.0490    0.7599 C   0  0  0  0  0  0  0  0  0  0  0  0
   -2.7393   -0.2902    0.7751 C   0  0  0  0  0  0  0  0  0  0  0  0
   -0.3021    0.1693    0.4448 C   0  0  0  0  0  0  0  0  0  0  0  0
   -0.2702    1.1181    1.2458 O   0  0  0  0  0  0  0  0  0  0  0  0
    3.1737   -0.9696   -0.5457 C   0  0  0  0  0  0  0  0  0  0  0  0
    4.4937   -0.5517   -0.5469 C   0  0  0  0  0  0  0  0  0  0  0  0
    6.0436   -1.2033    1.3244 H   0  0  0  0  0  0  0  0  0  0  0  0
    7.7672   -1.2037    1.7139 H   0  0  0  0  0  0  0  0  0  0  0  0
    7.2998   -1.8323    0.1323 H   0  0  0  0  0  0  0  0  0  0  0  0
    9.3837    0.1804    0.7127 H   0  0  0  0  0  0  0  0  0  0  0  0
   12.1237    2.2200    0.8022 H   0  0  0  0  0  0  0  0  0  0  0  0
    8.0827    3.8780   -0.9003 H   0  0  0  0  0  0  0  0  0  0  0  0
    5.7580    3.0289   -0.8828 H   0  0  0  0  0  0  0  0  0  0  0  0
    4.0913    2.5002    0.7611 H   0  0  0  0  0  0  0  0  0  0  0  0
    1.8054    1.7901    0.7638 H   0  0  0  0  0  0  0  0  0  0  0  0
   -3.7936   -4.9222   -2.2770 H   0  0  0  0  0  0  0  0  0  0  0  0
   -4.1110   -6.1021   -0.1875 H   0  0  0  0  0  0  0  0  0  0  0  0
   -2.2872   -2.8190    2.9244 H   0  0  0  0  0  0  0  0  0  0  0  0
   -0.7537   -2.4180    1.9808 H   0  0  0  0  0  0  0  0  0  0  0  0
   -1.0097   -4.0604    2.5917 H   0  0  0  0  0  0  0  0  0  0  0  0
   -0.9538    0.3640   -2.0209 H   0  0  0  0  0  0  0  0  0  0  0  0
   -2.5023   -0.5101   -2.0441 H   0  0  0  0  0  0  0  0  0  0  0  0
   -1.8021    2.2763   -1.0086 H   0  0  0  0  0  0  0  0  0  0  0  0
   -2.8512    1.8497   -2.4151 H   0  0  0  0  0  0  0  0  0  0  0  0
   -4.4261   -0.2243   -1.4400 H   0  0  0  0  0  0  0  0  0  0  0  0
   -4.9972    1.2551   -2.2146 H   0  0  0  0  0  0  0  0  0  0  0  0
   -7.8225   -1.4727    1.3160 H   0  0  0  0  0  0  0  0  0  0  0  0
   -9.3866    0.4391    1.3946 H   0  0  0  0  0  0  0  0  0  0  0  0
   -8.7937    2.5056    0.2572 H   0  0  0  0  0  0  0  0  0  0  0  0
   -5.5695    3.4600   -0.7465 H   0  0  0  0  0  0  0  0  0  0  0  0
   -6.4449    2.8867   -2.2652 H   0  0  0  0  0  0  0  0  0  0  0  0
   -7.2971    3.7754   -0.9875 H   0  0  0  0  0  0  0  0  0  0  0  0
   -4.3656    0.9415    1.3521 H   0  0  0  0  0  0  0  0  0  0  0  0
   -2.7641    1.7900    1.2547 H   0  0  0  0  0  0  0  0  0  0  0  0
   -3.4474   -1.0915    0.5494 H   0  0  0  0  0  0  0  0  0  0  0  0
   -2.3567   -0.4021    1.8321 H   0  0  0  0  0  0  0  0  0  0  0  0
    2.9352   -1.9811   -0.9290 H   0  0  0  0  0  0  0  0  0  0  0  0
    5.2359   -1.2435   -0.9304 H   0  0  0  0  0  0  0  0  0  0  0  0
  1  2  1  0
  2  3  2  0
  3  4  1  0
  4  5  1  0
  5  6  2  0
  5  7  1  0
  4  8  2  0
  8  9  1  0
  9 10  2  0
 10 11  1  0
 11 12  2  0
 12 13  1  0
 13 14  2  0
 14 15  1  0
 15 16  1  0
 16 17  2  0
 16 18  1  0
 18 19  1  0
 19 20  2  0
 20 21  1  0
 21 22  2  0
 22 23  1  0
 23 24  2  0
 24 25  1  0
 18 26  1  0
 26 27  1  0
 27 28  1  0
 28 29  1  0
 29 30  1  0
 30 31  1  0
 31 32  2  0
 32 33  1  0
 33 34  2  0
 34 35  1  0
 35 36  2  0
 36 37  1  0
 29 38  1  0
 38 39  1  0
 26 40  1  0
 40 41  2  0
 14 42  1  0
 42 43  2  0
 10  2  1  0
 43 11  1  0
 40 15  1  0
 24 19  1  0
 39 26  1  0
 36 31  1  0
  1 44  1  0
  1 45  1  0
  1 46  1  0
  3 47  1  0
  7 48  1  0
  8 49  1  0
  9 50  1  0
 12 51  1  0
 13 52  1  0
 21 53  1  0
 22 54  1  0
 25 55  1  0
 25 56  1  0
 25 57  1  0
 27 58  1  0
 27 59  1  0
 28 60  1  0
 28 61  1  0
 30 62  1  0
 30 63  1  0
 33 64  1  0
 34 65  1  0
 35 66  1  0
 37 67  1  0
 37 68  1  0
 37 69  1  0
 38 70  1  0
 38 71  1  0
 39 72  1  0
 39 73  1  0
 42 74  1  0
 43 75  1  0
M  END
$$$$
