@<TRIPOS>MOLECULE
*****
 75 80 0 0 0
SMALL
GASTEIGER

@<TRIPOS>ATOM
      1 C           7.0303   -1.0374    0.8725 C.3     1  UNL1       -0.0391
      2 C           7.2597    0.3236    0.3716 C.ar    1  UNL1       -0.0420
      3 C           8.5718    0.8042    0.3610 C.ar    1  UNL1       -0.0443
      4 C           8.8955    2.0648   -0.0859 C.ar    1  UNL1        0.0591
      5 C          10.2783    2.5539   -0.0902 C.2     1  UNL1        0.3368
      6 O          10.5195    3.7092   -0.5075 O.2     1  UNL1       -0.2451
      7 O          11.3341    1.7735    0.3558 O.3     1  UNL1       -0.4771
      8 C           7.8739    2.8704   -0.5366 C.ar    1  UNL1       -0.0472
      9 C           6.5657    2.4138   -0.5348 C.ar    1  UNL1       -0.0530
     10 C           6.2534    1.1450   -0.0833 C.ar    1  UNL1       -0.0149
     11 C           4.8691    0.6792   -0.0900 C.ar    1  UNL1       -0.0175
     12 C           3.8785    1.5090    0.3812 C.ar    1  UNL1       -0.0523
     13 C           2.5358    1.1106    0.3933 C.ar    1  UNL1       -0.0392
     14 C           2.1777   -0.1453   -0.0761 C.ar    1  UNL1        0.0455
     15 N           0.8118   -0.5762   -0.0683 N.am    1  UNL1       -0.1920
     16 C           0.2480   -1.7884   -0.5410 C.2     1  UNL1        0.3219
     17 O           0.8591   -2.7325   -1.0678 O.2     1  UNL1       -0.2512
     18 N          -1.1828   -1.7604   -0.3120 N.am    1  UNL1       -0.2227
     19 C          -1.9734   -2.9264   -0.2876 C.ar    1  UNL1        0.1508
     20 N          -2.5536   -3.4020   -1.3921 N.ar    1  UNL1       -0.2365
     21 C          -3.3142   -4.5181   -1.3973 C.ar    1  UNL1        0.0478
     22 C          -3.4942   -5.1891   -0.2063 C.ar    1  UNL1        0.0461
     23 N          -2.9149   -4.7200    0.9131 N.ar    1  UNL1       -0.2552
     24 C          -2.1497   -3.5920    0.9029 C.ar    1  UNL1        0.0784
     25 C          -1.5513   -3.1569    2.1926 C.3     1  UNL1       -0.0190
     26 C          -1.5655   -0.3691   -0.1344 C.3     1  UNL1        0.1241
     27 C          -1.9031    0.2151   -1.4642 C.3     1  UNL1       -0.0095
     28 C          -2.5697    1.5531   -1.3630 C.3     1  UNL1        0.0017
     29 N          -3.7577    1.5422   -0.5404 N.3     1  UNL1       -0.2965
     30 C          -4.7853    0.7990   -1.2095 C.3     1  UNL1        0.0415
     31 C          -6.0514    0.7143   -0.4995 C.ar    1  UNL1        0.0581
     32 N          -6.3793   -0.4271    0.1287 N.ar    1  UNL1       -0.2583
     33 C          -7.5489   -0.5561    0.8058 C.ar    1  UNL1        0.0279
     34 C          -8.4505    0.4843    0.8755 C.ar    1  UNL1       -0.0433
     35 C          -8.1070    1.6598    0.2254 C.ar    1  UNL1       -0.0557
     36 C          -6.9124    1.7839   -0.4631 C.ar    1  UNL1       -0.0279
     37 C          -6.5048    3.0087   -1.1674 C.3     1  UNL1       -0.0380
     38 C          -3.4385    1.0490    0.7599 C.3     1  UNL1        0.0017
     39 C          -2.7393   -0.2902    0.7751 C.3     1  UNL1       -0.0095
     40 C          -0.3021    0.1693    0.4448 C.2     1  UNL1        0.2516
     41 O          -0.2702    1.1181    1.2458 O.2     1  UNL1       -0.2724
     42 C           3.1737   -0.9696   -0.5457 C.ar    1  UNL1       -0.0392
     43 C           4.4937   -0.5517   -0.5469 C.ar    1  UNL1       -0.0523
     44 H           6.0436   -1.2033    1.3244 H       1  UNL1        0.0278
     45 H           7.7672   -1.2037    1.7139 H       1  UNL1        0.0278
     46 H           7.2998   -1.8323    0.1323 H       1  UNL1        0.0278
     47 H           9.3837    0.1804    0.7127 H       1  UNL1        0.0628
     48 H          12.1237    2.2200    0.8022 H       1  UNL1        0.2954
     49 H           8.0827    3.8780   -0.9003 H       1  UNL1        0.0626
     50 H           5.7580    3.0289   -0.8828 H       1  UNL1        0.0624
     51 H           4.0913    2.5002    0.7611 H       1  UNL1        0.0624
     52 H           1.8054    1.7901    0.7638 H       1  UNL1        0.0636
     53 H          -3.7936   -4.9222   -2.2770 H       1  UNL1        0.0846
     54 H          -4.1110   -6.1021   -0.1875 H       1  UNL1        0.0845
     55 H          -2.2872   -2.8190    2.9244 H       1  UNL1        0.0294
     56 H          -0.7537   -2.4180    1.9808 H       1  UNL1        0.0294
     57 H          -1.0097   -4.0604    2.5917 H       1  UNL1        0.0294
     58 H          -0.9538    0.3640   -2.0209 H       1  UNL1        0.0303
     59 H          -2.5023   -0.5101   -2.0441 H       1  UNL1        0.0303
     60 H          -1.8021    2.2763   -1.0086 H       1  UNL1        0.0427
     61 H          -2.8512    1.8497   -2.4151 H       1  UNL1        0.0427
     62 H          -4.4261   -0.2243   -1.4400 H       1  UNL1        0.0491
     63 H          -4.9972    1.2551   -2.2146 H       1  UNL1        0.0491
     64 H          -7.8225   -1.4727    1.3160 H       1  UNL1        0.0829
     65 H          -9.3866    0.4391    1.3946 H       1  UNL1        0.0633
     66 H          -8.7937    2.5056    0.2572 H       1  UNL1        0.0621
     67 H          -5.5695    3.4600   -0.7465 H       1  UNL1        0.0278
     68 H          -6.4449    2.8867   -2.2652 H       1  UNL1        0.0278
     69 H          -7.2971    3.7754   -0.9875 H       1  UNL1        0.0278
     70 H          -4.3656    0.9415    1.3521 H       1  UNL1        0.0427
     71 H          -2.7641    1.7900    1.2547 H       1  UNL1        0.0427
     72 H          -3.4474   -1.0915    0.5494 H       1  UNL1        0.0303
     73 H          -2.3567   -0.4021    1.8321 H       1  UNL1        0.0303
     74 H           2.9352   -1.9811   -0.9290 H       1  UNL1        0.0636
     75 H           5.2359   -1.2435   -0.9304 H       1  UNL1        0.0624
@<TRIPOS>BOND
     1     1     2    1
     2     2     3   ar
     3     3     4   ar
     4     4     5    1
     5     5     6    2
     6     5     7    1
     7     4     8   ar
     8     8     9   ar
     9     9    10   ar
    10    10    11    1
    11    11    12   ar
    12    12    13   ar
    13    13    14   ar
    14    14    15    1
    15    15    16   am
    16    16    17    2
    17    16    18   am
    18    18    19    1
    19    19    20   ar
    20    20    21   ar
    21    21    22   ar
    22    22    23   ar
    23    23    24   ar
    24    24    25    1
    25    18    26    1
    26    26    27    1
    27    27    28    1
    28    28    29    1
    29    29    30    1
    30    30    31    1
    31    31    32   ar
    32    32    33   ar
    33    33    34   ar
    34    34    35   ar
    35    35    36   ar
    36    36    37    1
    37    29    38    1
    38    38    39    1
    39    26    40    1
    40    40    41    2
    41    14    42   ar
    42    42    43   ar
    43    10     2   ar
    44    43    11   ar
    45    40    15   am
    46    24    19   ar
    47    39    26    1
    48    36    31   ar
    49     1    44    1
    50     1    45    1
    51     1    46    1
    52     3    47    1
    53     7    48    1
    54     8    49    1
    55     9    50    1
    56    12    51    1
    57    13    52    1
    58    21    53    1
    59    22    54    1
    60    25    55    1
    61    25    56    1
    62    25    57    1
    63    27    58    1
    64    27    59    1
    65    28    60    1
    66    28    61    1
    67    30    62    1
    68    30    63    1
    69    33    64    1
    70    34    65    1
    71    35    66    1
    72    37    67    1
    73    37    68    1
    74    37    69    1
    75    38    70    1
    76    38    71    1
    77    39    72    1
    78    39    73    1
    79    42    74    1
    80    43    75    1
