@<TRIPOS>MOLECULE
*****
 48 50 0 0 0
SMALL
GASTEIGER

@<TRIPOS>ATOM
      1 C           8.6061    0.8857    1.5087 C.3     1  UNL1        0.0789
      2 O           7.8628   -0.3188    1.4168 O.3     1  UNL1       -0.4936
      3 C           6.5665   -0.3788    0.9747 C.ar    1  UNL1        0.1381
      4 C           5.9540   -1.6128    0.9321 C.ar    1  UNL1       -0.0163
      5 C           4.6582   -1.6858    0.4920 C.ar    1  UNL1       -0.0277
      6 C           3.9801   -0.5614    0.1014 C.ar    1  UNL1        0.1259
      7 C           2.5883   -0.6985   -0.3635 C.2     1  UNL1        0.2666
      8 O           2.0780   -1.8415   -0.3828 O.2     1  UNL1       -0.2682
      9 N           1.8256    0.4188   -0.7831 N.am    1  UNL1       -0.2802
     10 C           0.4698    0.2918   -1.2369 C.ar    1  UNL1        0.0369
     11 C           0.2047    0.0763   -2.5723 C.ar    1  UNL1       -0.0023
     12 C          -1.0965   -0.0462   -3.0117 C.ar    1  UNL1        0.1605
     13 F          -1.4135   -0.2600   -4.3218 F       1  UNL1       -0.2024
     14 C          -2.1279    0.0520   -2.0821 C.ar    1  UNL1        0.1640
     15 F          -3.3782   -0.0662   -2.5152 F       1  UNL1       -0.2021
     16 C          -1.8936    0.2658   -0.7487 C.ar    1  UNL1        0.0224
     17 C          -3.0022    0.3639    0.1958 C.3     1  UNL1        0.1259
     18 C          -2.4030    0.8314    1.5445 C.3     1  UNL1        0.1196
     19 F          -3.4738    0.9243    2.4277 F       1  UNL1       -0.2462
     20 C          -3.7526   -0.9044    0.4035 C.3     1  UNL1        0.0251
     21 C          -5.2067   -0.8750    0.0089 C.3     1  UNL1        0.1998
     22 C          -5.9644   -1.9410    0.7826 C.3     1  UNL1        0.4266
     23 F          -5.4624   -3.1937    0.5185 F       1  UNL1       -0.1669
     24 F          -5.9117   -1.7481    2.1367 F       1  UNL1       -0.1669
     25 F          -7.3031   -1.9017    0.4088 F       1  UNL1       -0.1669
     26 O          -5.7380    0.4016    0.3790 O.2     1  UNL1       -0.4534
     27 C          -5.0993    1.5160   -0.1438 C.2     1  UNL1        0.2766
     28 N          -5.8050    2.6894   -0.5932 N.pl3   1  UNL1       -0.3134
     29 N          -3.8261    1.4757   -0.2198 N.2     1  UNL1       -0.2228
     30 C          -0.5893    0.3829   -0.3463 C.ar    1  UNL1       -0.0320
     31 N           4.5856    0.6317    0.1472 N.ar    1  UNL1       -0.2467
     32 C           5.8523    0.7346    0.5731 C.ar    1  UNL1        0.0700
     33 H           8.2058    1.4768    2.3547 H       1  UNL1        0.0660
     34 H           9.6896    0.6998    1.5768 H       1  UNL1        0.0660
     35 H           8.3958    1.4474    0.5514 H       1  UNL1        0.0660
     36 H           6.5077   -2.5151    1.2488 H       1  UNL1        0.0655
     37 H           4.2018   -2.6666    0.4687 H       1  UNL1        0.0641
     38 H           2.3058    1.3574   -0.7459 H       1  UNL1        0.1552
     39 H           0.9910   -0.0032   -3.3113 H       1  UNL1        0.0666
     40 H          -1.7744    0.0065    1.9492 H       1  UNL1        0.0643
     41 H          -1.8739    1.7833    1.4519 H       1  UNL1        0.0643
     42 H          -3.7729   -1.1151    1.5155 H       1  UNL1        0.0331
     43 H          -3.2299   -1.7993   -0.0049 H       1  UNL1        0.0331
     44 H          -5.3965   -1.0732   -1.0465 H       1  UNL1        0.0826
     45 H          -6.7034    2.9639   -0.1764 H       1  UNL1        0.1466
     46 H          -5.4012    3.2757   -1.3560 H       1  UNL1        0.1466
     47 H          -0.3043    0.5552    0.6887 H       1  UNL1        0.0640
     48 H           6.3741    1.6986    0.6216 H       1  UNL1        0.0867
@<TRIPOS>BOND
     1     1     2    1
     2     2     3    1
     3     3     4   ar
     4     4     5   ar
     5     5     6   ar
     6     6     7    1
     7     7     8    2
     8     7     9   am
     9     9    10    1
    10    10    11   ar
    11    11    12   ar
    12    12    13    1
    13    12    14   ar
    14    14    15    1
    15    14    16   ar
    16    16    17    1
    17    17    18    1
    18    18    19    1
    19    17    20    1
    20    20    21    1
    21    21    22    1
    22    22    23    1
    23    22    24    1
    24    22    25    1
    25    21    26    1
    26    26    27    1
    27    27    28    1
    28    27    29    2
    29    16    30   ar
    30     6    31   ar
    31    31    32   ar
    32    32     3   ar
    33    30    10   ar
    34    29    17    1
    35     1    33    1
    36     1    34    1
    37     1    35    1
    38     4    36    1
    39     5    37    1
    40     9    38    1
    41    11    39    1
    42    18    40    1
    43    18    41    1
    44    20    42    1
    45    20    43    1
    46    21    44    1
    47    28    45    1
    48    28    46    1
    49    30    47    1
    50    32    48    1
