@<TRIPOS>MOLECULE
*****
 78 80 0 0 0
SMALL
GASTEIGER

@<TRIPOS>ATOM
      1 C          -5.3680   -3.8501    1.0628 C.3     1  UNL1       -0.0497
      2 C          -4.6666   -3.1762   -0.0802 C.3     1  UNL1        0.0048
      3 C          -5.5136   -3.3574   -1.3268 C.3     1  UNL1       -0.0497
      4 N          -3.3094   -3.5881   -0.2851 N.3     1  UNL1       -0.3000
      5 C          -3.0870   -4.9494   -0.5800 C.3     1  UNL1       -0.0122
      6 C          -2.5287   -2.6105   -0.9371 C.3     1  UNL1        0.0108
      7 C          -1.2005   -3.0892   -1.4652 C.3     1  UNL1       -0.0356
      8 C          -0.1453   -2.0664   -1.3558 C.3     1  UNL1       -0.0326
      9 C          -0.5769   -0.6096   -1.6183 C.3     1  UNL1        0.0304
     10 N           0.5990    0.1723   -1.3188 N.am    1  UNL1       -0.2965
     11 C           1.3985    0.8421   -2.3402 C.3     1  UNL1        0.0172
     12 C           2.1634    1.9154   -1.6492 C.3     1  UNL1       -0.0101
     13 C           2.3227    1.3740   -0.2557 C.3     1  UNL1        0.1013
     14 N           3.6530    0.7892   -0.0864 N.am    1  UNL1       -0.3000
     15 C           4.5826    1.3036    0.8312 C.2     1  UNL1        0.2447
     16 O           4.1927    2.3140    1.5136 O.2     1  UNL1       -0.2702
     17 C           5.9237    0.8124    1.0782 C.ar    1  UNL1        0.0372
     18 C           6.4606   -0.2888    0.4249 C.ar    1  UNL1       -0.0496
     19 C           7.7388   -0.7510    0.6512 C.ar    1  UNL1       -0.0605
     20 C           8.5763   -0.1038    1.5810 C.ar    1  UNL1       -0.0501
     21 C           8.0456    0.9778    2.2204 C.ar    1  UNL1        0.0555
     22 C           8.8847    1.7295    3.2153 C.3     1  UNL1        0.4174
     23 F          10.1276    1.1861    3.3577 F       1  UNL1       -0.1659
     24 F           9.0174    3.0033    2.6450 F       1  UNL1       -0.1659
     25 F           8.2040    1.8529    4.4072 F       1  UNL1       -0.1659
     26 C           6.7631    1.4371    1.9918 C.ar    1  UNL1       -0.0380
     27 C           1.2265    0.4380   -0.0863 C.2     1  UNL1        0.2362
     28 O           0.9121   -0.0549    1.0455 O.2     1  UNL1       -0.2736
     29 C          -1.8683   -0.2908   -0.9876 C.3     1  UNL1       -0.0016
     30 C          -2.3790    0.9966   -0.6293 C.3     1  UNL1        0.0709
     31 S          -1.7440    2.1566    0.4422 S.O2    1  UNL1       -0.0259
     32 O          -0.5318    2.8972   -0.1283 O.2     1  UNL1       -0.1738
     33 O          -1.4148    1.7957    1.8258 O.2     1  UNL1       -0.1738
     34 C          -2.9194    3.5619    0.5863 C.3     1  UNL1        0.0794
     35 C          -3.1245    4.1945   -0.7574 C.3     1  UNL1       -0.0405
     36 C          -2.3277    4.4889    1.6173 C.3     1  UNL1       -0.0405
     37 C          -4.1869    2.9567    1.1492 C.3     1  UNL1       -0.0405
     38 C          -2.1682   -1.4297   -0.0065 C.3     1  UNL1       -0.0313
     39 H          -6.4750   -3.8099    0.8429 H       1  UNL1        0.0245
     40 H          -5.1210   -4.9154    1.1669 H       1  UNL1        0.0245
     41 H          -5.2113   -3.2678    1.9833 H       1  UNL1        0.0245
     42 H          -4.6803   -2.0787    0.1265 H       1  UNL1        0.0457
     43 H          -5.3368   -4.2816   -1.8636 H       1  UNL1        0.0245
     44 H          -6.5763   -3.2941   -0.9746 H       1  UNL1        0.0245
     45 H          -5.3963   -2.5160   -2.0341 H       1  UNL1        0.0245
     46 H          -4.0698   -5.4380   -0.7884 H       1  UNL1        0.0391
     47 H          -2.6810   -5.4639    0.3202 H       1  UNL1        0.0391
     48 H          -2.4686   -5.1395   -1.4852 H       1  UNL1        0.0391
     49 H          -3.0791   -2.2168   -1.8458 H       1  UNL1        0.0463
     50 H          -1.3059   -3.5271   -2.5000 H       1  UNL1        0.0281
     51 H          -0.8824   -3.9543   -0.7916 H       1  UNL1        0.0281
     52 H           0.4474   -2.1119   -0.4200 H       1  UNL1        0.0284
     53 H           0.6181   -2.2809   -2.1588 H       1  UNL1        0.0284
     54 H          -0.6871   -0.6079   -2.7692 H       1  UNL1        0.0504
     55 H           0.7652    1.1503   -3.1688 H       1  UNL1        0.0465
     56 H           2.0980    0.0425   -2.7582 H       1  UNL1        0.0465
     57 H           3.1504    2.0253   -2.1683 H       1  UNL1        0.0303
     58 H           1.6408    2.8597   -1.6767 H       1  UNL1        0.0303
     59 H           2.2415    2.1929    0.4501 H       1  UNL1        0.0595
     60 H           3.9377   -0.0338   -0.6555 H       1  UNL1        0.1498
     61 H           5.8695   -0.8255   -0.2988 H       1  UNL1        0.0625
     62 H           8.1689   -1.6074    0.1536 H       1  UNL1        0.0618
     63 H           9.5690   -0.4833    1.7394 H       1  UNL1        0.0623
     64 H           6.4056    2.2829    2.5281 H       1  UNL1        0.0631
     65 H          -2.6437   -0.6271   -1.8399 H       1  UNL1        0.0335
     66 H          -3.5019    0.9008   -0.3475 H       1  UNL1        0.0503
     67 H          -2.5500    1.5567   -1.6393 H       1  UNL1        0.0503
     68 H          -3.4323    5.2497   -0.6208 H       1  UNL1        0.0251
     69 H          -3.9569    3.6726   -1.2494 H       1  UNL1        0.0251
     70 H          -2.2281    4.0879   -1.3841 H       1  UNL1        0.0251
     71 H          -1.2356    4.4116    1.7327 H       1  UNL1        0.0251
     72 H          -2.6323    5.5274    1.3458 H       1  UNL1        0.0251
     73 H          -2.7826    4.2796    2.6196 H       1  UNL1        0.0251
     74 H          -3.8770    2.0918    1.7909 H       1  UNL1        0.0251
     75 H          -4.7909    2.5053    0.3292 H       1  UNL1        0.0251
     76 H          -4.7512    3.6198    1.8037 H       1  UNL1        0.0251
     77 H          -2.9813   -1.1878    0.6820 H       1  UNL1        0.0284
     78 H          -1.3094   -1.7680    0.5589 H       1  UNL1        0.0284
@<TRIPOS>BOND
     1     1     2    1
     2     2     3    1
     3     2     4    1
     4     4     5    1
     5     4     6    1
     6     6     7    1
     7     7     8    1
     8     8     9    1
     9     9    10    1
    10    10    11    1
    11    11    12    1
    12    12    13    1
    13    13    14    1
    14    14    15   am
    15    15    16    2
    16    15    17    1
    17    17    18   ar
    18    18    19   ar
    19    19    20   ar
    20    20    21   ar
    21    21    22    1
    22    22    23    1
    23    22    24    1
    24    22    25    1
    25    21    26   ar
    26    13    27    1
    27    27    28    2
    28     9    29    1
    29    29    30    1
    30    30    31    1
    31    31    32    2
    32    31    33    2
    33    31    34    1
    34    34    35    1
    35    34    36    1
    36    34    37    1
    37    29    38    1
    38    38     6    1
    39    27    10   am
    40    26    17   ar
    41     1    39    1
    42     1    40    1
    43     1    41    1
    44     2    42    1
    45     3    43    1
    46     3    44    1
    47     3    45    1
    48     5    46    1
    49     5    47    1
    50     5    48    1
    51     6    49    1
    52     7    50    1
    53     7    51    1
    54     8    52    1
    55     8    53    1
    56     9    54    1
    57    11    55    1
    58    11    56    1
    59    12    57    1
    60    12    58    1
    61    13    59    1
    62    14    60    1
    63    18    61    1
    64    19    62    1
    65    20    63    1
    66    26    64    1
    67    29    65    1
    68    30    66    1
    69    30    67    1
    70    35    68    1
    71    35    69    1
    72    35    70    1
    73    36    71    1
    74    36    72    1
    75    36    73    1
    76    37    74    1
    77    37    75    1
    78    37    76    1
    79    38    77    1
    80    38    78    1
