@<TRIPOS>MOLECULE
*****
 89 92 0 0 0
SMALL
GASTEIGER

@<TRIPOS>ATOM
      1 C           2.4521    3.0105    0.3785 C.3     1  UNL1       -0.0381
      2 C           1.8643    1.5856    0.5254 C.3     1  UNL1        0.0966
      3 N           2.1658    0.9315   -0.7189 N.am    1  UNL1       -0.3027
      4 C           3.2832    0.0147   -0.6915 C.2     1  UNL1        0.2363
      5 O           3.9190   -0.1568    0.3737 O.2     1  UNL1       -0.2737
      6 CA          3.7018   -0.7350   -1.9019 C.3     1  UNL1        0.1253
      7 C           3.7662    0.0764   -3.1472 C.3     1  UNL1        0.0712
      8 O           4.7417    1.0401   -3.1753 O.3     1  UNL1       -0.3927
      9 N           4.9110   -1.4524   -1.6317 N.am    1  UNL1       -0.2676
     10 C           6.0894   -0.8517   -1.1050 C.2     1  UNL1        0.4012
     11 O           6.1115    0.3836   -0.8504 O.2     1  UNL1       -0.2265
     12 O           7.2529   -1.5578   -0.8460 O.3     1  UNL1       -0.4456
     13 C           8.3804   -0.9082   -0.3314 C.3     1  UNL1        0.1191
     14 C           9.4678   -1.9325   -0.1670 C.ar    1  UNL1       -0.0103
     15 C           9.6348   -2.6391    1.0010 C.ar    1  UNL1       -0.0554
     16 C          10.6617   -3.5776    1.1174 C.ar    1  UNL1       -0.0614
     17 C          11.5392   -3.8230    0.0633 C.ar    1  UNL1       -0.0617
     18 C          11.3636   -3.1143   -1.0952 C.ar    1  UNL1       -0.0614
     19 C          10.3521   -2.1908   -1.2088 C.ar    1  UNL1       -0.0554
     20 C           0.4346    1.6504    0.8327 C.2     1  UNL1        0.2338
     21 O           0.0184    2.1251    1.9437 O.2     1  UNL1       -0.2738
     22 N          -0.5903    1.2073   -0.0494 N.am    1  UNL1       -0.2981
     23 C          -2.0038    1.3110    0.3420 C.3     1  UNL1        0.1520
     24 C          -2.5248    2.4924   -0.4845 C.3     1  UNL1        0.0043
     25 C          -3.9375    2.7859   -0.2370 C.ar    1  UNL1       -0.0447
     26 C          -4.9603    2.2254   -0.9644 C.ar    1  UNL1       -0.0551
     27 C          -6.2567    2.5649   -0.6486 C.ar    1  UNL1       -0.0194
     28 C          -6.5772    3.4471    0.3698 C.ar    1  UNL1        0.1420
     29 N          -7.9220    3.7624    0.6571 N.pl3   1  UNL1       -0.0734
     30 C          -8.7131    4.0911   -0.2852 C.cat   1  UNL1        0.3821
     31 N          -8.2560    4.1431   -1.6185 N.pl3   1  UNL1       -0.2889
     32 N         -10.0565    4.4056    0.0042 N.pl3   1  UNL1       -0.2889
     33 C          -5.5235    4.0087    1.0992 C.ar    1  UNL1       -0.0194
     34 C          -4.2454    3.6730    0.7883 C.ar    1  UNL1       -0.0551
     35 P          -2.8618   -0.2085   -0.0889 P.3     1  UNL1        0.4539
     36 O          -2.8211   -0.4133   -1.5887 O.2     1  UNL1       -0.2304
     37 O          -2.1361   -1.5188    0.7369 O.3     1  UNL1       -0.4144
     38 C          -1.9845   -2.7671    0.2080 C.ar    1  UNL1        0.1309
     39 C          -0.7512   -3.3746    0.2504 C.ar    1  UNL1       -0.0194
     40 C          -0.5227   -4.6286   -0.2618 C.ar    1  UNL1       -0.0583
     41 C          -1.5524   -5.3357   -0.8503 C.ar    1  UNL1       -0.0615
     42 C          -2.7975   -4.7525   -0.9065 C.ar    1  UNL1       -0.0583
     43 C          -3.0042   -3.4978   -0.3887 C.ar    1  UNL1       -0.0194
     44 O          -4.4788   -0.0871    0.4491 O.3     1  UNL1       -0.4144
     45 C          -4.7609   -0.4214    1.7630 C.ar    1  UNL1        0.1309
     46 C          -5.3256   -1.6530    2.0245 C.ar    1  UNL1       -0.0194
     47 C          -5.6380   -2.0592    3.3069 C.ar    1  UNL1       -0.0583
     48 C          -5.3830   -1.2188    4.3687 C.ar    1  UNL1       -0.0615
     49 C          -4.8187    0.0165    4.1315 C.ar    1  UNL1       -0.0583
     50 C          -4.5148    0.4017    2.8422 C.ar    1  UNL1       -0.0194
     51 H           3.5276    2.9325    0.2033 H       1  UNL1        0.0252
     52 H           2.2104    3.4926    1.3653 H       1  UNL1        0.0252
     53 H           1.8941    3.5583   -0.3926 H       1  UNL1        0.0252
     54 H           2.4133    1.1698    1.3857 H       1  UNL1        0.0592
     55 H           1.6720    1.0505   -1.6036 H       1  UNL1        0.1495
     56 HA          2.8976   -1.5127   -2.0304 H       1  UNL1        0.0619
     57 H1          2.7658    0.4889   -3.3913 H       1  UNL1        0.0580
     58 H2          3.9926   -0.6479   -3.9816 H       1  UNL1        0.0580
     59 H           4.4616    1.7907   -3.7633 H       1  UNL1        0.2095
     60 H           5.0079   -2.4974   -1.8098 H       1  UNL1        0.1529
     61 H           8.7353   -0.1712   -1.0774 H       1  UNL1        0.0749
     62 H           8.1853   -0.3942    0.6328 H       1  UNL1        0.0749
     63 H           8.9569   -2.4582    1.8385 H       1  UNL1        0.0621
     64 H          10.7912   -4.1358    2.0431 H       1  UNL1        0.0618
     65 H          12.3319   -4.5678    0.2036 H       1  UNL1        0.0618
     66 H          12.0304   -3.2890   -1.9234 H       1  UNL1        0.0618
     67 H          10.1754   -1.6025   -2.1232 H       1  UNL1        0.0621
     68 H          -0.3575    0.8103   -0.9695 H       1  UNL1        0.1497
     69 H          -2.0674    1.6022    1.3938 H       1  UNL1        0.0651
     70 H          -2.2950    2.3215   -1.5479 H       1  UNL1        0.0338
     71 H          -1.8999    3.3637   -0.1587 H       1  UNL1        0.0338
     72 H          -4.7361    1.5428   -1.7547 H       1  UNL1        0.0621
     73 H          -7.0558    2.1284   -1.2131 H       1  UNL1        0.0653
     74 H          -7.4103    4.6686   -1.9135 H       1  UNL1        0.2547
     75 H          -8.7804    3.6333   -2.3693 H       1  UNL1        0.2547
     76 H         -10.7756    3.6700   -0.0658 H       1  UNL1        0.2547
     77 H         -10.3106    5.3611    0.2837 H       1  UNL1        0.2547
     78 H          -5.8026    4.6991    1.8947 H       1  UNL1        0.0653
     79 H          -3.4150    4.1090    1.3583 H       1  UNL1        0.0621
     80 H           0.1033   -2.8638    0.7032 H       1  UNL1        0.0654
     81 H           0.4659   -5.0496   -0.1977 H       1  UNL1        0.0619
     82 H          -1.3438   -6.3387   -1.2554 H       1  UNL1        0.0618
     83 H          -3.5930   -5.3334   -1.3765 H       1  UNL1        0.0619
     84 H          -3.9967   -3.0792   -0.4552 H       1  UNL1        0.0654
     85 H          -5.5453   -2.3494    1.2329 H       1  UNL1        0.0654
     86 H          -6.0867   -3.0496    3.4615 H       1  UNL1        0.0619
     87 H          -5.6423   -1.5725    5.3705 H       1  UNL1        0.0618
     88 H          -4.6198    0.6780    4.9869 H       1  UNL1        0.0619
     89 H          -4.0775    1.3635    2.6812 H       1  UNL1        0.0654
@<TRIPOS>BOND
     1     1     2    1
     2     2     3    1
     3     3     4   am
     4     4     5    2
     5     4     6    1
     6     6     7    1
     7     7     8    1
     8     6     9    1
     9     9    10   am
    10    10    11    2
    11    10    12    1
    12    12    13    1
    13    13    14    1
    14    14    15   ar
    15    15    16   ar
    16    16    17   ar
    17    17    18   ar
    18    18    19   ar
    19     2    20    1
    20    20    21    2
    21    20    22   am
    22    22    23    1
    23    23    24    1
    24    24    25    1
    25    25    26   ar
    26    26    27   ar
    27    27    28   ar
    28    28    29    1
    29    29    30    2
    30    30    31    1
    31    30    32    1
    32    28    33   ar
    33    33    34   ar
    34    23    35    1
    35    35    36    2
    36    35    37    1
    37    37    38    1
    38    38    39   ar
    39    39    40   ar
    40    40    41   ar
    41    41    42   ar
    42    42    43   ar
    43    35    44    1
    44    44    45    1
    45    45    46   ar
    46    46    47   ar
    47    47    48   ar
    48    48    49   ar
    49    49    50   ar
    50    19    14   ar
    51    34    25   ar
    52    43    38   ar
    53    50    45   ar
    54     1    51    1
    55     1    52    1
    56     1    53    1
    57     2    54    1
    58     3    55    1
    59     6    56    1
    60     7    57    1
    61     7    58    1
    62     8    59    1
    63     9    60    1
    64    13    61    1
    65    13    62    1
    66    15    63    1
    67    16    64    1
    68    17    65    1
    69    18    66    1
    70    19    67    1
    71    22    68    1
    72    23    69    1
    73    24    70    1
    74    24    71    1
    75    26    72    1
    76    27    73    1
    77    31    74    1
    78    31    75    1
    79    32    76    1
    80    32    77    1
    81    33    78    1
    82    34    79    1
    83    39    80    1
    84    40    81    1
    85    41    82    1
    86    42    83    1
    87    43    84    1
    88    46    85    1
    89    47    86    1
    90    48    87    1
    91    49    88    1
    92    50    89    1
