@<TRIPOS>MOLECULE
*****
 73 77 0 0 0
SMALL
GASTEIGER

@<TRIPOS>ATOM
      1 C           8.9693    3.8597    0.6279 C.3     1  UNL1       -0.0306
      2 C           8.3082    3.3553   -0.6184 C.3     1  UNL1        0.0885
      3 O           7.4125    2.3016   -0.3930 O.3     1  UNL1       -0.4744
      4 C           7.8298    1.1054    0.1829 C.ar    1  UNL1        0.2555
      5 N           9.0559    0.7602    0.5994 N.ar    1  UNL1       -0.1317
      6 N           8.9562   -0.4513    1.0659 N.ar    1  UNL1       -0.2692
      7 C          10.0365   -1.2405    1.6276 C.3     1  UNL1        0.0304
      8 C           7.6813   -0.9295    0.9703 C.ar    1  UNL1        0.0503
      9 C           6.9256    0.0499    0.4042 C.ar    1  UNL1        0.1152
     10 N           5.5641    0.0283    0.0901 N.pl3   1  UNL1       -0.2782
     11 C           4.7099   -1.0353    0.3734 C.ar    1  UNL1        0.2203
     12 N           5.1360   -2.1148    1.0381 N.ar    1  UNL1       -0.2198
     13 C           4.3499   -3.1569    1.3300 C.ar    1  UNL1        0.0685
     14 C           3.0324   -3.1454    0.9388 C.ar    1  UNL1        0.1674
     15 F           2.2121   -4.1832    1.2167 F       1  UNL1       -0.2016
     16 C           2.5546   -2.0418    0.2460 C.ar    1  UNL1        0.1132
     17 C           1.1642   -1.9499   -0.2205 C.ar    1  UNL1        0.0284
     18 C           0.1358   -2.8196   -0.0629 C.ar    1  UNL1        0.0121
     19 N          -0.9751   -2.3039   -0.6686 N.ar    1  UNL1       -0.3586
     20 C          -0.6893   -1.1162   -1.2166 C.ar    1  UNL1        0.0686
     21 C          -1.5061   -0.2556   -1.9224 C.ar    1  UNL1        0.0576
     22 N          -2.8635   -0.5228   -2.1838 N.am    1  UNL1       -0.2825
     23 C          -3.8532   -0.0914   -1.2765 C.2     1  UNL1        0.2342
     24 O          -3.4621    0.5283   -0.2534 O.2     1  UNL1       -0.2738
     25 C          -5.3037   -0.3382   -1.4844 C.3     1  UNL1        0.0850
     26 C          -5.4597   -1.8107   -1.7606 C.3     1  UNL1       -0.0409
     27 N          -6.0479    0.1601   -0.4149 N.3     1  UNL1       -0.2866
     28 C          -5.9093   -0.3585    0.8790 C.3     1  UNL1        0.0127
     29 C          -6.2263    0.8076    1.8348 C.3     1  UNL1        0.0115
     30 N          -7.6194    1.0610    1.7039 N.3     1  UNL1       -0.3027
     31 C          -8.4109    0.3033    2.6228 C.3     1  UNL1       -0.0127
     32 C          -8.1769    1.0697    0.4094 C.3     1  UNL1        0.0140
     33 C          -7.2586    0.7993   -0.7417 C.3     1  UNL1        0.0211
     34 C          -6.9394    2.1344   -1.3906 C.3     1  UNL1       -0.0483
     35 C          -0.9230    0.9225   -2.3814 C.ar    1  UNL1       -0.0384
     36 C           0.4023    1.1899   -2.1298 C.ar    1  UNL1       -0.0593
     37 C           1.1933    0.3115   -1.4223 C.ar    1  UNL1       -0.0518
     38 C           0.6456   -0.8760   -0.9475 C.ar    1  UNL1        0.0107
     39 N           3.4063   -1.0590    0.0035 N.ar    1  UNL1       -0.2113
     40 H           9.0132    4.9663    0.5824 H       1  UNL1        0.0262
     41 H          10.0493    3.5341    0.6727 H       1  UNL1        0.0262
     42 H           8.4379    3.5934    1.5603 H       1  UNL1        0.0262
     43 H           9.1011    3.1224   -1.3615 H       1  UNL1        0.0694
     44 H           7.6954    4.1968   -1.0554 H       1  UNL1        0.0694
     45 H          11.0022   -0.7557    1.4205 H       1  UNL1        0.0473
     46 H           9.8257   -1.3389    2.7135 H       1  UNL1        0.0473
     47 H           9.9477   -2.2563    1.1843 H       1  UNL1        0.0473
     48 H           7.3907   -1.9321    1.3088 H       1  UNL1        0.0846
     49 H           5.1461    0.8619   -0.3900 H       1  UNL1        0.1552
     50 H           4.7252   -4.0052    1.8651 H       1  UNL1        0.0861
     51 H           0.1658   -3.7643    0.4506 H       1  UNL1        0.0814
     52 H          -1.9008   -2.7703   -0.6958 H       1  UNL1        0.1654
     53 H          -3.1358   -1.0321   -3.0361 H       1  UNL1        0.1549
     54 H          -5.5654    0.2011   -2.4432 H       1  UNL1        0.0556
     55 H          -6.4955   -2.1280   -1.9217 H       1  UNL1        0.0249
     56 H          -4.9936   -2.4226   -0.9606 H       1  UNL1        0.0249
     57 H          -4.9048   -2.0597   -2.7017 H       1  UNL1        0.0249
     58 H          -6.6616   -1.1320    1.1625 H       1  UNL1        0.0439
     59 H          -4.8809   -0.6794    1.0806 H       1  UNL1        0.0439
     60 H          -5.9879    0.5563    2.8734 H       1  UNL1        0.0439
     61 H          -5.6419    1.6777    1.4452 H       1  UNL1        0.0439
     62 H          -9.3240    0.8842    2.8430 H       1  UNL1        0.0391
     63 H          -7.8627    0.1866    3.5930 H       1  UNL1        0.0391
     64 H          -8.6764   -0.6684    2.1742 H       1  UNL1        0.0391
     65 H          -8.9764    0.2719    0.3633 H       1  UNL1        0.0442
     66 H          -8.7492    2.0332    0.2797 H       1  UNL1        0.0442
     67 H          -7.7744    0.1894   -1.5404 H       1  UNL1        0.0473
     68 H          -6.1010    2.6079   -0.8168 H       1  UNL1        0.0245
     69 H          -7.7992    2.8523   -1.2574 H       1  UNL1        0.0245
     70 H          -6.6565    2.0299   -2.4511 H       1  UNL1        0.0245
     71 H          -1.5699    1.5942   -2.9350 H       1  UNL1        0.0637
     72 H           0.8532    2.1000   -2.4855 H       1  UNL1        0.0618
     73 H           2.2473    0.5378   -1.2282 H       1  UNL1        0.0624
@<TRIPOS>BOND
     1     1     2    1
     2     2     3    1
     3     3     4    1
     4     4     5   ar
     5     5     6   ar
     6     6     7    1
     7     6     8   ar
     8     8     9   ar
     9     9    10    1
    10    10    11    1
    11    11    12   ar
    12    12    13   ar
    13    13    14   ar
    14    14    15    1
    15    14    16   ar
    16    16    17    1
    17    17    18   ar
    18    18    19   ar
    19    19    20   ar
    20    20    21   ar
    21    21    22    1
    22    22    23   am
    23    23    24    2
    24    23    25    1
    25    25    26    1
    26    25    27    1
    27    27    28    1
    28    28    29    1
    29    29    30    1
    30    30    31    1
    31    30    32    1
    32    32    33    1
    33    33    34    1
    34    21    35   ar
    35    35    36   ar
    36    36    37   ar
    37    37    38   ar
    38    16    39   ar
    39     9     4   ar
    40    39    11   ar
    41    38    17   ar
    42    38    20   ar
    43    33    27    1
    44     1    40    1
    45     1    41    1
    46     1    42    1
    47     2    43    1
    48     2    44    1
    49     7    45    1
    50     7    46    1
    51     7    47    1
    52     8    48    1
    53    10    49    1
    54    13    50    1
    55    18    51    1
    56    19    52    1
    57    22    53    1
    58    25    54    1
    59    26    55    1
    60    26    56    1
    61    26    57    1
    62    28    58    1
    63    28    59    1
    64    29    60    1
    65    29    61    1
    66    31    62    1
    67    31    63    1
    68    31    64    1
    69    32    65    1
    70    32    66    1
    71    33    67    1
    72    34    68    1
    73    34    69    1
    74    34    70    1
    75    35    71    1
    76    36    72    1
    77    37    73    1
