@<TRIPOS>MOLECULE
*****
 66 68 0 0 0
SMALL
GASTEIGER

@<TRIPOS>ATOM
      1 C          -6.0567   -0.1808   -0.7969 C.3     1  UNL1        0.1854
      2 O          -6.2049   -0.6720   -2.1144 O.3     1  UNL1       -0.3649
      3 O          -5.1236   -0.9824   -0.1971 O.3     1  UNL1       -0.3407
      4 C          -4.3269   -0.3769    0.7522 C.3     1  UNL1        0.1134
      5 C          -5.0788   -0.0673    2.0334 C.3     1  UNL1        0.0730
      6 O          -5.5369   -1.2918    2.5148 O.3     1  UNL1       -0.3924
      7 C          -3.5473    0.8112    0.2329 C.3     1  UNL1        0.1184
      8 O          -2.1950    0.5285    0.0878 O.3     1  UNL1       -0.3401
      9 C          -1.3623    1.2565    0.9194 C.3     1  UNL1        0.1884
     10 O          -0.6549    0.4126    1.8032 O.3     1  UNL1       -0.3405
     11 C           0.0357   -0.5728    1.0803 C.3     1  UNL1        0.1134
     12 C           0.4633   -1.6171    2.0428 C.3     1  UNL1        0.0730
     13 O           1.1351   -2.6856    1.4987 O.3     1  UNL1       -0.3924
     14 C           1.1126    0.0382    0.2347 C.3     1  UNL1        0.1184
     15 O           1.9075   -0.8823   -0.3750 O.3     1  UNL1       -0.3401
     16 C           3.2733   -0.6477   -0.1488 C.3     1  UNL1        0.1884
     17 O           3.8223   -1.7415    0.4460 O.3     1  UNL1       -0.3405
     18 C           5.1735   -1.6128    0.7404 C.3     1  UNL1        0.1130
     19 C           5.4633   -1.2708    2.1643 C.3     1  UNL1        0.0730
     20 O           4.9000   -0.0673    2.5784 O.3     1  UNL1       -0.3924
     21 C           5.8572   -0.6368   -0.2053 C.3     1  UNL1        0.1119
     22 O           7.2266   -0.7924   -0.1742 O.3     1  UNL1       -0.3865
     23 C           5.2618   -0.9103   -1.5709 C.3     1  UNL1        0.1141
     24 O           5.9936   -0.2368   -2.5548 O.3     1  UNL1       -0.3864
     25 C           3.8451   -0.3818   -1.5402 C.3     1  UNL1        0.1341
     26 O           3.0560   -0.9653   -2.5295 O.3     1  UNL1       -0.3841
     27 C           0.3162    0.8656   -0.8099 C.3     1  UNL1        0.1144
     28 O           1.1195    1.3717   -1.7953 O.3     1  UNL1       -0.3864
     29 C          -0.3274    1.9504    0.0651 C.3     1  UNL1        0.1341
     30 O          -0.8443    2.9151   -0.7594 O.3     1  UNL1       -0.3841
     31 C          -4.1455    1.4032   -1.0260 C.3     1  UNL1        0.1144
     32 O          -3.9215    2.7842   -1.1110 O.3     1  UNL1       -0.3864
     33 C          -5.6557    1.2544   -0.9340 C.3     1  UNL1        0.1339
     34 O          -6.2370    1.7773   -2.1121 O.3     1  UNL1       -0.3841
     35 H          -7.0260   -0.3329   -0.3154 H       1  UNL1        0.0935
     36 H          -6.2146   -1.6587   -2.0370 H       1  UNL1        0.2126
     37 H          -3.5966   -1.1816    1.0631 H       1  UNL1        0.0647
     38 H          -5.8689    0.6752    1.9197 H       1  UNL1        0.0584
     39 H          -4.3031    0.2907    2.7645 H       1  UNL1        0.0584
     40 H          -6.5339   -1.2817    2.4953 H       1  UNL1        0.2095
     41 H          -3.6298    1.5903    1.0198 H       1  UNL1        0.0651
     42 H          -1.8944    1.9641    1.5851 H       1  UNL1        0.0938
     43 H          -0.7251   -0.9788    0.3613 H       1  UNL1        0.0647
     44 H          -0.4800   -2.0452    2.4909 H       1  UNL1        0.0584
     45 H           1.0178   -1.2008    2.9192 H       1  UNL1        0.0584
     46 H           0.5235   -3.3183    1.0413 H       1  UNL1        0.2095
     47 H           1.6893    0.7757    0.8389 H       1  UNL1        0.0651
     48 H           3.4250    0.2367    0.4979 H       1  UNL1        0.0938
     49 H           5.6381   -2.6030    0.5493 H       1  UNL1        0.0647
     50 H           6.5623   -1.1234    2.2364 H       1  UNL1        0.0584
     51 H           5.2412   -2.1246    2.8336 H       1  UNL1        0.0584
     52 H           5.4327    0.2764    3.3636 H       1  UNL1        0.2095
     53 H           5.5753    0.4116    0.0420 H       1  UNL1        0.0647
     54 H           7.6165   -0.2485   -0.9072 H       1  UNL1        0.2100
     55 H           5.2894   -2.0218   -1.7140 H       1  UNL1        0.0648
     56 H           6.7579   -0.8468   -2.7782 H       1  UNL1        0.2100
     57 H           3.8847    0.6964   -1.7817 H       1  UNL1        0.0671
     58 H           2.8828   -0.3791   -3.3053 H       1  UNL1        0.2101
     59 H          -0.4989    0.2040   -1.1464 H       1  UNL1        0.0648
     60 H           1.2849    2.3305   -1.6122 H       1  UNL1        0.2100
     61 H           0.4893    2.3257    0.7244 H       1  UNL1        0.0671
     62 H          -0.9385    3.7568   -0.2141 H       1  UNL1        0.2101
     63 H          -3.7597    0.9041   -1.9401 H       1  UNL1        0.0648
     64 H          -3.8753    3.0974   -2.0426 H       1  UNL1        0.2100
     65 H          -5.9880    1.9163   -0.1307 H       1  UNL1        0.0671
     66 H          -6.7214    1.1170   -2.6326 H       1  UNL1        0.2101
@<TRIPOS>BOND
     1     1     2    1
     2     1     3    1
     3     3     4    1
     4     4     5    1
     5     5     6    1
     6     4     7    1
     7     7     8    1
     8     8     9    1
     9     9    10    1
    10    10    11    1
    11    11    12    1
    12    12    13    1
    13    11    14    1
    14    14    15    1
    15    15    16    1
    16    16    17    1
    17    17    18    1
    18    18    19    1
    19    19    20    1
    20    18    21    1
    21    21    22    1
    22    21    23    1
    23    23    24    1
    24    23    25    1
    25    25    26    1
    26    14    27    1
    27    27    28    1
    28    27    29    1
    29    29    30    1
    30     7    31    1
    31    31    32    1
    32    31    33    1
    33    33    34    1
    34    33     1    1
    35    29     9    1
    36    25    16    1
    37     1    35    1
    38     2    36    1
    39     4    37    1
    40     5    38    1
    41     5    39    1
    42     6    40    1
    43     7    41    1
    44     9    42    1
    45    11    43    1
    46    12    44    1
    47    12    45    1
    48    13    46    1
    49    14    47    1
    50    16    48    1
    51    18    49    1
    52    19    50    1
    53    19    51    1
    54    20    52    1
    55    21    53    1
    56    22    54    1
    57    23    55    1
    58    24    56    1
    59    25    57    1
    60    26    58    1
    61    27    59    1
    62    28    60    1
    63    29    61    1
    64    30    62    1
    65    31    63    1
    66    32    64    1
    67    33    65    1
    68    34    66    1
