@<TRIPOS>MOLECULE
*****
 42 45 0 0 0
SMALL
GASTEIGER

@<TRIPOS>ATOM
      1 C           0.6529   -1.3181    0.0819 C.3     1  UNL1       -0.0154
      2 C           0.2187   -2.2578   -0.9667 C.3     1  UNL1       -0.0480
      3 C          -1.2039   -2.6942   -0.9384 C.3     1  UNL1       -0.0527
      4 C          -2.1573   -1.6779   -0.3767 C.3     1  UNL1       -0.0522
      5 C          -1.6180   -1.2964    0.9825 C.3     1  UNL1       -0.0430
      6 C          -0.3892   -0.4855    0.7473 C.3     1  UNL1        0.0015
      7 C           0.2250    0.0052    2.0651 C.3     1  UNL1       -0.0302
      8 C           1.7175    0.1156    1.9613 C.3     1  UNL1       -0.0003
      9 N           2.2035    0.4718    0.6582 N.3     1  UNL1       -0.3018
     10 C           3.6535    0.4357    0.7125 C.3     1  UNL1       -0.0125
     11 C           1.7186   -0.3412   -0.4195 C.3     1  UNL1        0.0177
     12 C           1.1913    0.5659   -1.4993 C.3     1  UNL1       -0.0115
     13 C          -0.0384    1.2745   -1.0490 C.ar    1  UNL1       -0.0419
     14 C          -0.7530    0.7514    0.0074 C.ar    1  UNL1       -0.0342
     15 C          -1.8750    1.4344    0.3874 C.ar    1  UNL1       -0.0162
     16 C          -2.2777    2.6032   -0.2613 C.ar    1  UNL1        0.1172
     17 O          -3.4208    3.3343    0.0959 O.3     1  UNL1       -0.5068
     18 C          -1.5372    3.0967   -1.3147 C.ar    1  UNL1       -0.0199
     19 C          -0.3995    2.4215   -1.7147 C.ar    1  UNL1       -0.0548
     20 H           1.1800   -1.8836    0.8919 H       1  UNL1        0.0324
     21 H           0.4720   -1.8369   -1.9680 H       1  UNL1        0.0269
     22 H           0.8243   -3.1904   -0.9115 H       1  UNL1        0.0269
     23 H          -1.5298   -2.9197   -1.9756 H       1  UNL1        0.0265
     24 H          -1.3342   -3.6342   -0.3556 H       1  UNL1        0.0265
     25 H          -2.1965   -0.8430   -1.0951 H       1  UNL1        0.0266
     26 H          -3.1470   -2.1672   -0.2922 H       1  UNL1        0.0266
     27 H          -1.2701   -2.2512    1.4693 H       1  UNL1        0.0274
     28 H          -2.3812   -0.8271    1.6245 H       1  UNL1        0.0274
     29 H          -0.2316    0.9630    2.3937 H       1  UNL1        0.0286
     30 H          -0.0179   -0.8103    2.8003 H       1  UNL1        0.0286
     31 H           2.0198    0.9635    2.6349 H       1  UNL1        0.0427
     32 H           2.2581   -0.7671    2.3851 H       1  UNL1        0.0427
     33 H           4.0257    0.0044    1.6706 H       1  UNL1        0.0391
     34 H           4.0716    1.4569    0.5536 H       1  UNL1        0.0391
     35 H           4.0254   -0.1892   -0.1245 H       1  UNL1        0.0391
     36 H           2.5814   -0.9041   -0.8782 H       1  UNL1        0.0469
     37 H           0.9974    0.0717   -2.4612 H       1  UNL1        0.0328
     38 H           1.9566    1.3704   -1.6194 H       1  UNL1        0.0328
     39 H          -2.5274    1.1594    1.1796 H       1  UNL1        0.0657
     40 H          -4.0022    2.9728    0.8196 H       1  UNL1        0.2921
     41 H          -1.8462    4.0042   -1.8215 H       1  UNL1        0.0654
     42 H           0.1609    2.8184   -2.5318 H       1  UNL1        0.0622
@<TRIPOS>BOND
     1     1     2    1
     2     2     3    1
     3     3     4    1
     4     4     5    1
     5     6     5    1
     6     6     7    1
     7     7     8    1
     8     8     9    1
     9     9    10    1
    10     9    11    1
    11    11    12    1
    12    12    13    1
    13    13    14   ar
    14    14    15   ar
    15    15    16   ar
    16    16    17    1
    17    16    18   ar
    18    18    19   ar
    19     6     1    1
    20    14     6    1
    21    11     1    1
    22    19    13   ar
    23     1    20    1
    24     2    21    1
    25     2    22    1
    26     3    23    1
    27     3    24    1
    28     4    25    1
    29     4    26    1
    30     5    27    1
    31     5    28    1
    32     7    29    1
    33     7    30    1
    34     8    31    1
    35     8    32    1
    36    10    33    1
    37    10    34    1
    38    10    35    1
    39    11    36    1
    40    12    37    1
    41    12    38    1
    42    15    39    1
    43    17    40    1
    44    18    41    1
    45    19    42    1
