
     RDKit          3D

 42 45  0  0  0  0  0  0  0  0999 V2000
    0.6529   -1.3181    0.0819 C   0  0  2  0  0  0  0  0  0  0  0  0
    0.2187   -2.2578   -0.9667 C   0  0  0  0  0  0  0  0  0  0  0  0
   -1.2039   -2.6942   -0.9384 C   0  0  0  0  0  0  0  0  0  0  0  0
   -2.1573   -1.6779   -0.3767 C   0  0  0  0  0  0  0  0  0  0  0  0
   -1.6180   -1.2964    0.9825 C   0  0  0  0  0  0  0  0  0  0  0  0
   -0.3892   -0.4855    0.7473 C   0  0  1  0  0  0  0  0  0  0  0  0
    0.2250    0.0052    2.0651 C   0  0  0  0  0  0  0  0  0  0  0  0
    1.7175    0.1156    1.9613 C   0  0  0  0  0  0  0  0  0  0  0  0
    2.2035    0.4718    0.6582 N   0  0  0  0  0  0  0  0  0  0  0  0
    3.6535    0.4357    0.7125 C   0  0  0  0  0  0  0  0  0  0  0  0
    1.7186   -0.3412   -0.4195 C   0  0  2  0  0  0  0  0  0  0  0  0
    1.1913    0.5659   -1.4993 C   0  0  0  0  0  0  0  0  0  0  0  0
   -0.0384    1.2745   -1.0490 C   0  0  0  0  0  0  0  0  0  0  0  0
   -0.7530    0.7514    0.0074 C   0  0  0  0  0  0  0  0  0  0  0  0
   -1.8750    1.4344    0.3874 C   0  0  0  0  0  0  0  0  0  0  0  0
   -2.2777    2.6032   -0.2613 C   0  0  0  0  0  0  0  0  0  0  0  0
   -3.4208    3.3343    0.0959 O   0  0  0  0  0  0  0  0  0  0  0  0
   -1.5372    3.0967   -1.3147 C   0  0  0  0  0  0  0  0  0  0  0  0
   -0.3995    2.4215   -1.7147 C   0  0  0  0  0  0  0  0  0  0  0  0
    1.1800   -1.8836    0.8919 H   0  0  0  0  0  0  0  0  0  0  0  0
    0.4720   -1.8369   -1.9680 H   0  0  0  0  0  0  0  0  0  0  0  0
    0.8243   -3.1904   -0.9115 H   0  0  0  0  0  0  0  0  0  0  0  0
   -1.5298   -2.9197   -1.9756 H   0  0  0  0  0  0  0  0  0  0  0  0
   -1.3342   -3.6342   -0.3556 H   0  0  0  0  0  0  0  0  0  0  0  0
   -2.1965   -0.8430   -1.0951 H   0  0  0  0  0  0  0  0  0  0  0  0
   -3.1470   -2.1672   -0.2922 H   0  0  0  0  0  0  0  0  0  0  0  0
   -1.2701   -2.2512    1.4693 H   0  0  0  0  0  0  0  0  0  0  0  0
   -2.3812   -0.8271    1.6245 H   0  0  0  0  0  0  0  0  0  0  0  0
   -0.2316    0.9630    2.3937 H   0  0  0  0  0  0  0  0  0  0  0  0
   -0.0179   -0.8103    2.8003 H   0  0  0  0  0  0  0  0  0  0  0  0
    2.0198    0.9635    2.6349 H   0  0  0  0  0  0  0  0  0  0  0  0
    2.2581   -0.7671    2.3851 H   0  0  0  0  0  0  0  0  0  0  0  0
    4.0257    0.0044    1.6706 H   0  0  0  0  0  0  0  0  0  0  0  0
    4.0716    1.4569    0.5536 H   0  0  0  0  0  0  0  0  0  0  0  0
    4.0254   -0.1892   -0.1245 H   0  0  0  0  0  0  0  0  0  0  0  0
    2.5814   -0.9041   -0.8782 H   0  0  0  0  0  0  0  0  0  0  0  0
    0.9974    0.0717   -2.4612 H   0  0  0  0  0  0  0  0  0  0  0  0
    1.9566    1.3704   -1.6194 H   0  0  0  0  0  0  0  0  0  0  0  0
   -2.5274    1.1594    1.1796 H   0  0  0  0  0  0  0  0  0  0  0  0
   -4.0022    2.9728    0.8196 H   0  0  0  0  0  0  0  0  0  0  0  0
   -1.8462    4.0042   -1.8215 H   0  0  0  0  0  0  0  0  0  0  0  0
    0.1609    2.8184   -2.5318 H   0  0  0  0  0  0  0  0  0  0  0  0
  1  2  1  0
  2  3  1  0
  3  4  1  0
  4  5  1  0
  6  5  1  1
  6  7  1  0
  7  8  1  0
  8  9  1  0
  9 10  1  0
  9 11  1  0
 11 12  1  0
 12 13  1  0
 13 14  2  0
 14 15  1  0
 15 16  2  0
 16 17  1  0
 16 18  1  0
 18 19  2  0
  6  1  1  0
 14  6  1  0
 11  1  1  0
 19 13  1  0
  1 20  1  1
  2 21  1  0
  2 22  1  0
  3 23  1  0
  3 24  1  0
  4 25  1  0
  4 26  1  0
  5 27  1  0
  5 28  1  0
  7 29  1  0
  7 30  1  0
  8 31  1  0
  8 32  1  0
 10 33  1  0
 10 34  1  0
 10 35  1  0
 11 36  1  6
 12 37  1  0
 12 38  1  0
 15 39  1  0
 17 40  1  0
 18 41  1  0
 19 42  1  0
M  END
$$$$
