
     RDKit          3D

 53 56  0  0  0  0  0  0  0  0999 V2000
    7.0177   -1.2676    2.8686 N   0  0  0  0  0  0  0  0  0  0  0  0
    7.3573   -1.8042    1.6105 C   0  0  0  0  0  0  0  0  0  0  0  0
    8.1338   -2.7669    1.5194 O   0  0  0  0  0  0  0  0  0  0  0  0
    6.8019   -1.2400    0.3652 C   0  0  0  0  0  0  0  0  0  0  0  0
    7.1602   -1.7942   -0.8369 C   0  0  0  0  0  0  0  0  0  0  0  0
    6.6376   -1.2570   -1.9463 N   0  0  0  0  0  0  0  0  0  0  0  0
    5.7845   -0.2021   -1.8777 C   0  0  0  0  0  0  0  0  0  0  0  0
    5.3909    0.3917   -0.7078 C   0  0  0  0  0  0  0  0  0  0  0  0
    4.5516    1.4316   -0.5826 O   0  0  0  0  0  0  0  0  0  0  0  0
    3.8123    2.2430   -1.3662 C   0  0  0  0  0  0  0  0  0  0  0  0
    2.7525    1.5877   -2.1581 C   0  0  0  0  0  0  0  0  0  0  0  0
    2.9116    1.2555   -3.4602 C   0  0  0  0  0  0  0  0  0  0  0  0
    1.9210    0.6395   -4.1700 C   0  0  0  0  0  0  0  0  0  0  0  0
    0.7461    0.3606   -3.5301 C   0  0  0  0  0  0  0  0  0  0  0  0
    0.5399    0.6885   -2.1812 C   0  0  0  0  0  0  0  0  0  0  0  0
   -0.6910    0.3664   -1.6096 N   0  0  0  0  0  0  0  0  0  0  0  0
   -1.1528    0.5782   -0.3039 C   0  0  0  0  0  0  0  0  0  0  0  0
   -0.3806    1.1369    0.5078 O   0  0  0  0  0  0  0  0  0  0  0  0
   -2.4859    0.1861    0.1732 C   0  0  0  0  0  0  0  0  0  0  0  0
   -2.8232    0.4539    1.4983 C   0  0  0  0  0  0  0  0  0  0  0  0
   -4.0635    0.1093    2.0087 C   0  0  0  0  0  0  0  0  0  0  0  0
   -5.0105   -0.5099    1.2293 C   0  0  0  0  0  0  0  0  0  0  0  0
   -6.3100   -0.8659    1.7804 C   0  0  0  0  0  0  0  0  0  0  0  0
   -6.8987   -2.0929    1.5570 C   0  0  0  0  0  0  0  0  0  0  0  0
   -8.1137   -2.4581    2.0579 C   0  0  0  0  0  0  0  0  0  0  0  0
   -8.8116   -1.5597    2.8376 C   0  0  0  0  0  0  0  0  0  0  0  0
   -8.2579   -0.3137    3.0886 C   0  0  0  0  0  0  0  0  0  0  0  0
   -7.0310    0.0315    2.5723 C   0  0  0  0  0  0  0  0  0  0  0  0
   -4.6837   -0.7752   -0.0734 C   0  0  0  0  0  0  0  0  0  0  0  0
   -5.6120   -1.3916   -0.8681 F   0  0  0  0  0  0  0  0  0  0  0  0
   -3.4342   -0.4312   -0.5977 C   0  0  0  0  0  0  0  0  0  0  0  0
    1.5449    1.2940   -1.5241 C   0  0  0  0  0  0  0  0  0  0  0  0
    5.9451   -0.1778    0.4656 C   0  0  0  0  0  0  0  0  0  0  0  0
    6.9411   -1.8858    3.7111 H   0  0  0  0  0  0  0  0  0  0  0  0
    6.8312   -0.2507    3.0142 H   0  0  0  0  0  0  0  0  0  0  0  0
    7.8438   -2.6355   -0.8497 H   0  0  0  0  0  0  0  0  0  0  0  0
    5.4129    0.1846   -2.8063 H   0  0  0  0  0  0  0  0  0  0  0  0
    4.4858    2.8252   -2.0659 H   0  0  0  0  0  0  0  0  0  0  0  0
    3.2692    2.9858   -0.7139 H   0  0  0  0  0  0  0  0  0  0  0  0
    3.8376    1.4826   -3.9735 H   0  0  0  0  0  0  0  0  0  0  0  0
    2.0742    0.3842   -5.2103 H   0  0  0  0  0  0  0  0  0  0  0  0
   -0.0240   -0.1293   -4.1181 H   0  0  0  0  0  0  0  0  0  0  0  0
   -1.4078   -0.1163   -2.2453 H   0  0  0  0  0  0  0  0  0  0  0  0
   -2.0996    0.9413    2.1406 H   0  0  0  0  0  0  0  0  0  0  0  0
   -4.3230    0.3169    3.0332 H   0  0  0  0  0  0  0  0  0  0  0  0
   -6.3202   -2.7904    0.9316 H   0  0  0  0  0  0  0  0  0  0  0  0
   -8.5255   -3.4547    1.8402 H   0  0  0  0  0  0  0  0  0  0  0  0
   -9.7734   -1.8645    3.2272 H   0  0  0  0  0  0  0  0  0  0  0  0
   -8.8207    0.3667    3.6978 H   0  0  0  0  0  0  0  0  0  0  0  0
   -6.5725    1.0076    2.7554 H   0  0  0  0  0  0  0  0  0  0  0  0
   -3.2160   -0.6558   -1.6235 H   0  0  0  0  0  0  0  0  0  0  0  0
    1.4745    1.5766   -0.5038 H   0  0  0  0  0  0  0  0  0  0  0  0
    5.6637    0.2577    1.4123 H   0  0  0  0  0  0  0  0  0  0  0  0
  1  2  1  0
  2  3  2  0
  2  4  1  0
  4  5  2  0
  5  6  1  0
  6  7  2  0
  7  8  1  0
  8  9  1  0
  9 10  1  0
 10 11  1  0
 11 12  2  0
 12 13  1  0
 13 14  2  0
 14 15  1  0
 15 16  1  0
 16 17  1  0
 17 18  2  0
 17 19  1  0
 19 20  2  0
 20 21  1  0
 21 22  2  0
 22 23  1  0
 23 24  2  0
 24 25  1  0
 25 26  2  0
 26 27  1  0
 27 28  2  0
 22 29  1  0
 29 30  1  0
 29 31  2  0
 15 32  2  0
  8 33  2  0
 33  4  1  0
 32 11  1  0
 31 19  1  0
 28 23  1  0
  1 34  1  0
  1 35  1  0
  5 36  1  0
  7 37  1  0
 10 38  1  0
 10 39  1  0
 12 40  1  0
 13 41  1  0
 14 42  1  0
 16 43  1  0
 20 44  1  0
 21 45  1  0
 24 46  1  0
 25 47  1  0
 26 48  1  0
 27 49  1  0
 28 50  1  0
 31 51  1  0
 32 52  1  0
 33 53  1  0
M  END
$$$$
