@<TRIPOS>MOLECULE
*****
 53 56 0 0 0
SMALL
GASTEIGER

@<TRIPOS>ATOM
      1 N           7.0177   -1.2676    2.8686 N.am    1  UNL1       -0.3253
      2 C           7.3573   -1.8042    1.6105 C.2     1  UNL1        0.2431
      3 O           8.1338   -2.7669    1.5194 O.2     1  UNL1       -0.2704
      4 C           6.8019   -1.2400    0.3652 C.ar    1  UNL1        0.0580
      5 C           7.1602   -1.7942   -0.8369 C.ar    1  UNL1        0.0399
      6 N           6.6376   -1.2570   -1.9463 N.ar    1  UNL1       -0.2589
      7 C           5.7845   -0.2021   -1.8777 C.ar    1  UNL1        0.0692
      8 C           5.3909    0.3917   -0.7078 C.ar    1  UNL1        0.1397
      9 O           4.5516    1.4316   -0.5826 O.3     1  UNL1       -0.4858
     10 C           3.8123    2.2430   -1.3662 C.3     1  UNL1        0.1148
     11 C           2.7525    1.5877   -2.1581 C.ar    1  UNL1       -0.0087
     12 C           2.9116    1.2555   -3.4602 C.ar    1  UNL1       -0.0552
     13 C           1.9210    0.6395   -4.1700 C.ar    1  UNL1       -0.0596
     14 C           0.7461    0.3606   -3.5301 C.ar    1  UNL1       -0.0404
     15 C           0.5399    0.6885   -2.1812 C.ar    1  UNL1        0.0340
     16 N          -0.6910    0.3664   -1.6096 N.am    1  UNL1       -0.2815
     17 C          -1.1528    0.5782   -0.3039 C.2     1  UNL1        0.2483
     18 O          -0.3806    1.1369    0.5078 O.2     1  UNL1       -0.2699
     19 C          -2.4859    0.1861    0.1732 C.ar    1  UNL1        0.0398
     20 C          -2.8232    0.4539    1.4983 C.ar    1  UNL1       -0.0489
     21 C          -4.0635    0.1093    2.0087 C.ar    1  UNL1       -0.0506
     22 C          -5.0105   -0.5099    1.2293 C.ar    1  UNL1        0.0174
     23 C          -6.3100   -0.8659    1.7804 C.ar    1  UNL1       -0.0151
     24 C          -6.8987   -2.0929    1.5570 C.ar    1  UNL1       -0.0539
     25 C          -8.1137   -2.4581    2.0579 C.ar    1  UNL1       -0.0612
     26 C          -8.8116   -1.5597    2.8376 C.ar    1  UNL1       -0.0617
     27 C          -8.2579   -0.3137    3.0886 C.ar    1  UNL1       -0.0612
     28 C          -7.0310    0.0315    2.5723 C.ar    1  UNL1       -0.0539
     29 C          -4.6837   -0.7752   -0.0734 C.ar    1  UNL1        0.1318
     30 F          -5.6120   -1.3916   -0.8681 F       1  UNL1       -0.2048
     31 C          -3.4342   -0.4312   -0.5977 C.ar    1  UNL1       -0.0137
     32 C           1.5449    1.2940   -1.5241 C.ar    1  UNL1       -0.0341
     33 C           5.9451   -0.1778    0.4656 C.ar    1  UNL1       -0.0048
     34 H           6.9411   -1.8858    3.7111 H       1  UNL1        0.1453
     35 H           6.8312   -0.2507    3.0142 H       1  UNL1        0.1453
     36 H           7.8438   -2.6355   -0.8497 H       1  UNL1        0.0837
     37 H           5.4129    0.1846   -2.8063 H       1  UNL1        0.0867
     38 H           4.4858    2.8252   -2.0659 H       1  UNL1        0.0748
     39 H           3.2692    2.9858   -0.7139 H       1  UNL1        0.0748
     40 H           3.8376    1.4826   -3.9735 H       1  UNL1        0.0621
     41 H           2.0742    0.3842   -5.2103 H       1  UNL1        0.0618
     42 H          -0.0240   -0.1293   -4.1181 H       1  UNL1        0.0636
     43 H          -1.4078   -0.1163   -2.2453 H       1  UNL1        0.1551
     44 H          -2.0996    0.9413    2.1406 H       1  UNL1        0.0625
     45 H          -4.3230    0.3169    3.0332 H       1  UNL1        0.0625
     46 H          -6.3202   -2.7904    0.9316 H       1  UNL1        0.0624
     47 H          -8.5255   -3.4547    1.8402 H       1  UNL1        0.0618
     48 H          -9.7734   -1.8645    3.2272 H       1  UNL1        0.0618
     49 H          -8.8207    0.3667    3.6978 H       1  UNL1        0.0618
     50 H          -6.5725    1.0076    2.7554 H       1  UNL1        0.0624
     51 H          -3.2160   -0.6558   -1.6235 H       1  UNL1        0.0654
     52 H           1.4745    1.5766   -0.5038 H       1  UNL1        0.0640
     53 H           5.6637    0.2577    1.4123 H       1  UNL1        0.0663
@<TRIPOS>BOND
     1     1     2   am
     2     2     3    2
     3     2     4    1
     4     4     5   ar
     5     5     6   ar
     6     6     7   ar
     7     7     8   ar
     8     8     9    1
     9     9    10    1
    10    10    11    1
    11    11    12   ar
    12    12    13   ar
    13    13    14   ar
    14    14    15   ar
    15    15    16    1
    16    16    17   am
    17    17    18    2
    18    17    19    1
    19    19    20   ar
    20    20    21   ar
    21    21    22   ar
    22    22    23    1
    23    23    24   ar
    24    24    25   ar
    25    25    26   ar
    26    26    27   ar
    27    27    28   ar
    28    22    29   ar
    29    29    30    1
    30    29    31   ar
    31    15    32   ar
    32     8    33   ar
    33    33     4   ar
    34    32    11   ar
    35    31    19   ar
    36    28    23   ar
    37     1    34    1
    38     1    35    1
    39     5    36    1
    40     7    37    1
    41    10    38    1
    42    10    39    1
    43    12    40    1
    44    13    41    1
    45    14    42    1
    46    16    43    1
    47    20    44    1
    48    21    45    1
    49    24    46    1
    50    25    47    1
    51    26    48    1
    52    27    49    1
    53    28    50    1
    54    31    51    1
    55    32    52    1
    56    33    53    1
