@<TRIPOS>MOLECULE
*****
 58 62 0 0 0
SMALL
GASTEIGER

@<TRIPOS>ATOM
      1 C           3.1222   -2.7895    1.6449 C.3     1  UNL1       -0.0394
      2 C           3.5152   -1.6406    0.8051 C.ar    1  UNL1       -0.0471
      3 C           4.8642   -1.2610    0.8052 C.ar    1  UNL1       -0.0565
      4 C           5.3374   -0.2336    0.0225 C.ar    1  UNL1       -0.0343
      5 C           4.4809    0.4744   -0.8081 C.ar    1  UNL1        0.0864
      6 N           4.9410    1.5422   -1.6275 N.ar    1  UNL1       -0.1503
      7 N           4.7783    2.8149   -1.3676 N.ar    1  UNL1       -0.1556
      8 C           5.3267    3.5757   -2.3310 C.ar    1  UNL1        0.0697
      9 C           5.8645    2.6979   -3.2481 C.ar    1  UNL1        0.0697
     10 N           5.6011    1.4640   -2.7698 N.ar    1  UNL1       -0.1556
     11 C           3.1604    0.1029   -0.8072 C.ar    1  UNL1       -0.0311
     12 C           2.6635   -0.9453   -0.0109 C.ar    1  UNL1       -0.0406
     13 C           1.2224   -1.2626   -0.0083 C.3     1  UNL1       -0.0065
     14 C           0.4751   -0.5176    1.0345 C.3     1  UNL1        0.0537
     15 C           0.8880   -0.7181    2.4482 C.3     1  UNL1        0.0666
     16 O           0.2453    0.1318    3.3618 O.3     1  UNL1       -0.3764
     17 C          -0.7744    0.8410    2.7941 C.3     1  UNL1        0.0635
     18 C          -1.7346    0.0054    1.9837 C.3     1  UNL1        0.0388
     19 N          -0.9779   -0.7072    0.9727 N.am    1  UNL1       -0.2897
     20 C          -1.6372   -1.5211    0.0144 C.2     1  UNL1        0.2491
     21 O          -1.0590   -2.1535   -0.8757 O.2     1  UNL1       -0.2699
     22 C          -3.1186   -1.5707    0.1494 C.ar    1  UNL1        0.0642
     23 C          -3.7055   -2.5281    0.9627 C.ar    1  UNL1       -0.0475
     24 C          -5.0823   -2.5201    1.0528 C.ar    1  UNL1       -0.0607
     25 C          -5.8251   -1.5829    0.3489 C.ar    1  UNL1       -0.0567
     26 C          -5.2484   -0.6407   -0.4517 C.ar    1  UNL1       -0.0226
     27 C          -6.0260    0.3777   -1.2201 C.3     1  UNL1       -0.0376
     28 C          -3.8505   -0.6392   -0.5507 C.ar    1  UNL1        0.1011
     29 N          -3.1867    0.3220   -1.3764 N.ar    1  UNL1       -0.1493
     30 N          -3.4231    1.6242   -1.3208 N.ar    1  UNL1       -0.1556
     31 C          -2.6670    2.2900   -2.2021 C.ar    1  UNL1        0.0697
     32 C          -1.9082    1.3348   -2.8501 C.ar    1  UNL1        0.0697
     33 N          -2.2731    0.1636   -2.3010 N.ar    1  UNL1       -0.1556
     34 H           3.1767   -2.5433    2.7357 H       1  UNL1        0.0278
     35 H           3.8460   -3.6489    1.5256 H       1  UNL1        0.0278
     36 H           2.1356   -3.1997    1.4565 H       1  UNL1        0.0278
     37 H           5.5525   -1.8113    1.4565 H       1  UNL1        0.0621
     38 H           6.3795    0.0580    0.0243 H       1  UNL1        0.0639
     39 H           5.3560    4.6532   -2.4000 H       1  UNL1        0.0864
     40 H           6.3843    2.9771   -4.1534 H       1  UNL1        0.0864
     41 H           2.4640    0.6324   -1.4428 H       1  UNL1        0.0642
     42 H           0.8434   -0.8914   -1.0059 H       1  UNL1        0.0332
     43 H           1.0322   -2.3551   -0.0079 H       1  UNL1        0.0332
     44 H           0.5901    0.5999    0.8236 H       1  UNL1        0.0526
     45 H           1.9796   -0.4287    2.5759 H       1  UNL1        0.0578
     46 H           0.7525   -1.7514    2.7886 H       1  UNL1        0.0578
     47 H          -0.3357    1.6916    2.2087 H       1  UNL1        0.0575
     48 H          -1.3394    1.3596    3.6366 H       1  UNL1        0.0575
     49 H          -2.4195    0.6946    1.4433 H       1  UNL1        0.0487
     50 H          -2.2809   -0.6773    2.6596 H       1  UNL1        0.0487
     51 H          -3.0787   -3.2337    1.4886 H       1  UNL1        0.0626
     52 H          -5.5732   -3.2535    1.6798 H       1  UNL1        0.0618
     53 H          -6.9133   -1.6083    0.4454 H       1  UNL1        0.0621
     54 H          -5.5051    0.6595   -2.1355 H       1  UNL1        0.0278
     55 H          -6.2382    1.2564   -0.5437 H       1  UNL1        0.0278
     56 H          -7.0319   -0.0509   -1.4662 H       1  UNL1        0.0278
     57 H          -2.5984    3.3433   -2.4265 H       1  UNL1        0.0864
     58 H          -1.1667    1.4805   -3.6407 H       1  UNL1        0.0864
@<TRIPOS>BOND
     1     1     2    1
     2     2     3   ar
     3     3     4   ar
     4     4     5   ar
     5     5     6    1
     6     6     7   ar
     7     7     8   ar
     8     8     9   ar
     9     9    10   ar
    10     5    11   ar
    11    11    12   ar
    12    12    13    1
    13    13    14    1
    14    14    15    1
    15    15    16    1
    16    16    17    1
    17    17    18    1
    18    18    19    1
    19    19    20   am
    20    20    21    2
    21    20    22    1
    22    22    23   ar
    23    23    24   ar
    24    24    25   ar
    25    25    26   ar
    26    26    27    1
    27    26    28   ar
    28    28    29    1
    29    29    30   ar
    30    30    31   ar
    31    31    32   ar
    32    32    33   ar
    33    12     2   ar
    34    19    14    1
    35    28    22   ar
    36    33    29   ar
    37    10     6   ar
    38     1    34    1
    39     1    35    1
    40     1    36    1
    41     3    37    1
    42     4    38    1
    43     8    39    1
    44     9    40    1
    45    11    41    1
    46    13    42    1
    47    13    43    1
    48    14    44    1
    49    15    45    1
    50    15    46    1
    51    17    47    1
    52    17    48    1
    53    18    49    1
    54    18    50    1
    55    23    51    1
    56    24    52    1
    57    25    53    1
    58    27    54    1
    59    27    55    1
    60    27    56    1
    61    31    57    1
    62    32    58    1
