
     RDKit          3D

 56 60  0  0  0  0  0  0  0  0999 V2000
   -3.4608    2.7137    0.3127 C   0  0  0  0  0  0  0  0  0  0  0  0
   -2.0717    3.1979    0.4903 C   0  0  0  0  0  0  0  0  0  0  0  0
   -0.9486    2.4193    0.3229 C   0  0  0  0  0  0  0  0  0  0  0  0
   -0.7296    1.0807   -0.0253 C   0  0  0  0  0  0  0  0  0  0  0  0
   -1.8461    0.3329   -0.2635 O   0  0  0  0  0  0  0  0  0  0  0  0
   -1.9268   -1.0091   -0.6241 C   0  0  2  0  0  0  0  0  0  0  0  0
   -2.6289   -1.1480   -1.9503 C   0  0  0  0  0  0  0  0  0  0  0  0
   -2.6704   -1.7331    0.4828 C   0  0  1  0  0  0  0  0  0  0  0  0
   -4.0369   -1.1467    0.6282 C   0  0  0  0  0  0  0  0  0  0  0  0
   -4.9432   -2.2311    0.3595 N   0  0  0  0  0  0  0  0  0  0  0  0
   -4.2265   -3.3964   -0.0291 C   0  0  0  0  0  0  0  0  0  0  0  0
   -4.8161   -4.4095   -0.5225 O   0  0  0  0  0  0  0  0  0  0  0  0
   -2.7808   -3.1991    0.2379 C   0  0  0  0  0  0  0  0  0  0  0  0
    0.5684    0.6054   -0.1059 C   0  0  0  0  0  0  0  0  0  0  0  0
    1.6550    1.4178    0.1485 C   0  0  0  0  0  0  0  0  0  0  0  0
    3.0336    0.8902    0.0576 C   0  0  0  0  0  0  0  0  0  0  0  0
    4.1785    1.5703   -0.3039 C   0  0  0  0  0  0  0  0  0  0  0  0
    5.1822    0.6780   -0.2395 N   0  0  0  0  0  0  0  0  0  0  0  0
    4.7535   -0.5065    0.1342 N   0  0  0  0  0  0  0  0  0  0  0  0
    5.5982   -1.6942    0.3004 C   0  0  0  0  0  0  0  0  0  0  0  0
    4.7823   -2.9613    0.4939 C   0  0  0  0  0  0  0  0  0  0  0  0
    4.6180   -2.9854   -1.0316 C   0  0  0  0  0  0  0  0  0  0  0  0
    5.9574   -2.2391   -1.0886 C   0  0  0  0  0  0  0  0  0  0  0  0
    3.4402   -0.4028    0.3224 C   0  0  0  0  0  0  0  0  0  0  0  0
    1.4036    2.7303    0.4885 C   0  0  0  0  0  0  0  0  0  0  0  0
    0.1138    3.2336    0.5768 C   0  0  0  0  0  0  0  0  0  0  0  0
   -0.3984    4.4488    0.8819 N   0  0  0  0  0  0  0  0  0  0  0  0
   -1.7057    4.4453    0.8349 N   0  0  0  0  0  0  0  0  0  0  0  0
   -2.6310    5.5550    1.0974 C   0  0  0  0  0  0  0  0  0  0  0  0
   -3.5117    1.9589   -0.5096 H   0  0  0  0  0  0  0  0  0  0  0  0
   -4.1501    3.5514    0.1566 H   0  0  0  0  0  0  0  0  0  0  0  0
   -3.7465    2.1856    1.2480 H   0  0  0  0  0  0  0  0  0  0  0  0
   -0.9426   -1.4964   -0.7257 H   0  0  0  0  0  0  0  0  0  0  0  0
   -2.0793   -1.8510   -2.6391 H   0  0  0  0  0  0  0  0  0  0  0  0
   -3.6861   -1.4292   -1.8459 H   0  0  0  0  0  0  0  0  0  0  0  0
   -2.5896   -0.1644   -2.4604 H   0  0  0  0  0  0  0  0  0  0  0  0
   -2.1347   -1.5617    1.4451 H   0  0  0  0  0  0  0  0  0  0  0  0
   -4.1908   -0.3155   -0.1190 H   0  0  0  0  0  0  0  0  0  0  0  0
   -4.2107   -0.7019    1.6489 H   0  0  0  0  0  0  0  0  0  0  0  0
   -5.9956   -2.1169    0.4556 H   0  0  0  0  0  0  0  0  0  0  0  0
   -2.1960   -3.5497   -0.6368 H   0  0  0  0  0  0  0  0  0  0  0  0
   -2.5232   -3.8226    1.1370 H   0  0  0  0  0  0  0  0  0  0  0  0
    0.7412   -0.4241   -0.3735 H   0  0  0  0  0  0  0  0  0  0  0  0
    4.2227    2.6275   -0.5820 H   0  0  0  0  0  0  0  0  0  0  0  0
    6.4483   -1.5742    0.9718 H   0  0  0  0  0  0  0  0  0  0  0  0
    3.8521   -2.8525    1.0549 H   0  0  0  0  0  0  0  0  0  0  0  0
    5.4589   -3.7839    0.7913 H   0  0  0  0  0  0  0  0  0  0  0  0
    4.6203   -3.9790   -1.4803 H   0  0  0  0  0  0  0  0  0  0  0  0
    3.8323   -2.2976   -1.3781 H   0  0  0  0  0  0  0  0  0  0  0  0
    6.7728   -2.9785   -1.0232 H   0  0  0  0  0  0  0  0  0  0  0  0
    6.0325   -1.4864   -1.8741 H   0  0  0  0  0  0  0  0  0  0  0  0
    2.7601   -1.1819    0.6333 H   0  0  0  0  0  0  0  0  0  0  0  0
    2.2405    3.3795    0.6906 H   0  0  0  0  0  0  0  0  0  0  0  0
   -2.1103    6.5173    0.8255 H   0  0  0  0  0  0  0  0  0  0  0  0
   -3.4905    5.4688    0.4316 H   0  0  0  0  0  0  0  0  0  0  0  0
   -2.8871    5.6215    2.1709 H   0  0  0  0  0  0  0  0  0  0  0  0
  1  2  1  0
  2  3  2  0
  3  4  1  0
  4  5  1  0
  5  6  1  0
  6  7  1  0
  6  8  1  0
  8  9  1  0
  9 10  1  0
 10 11  1  0
 11 12  2  0
 11 13  1  0
  4 14  2  0
 14 15  1  0
 15 16  1  0
 16 17  1  0
 17 18  2  0
 18 19  1  0
 19 20  1  0
 20 21  1  0
 21 22  1  0
 22 23  1  0
 19 24  1  0
 15 25  2  0
 25 26  1  0
 26 27  2  0
 27 28  1  0
 28 29  1  0
 28  2  1  0
 26  3  1  0
 13  8  1  0
 24 16  2  0
 23 20  1  0
  1 30  1  0
  1 31  1  0
  1 32  1  0
  6 33  1  6
  7 34  1  0
  7 35  1  0
  7 36  1  0
  8 37  1  1
  9 38  1  0
  9 39  1  0
 10 40  1  0
 13 41  1  0
 13 42  1  0
 14 43  1  0
 17 44  1  0
 20 45  1  0
 21 46  1  0
 21 47  1  0
 22 48  1  0
 22 49  1  0
 23 50  1  0
 23 51  1  0
 24 52  1  0
 25 53  1  0
 29 54  1  0
 29 55  1  0
 29 56  1  0
M  END
$$$$
