@<TRIPOS>MOLECULE
*****
 56 60 0 0 0
SMALL
GASTEIGER

@<TRIPOS>ATOM
      1 C          -3.4608    2.7137    0.3127 C.3     1  UNL1       -0.0220
      2 C          -2.0717    3.1979    0.4903 C.ar    1  UNL1        0.0471
      3 C          -0.9486    2.4193    0.3229 C.ar    1  UNL1        0.0643
      4 C          -0.7296    1.0807   -0.0253 C.ar    1  UNL1        0.1324
      5 O          -1.8461    0.3329   -0.2635 O.3     1  UNL1       -0.4880
      6 C          -1.9268   -1.0091   -0.6241 C.3     1  UNL1        0.1021
      7 C          -2.6289   -1.1480   -1.9503 C.3     1  UNL1       -0.0275
      8 C          -2.6704   -1.7331    0.4828 C.3     1  UNL1        0.0195
      9 C          -4.0369   -1.1467    0.6282 C.3     1  UNL1        0.0182
     10 N          -4.9432   -2.2311    0.3595 N.am    1  UNL1       -0.3149
     11 C          -4.2265   -3.3964   -0.0291 C.2     1  UNL1        0.2135
     12 O          -4.8161   -4.4095   -0.5225 O.2     1  UNL1       -0.2758
     13 C          -2.7808   -3.1991    0.2379 C.3     1  UNL1        0.0315
     14 C           0.5684    0.6054   -0.1059 C.ar    1  UNL1       -0.0113
     15 C           1.6550    1.4178    0.1485 C.ar    1  UNL1       -0.0094
     16 C           3.0336    0.8902    0.0576 C.ar    1  UNL1        0.0198
     17 C           4.1785    1.5703   -0.3039 C.ar    1  UNL1        0.0571
     18 N           5.1822    0.6780   -0.2395 N.ar    1  UNL1       -0.1788
     19 N           4.7535   -0.5065    0.1342 N.ar    1  UNL1       -0.2678
     20 C           5.5982   -1.6942    0.3004 C.3     1  UNL1        0.0527
     21 C           4.7823   -2.9613    0.4939 C.3     1  UNL1       -0.0304
     22 C           4.6180   -2.9854   -1.0316 C.3     1  UNL1       -0.0492
     23 C           5.9574   -2.2391   -1.0886 C.3     1  UNL1       -0.0304
     24 C           3.4402   -0.4028    0.3224 C.ar    1  UNL1        0.0335
     25 C           1.4036    2.7303    0.4885 C.ar    1  UNL1       -0.0259
     26 C           0.1138    3.2336    0.5768 C.ar    1  UNL1        0.0971
     27 N          -0.3984    4.4488    0.8819 N.ar    1  UNL1       -0.1711
     28 N          -1.7057    4.4453    0.8349 N.ar    1  UNL1       -0.2704
     29 C          -2.6310    5.5550    1.0974 C.3     1  UNL1        0.0305
     30 H          -3.5117    1.9589   -0.5096 H       1  UNL1        0.0293
     31 H          -4.1501    3.5514    0.1566 H       1  UNL1        0.0293
     32 H          -3.7465    2.1856    1.2480 H       1  UNL1        0.0293
     33 H          -0.9426   -1.4964   -0.7257 H       1  UNL1        0.0733
     34 H          -2.0793   -1.8510   -2.6391 H       1  UNL1        0.0265
     35 H          -3.6861   -1.4292   -1.8459 H       1  UNL1        0.0265
     36 H          -2.5896   -0.1644   -2.4604 H       1  UNL1        0.0265
     37 H          -2.1347   -1.5617    1.4451 H       1  UNL1        0.0356
     38 H          -4.1908   -0.3155   -0.1190 H       1  UNL1        0.0466
     39 H          -4.2107   -0.7019    1.6489 H       1  UNL1        0.0466
     40 H          -5.9956   -2.1169    0.4556 H       1  UNL1        0.1487
     41 H          -2.1960   -3.5497   -0.6368 H       1  UNL1        0.0363
     42 H          -2.5232   -3.8226    1.1370 H       1  UNL1        0.0363
     43 H           0.7412   -0.4241   -0.3735 H       1  UNL1        0.0660
     44 H           4.2227    2.6275   -0.5820 H       1  UNL1        0.0854
     45 H           6.4483   -1.5742    0.9718 H       1  UNL1        0.0545
     46 H           3.8521   -2.8525    1.0549 H       1  UNL1        0.0286
     47 H           5.4589   -3.7839    0.7913 H       1  UNL1        0.0286
     48 H           4.6203   -3.9790   -1.4803 H       1  UNL1        0.0267
     49 H           3.8323   -2.2976   -1.3781 H       1  UNL1        0.0267
     50 H           6.7728   -2.9785   -1.0232 H       1  UNL1        0.0286
     51 H           6.0325   -1.4864   -1.8741 H       1  UNL1        0.0286
     52 H           2.7601   -1.1819    0.6333 H       1  UNL1        0.0832
     53 H           2.2405    3.3795    0.6906 H       1  UNL1        0.0646
     54 H          -2.1103    6.5173    0.8255 H       1  UNL1        0.0473
     55 H          -3.4905    5.4688    0.4316 H       1  UNL1        0.0473
     56 H          -2.8871    5.6215    2.1709 H       1  UNL1        0.0473
@<TRIPOS>BOND
     1     1     2    1
     2     2     3   ar
     3     3     4   ar
     4     4     5    1
     5     5     6    1
     6     6     7    1
     7     6     8    1
     8     8     9    1
     9     9    10    1
    10    10    11   am
    11    11    12    2
    12    11    13    1
    13     4    14   ar
    14    14    15   ar
    15    15    16    1
    16    16    17   ar
    17    17    18   ar
    18    18    19   ar
    19    19    20    1
    20    20    21    1
    21    21    22    1
    22    22    23    1
    23    19    24   ar
    24    15    25   ar
    25    25    26   ar
    26    26    27   ar
    27    27    28   ar
    28    28    29    1
    29    28     2   ar
    30    26     3   ar
    31    13     8    1
    32    24    16   ar
    33    23    20    1
    34     1    30    1
    35     1    31    1
    36     1    32    1
    37     6    33    1
    38     7    34    1
    39     7    35    1
    40     7    36    1
    41     8    37    1
    42     9    38    1
    43     9    39    1
    44    10    40    1
    45    13    41    1
    46    13    42    1
    47    14    43    1
    48    17    44    1
    49    20    45    1
    50    21    46    1
    51    21    47    1
    52    22    48    1
    53    22    49    1
    54    23    50    1
    55    23    51    1
    56    24    52    1
    57    25    53    1
    58    29    54    1
    59    29    55    1
    60    29    56    1
