@<TRIPOS>MOLECULE
*****
 62 67 0 0 0
SMALL
GASTEIGER

@<TRIPOS>ATOM
      1 F           9.6058    3.8326    0.0567 F       1  UNL1       -0.2055
      2 C           8.7233    2.8047    0.0194 C.ar    1  UNL1        0.1237
      3 C           8.9928    1.7553   -0.8604 C.ar    1  UNL1       -0.0264
      4 C           8.0975    0.7051   -0.9037 C.ar    1  UNL1       -0.0587
      5 C           6.9723    0.7248   -0.0829 C.ar    1  UNL1       -0.0566
      6 C           6.7055    1.7587    0.7853 C.ar    1  UNL1       -0.0234
      7 C           5.5382    1.8295    1.6591 C.3     1  UNL1        0.0673
      8 N           4.7380    0.6417    1.7347 N.ar    1  UNL1       -0.2594
      9 N           4.8392   -0.3929    2.5375 N.ar    1  UNL1       -0.1782
     10 C           3.8907   -1.3112    2.3023 C.ar    1  UNL1        0.0572
     11 C           3.1160   -0.8334    1.2687 C.ar    1  UNL1        0.0215
     12 C           1.9926   -1.3488    0.6085 C.ar    1  UNL1       -0.0298
     13 C           1.4318   -0.6168   -0.3977 C.ar    1  UNL1        0.0332
     14 N           0.2971   -1.0925   -1.0838 N.pl3   1  UNL1       -0.2977
     15 C          -0.2242   -2.3956   -0.9559 C.ar    1  UNL1        0.1507
     16 N           0.6104   -3.4309   -0.7891 N.ar    1  UNL1       -0.2167
     17 C           0.1649   -4.7047   -0.6561 C.ar    1  UNL1        0.1388
     18 N          -1.1489   -4.9280   -0.6929 N.ar    1  UNL1       -0.1548
     19 N          -1.9894   -3.9102   -0.8566 N.ar    1  UNL1       -0.2348
     20 C          -3.3355   -3.9163   -0.9173 C.ar    1  UNL1        0.0303
     21 C          -3.8081   -2.6457   -1.0917 C.ar    1  UNL1       -0.0361
     22 C          -2.6873   -1.8054   -1.1397 C.ar    1  UNL1        0.0083
     23 C          -2.7015   -0.3489   -1.3096 C.3     1  UNL1        0.0749
     24 O          -3.9483    0.2309   -1.0513 O.3     1  UNL1       -0.3725
     25 C          -4.3633    0.1484    0.2518 C.3     1  UNL1        0.0755
     26 C          -5.7389    0.7817    0.3287 C.3     1  UNL1        0.0944
     27 C          -5.7876    2.1589   -0.2675 C.3     1  UNL1        0.0245
     28 N          -7.1005    2.7314   -0.0603 N.3     1  UNL1       -0.3113
     29 C          -8.0796    1.7222    0.2984 C.3     1  UNL1        0.0195
     30 C          -7.6665    0.8619    1.4505 C.3     1  UNL1        0.0606
     31 O          -6.2675    0.8200    1.6039 O.3     1  UNL1       -0.3718
     32 C          -1.5852   -2.6130   -0.9944 C.ar    1  UNL1        0.1107
     33 C           1.9894    0.6030   -0.7297 C.ar    1  UNL1       -0.0385
     34 C           3.0909    1.1177   -0.0879 C.ar    1  UNL1       -0.0343
     35 C           3.6668    0.3839    0.9342 C.ar    1  UNL1        0.0694
     36 C           7.6137    2.8181    0.8254 C.ar    1  UNL1       -0.0215
     37 H           9.8646    1.7431   -1.4947 H       1  UNL1        0.0646
     38 H           8.2433   -0.1605   -1.5692 H       1  UNL1        0.0619
     39 H           6.2504   -0.0938   -0.0981 H       1  UNL1        0.0621
     40 H           4.9411    2.7130    1.3525 H       1  UNL1        0.0559
     41 H           5.8559    2.0551    2.7173 H       1  UNL1        0.0559
     42 H           3.7050   -2.2569    2.7848 H       1  UNL1        0.0854
     43 H           1.6209   -2.2995    0.9326 H       1  UNL1        0.0643
     44 H          -0.1643   -0.4396   -1.7513 H       1  UNL1        0.1536
     45 H           0.8263   -5.5465   -0.5218 H       1  UNL1        0.1066
     46 H          -3.9713   -4.7885   -0.8424 H       1  UNL1        0.0830
     47 H          -4.8306   -2.2982   -1.1900 H       1  UNL1        0.0637
     48 H          -2.4326   -0.0928   -2.3410 H       1  UNL1        0.0611
     49 H          -2.0012    0.1675   -0.6056 H       1  UNL1        0.0611
     50 H          -4.4323   -0.8868    0.6097 H       1  UNL1        0.0586
     51 H          -3.6517    0.6944    0.9443 H       1  UNL1        0.0586
     52 H          -6.4537    0.1651   -0.3041 H       1  UNL1        0.0632
     53 H          -5.0529    2.8118    0.2396 H       1  UNL1        0.0450
     54 H          -5.5341    2.1336   -1.3666 H       1  UNL1        0.0450
     55 H          -7.4310    3.0907   -1.0065 H       1  UNL1        0.1221
     56 H          -9.0149    2.2637    0.5523 H       1  UNL1        0.0446
     57 H          -8.3515    1.0979   -0.6043 H       1  UNL1        0.0446
     58 H          -7.9438   -0.2034    1.1884 H       1  UNL1        0.0572
     59 H          -8.2004    1.0591    2.3948 H       1  UNL1        0.0572
     60 H           1.5553    1.2077   -1.5314 H       1  UNL1        0.0637
     61 H           3.5349    2.0717   -0.3382 H       1  UNL1        0.0639
     62 H           7.4241    3.6557    1.5099 H       1  UNL1        0.0649
@<TRIPOS>BOND
     1     1     2    1
     2     2     3   ar
     3     3     4   ar
     4     4     5   ar
     5     5     6   ar
     6     6     7    1
     7     7     8    1
     8     8     9   ar
     9     9    10   ar
    10    10    11   ar
    11    11    12   ar
    12    12    13   ar
    13    13    14    1
    14    14    15    1
    15    15    16   ar
    16    16    17   ar
    17    17    18   ar
    18    18    19   ar
    19    19    20   ar
    20    20    21   ar
    21    21    22   ar
    22    22    23    1
    23    23    24    1
    24    24    25    1
    25    25    26    1
    26    26    27    1
    27    27    28    1
    28    28    29    1
    29    29    30    1
    30    30    31    1
    31    22    32   ar
    32    13    33   ar
    33    33    34   ar
    34    34    35   ar
    35     6    36   ar
    36    36     2   ar
    37    35     8   ar
    38    35    11   ar
    39    32    15   ar
    40    32    19   ar
    41    31    26    1
    42     3    37    1
    43     4    38    1
    44     5    39    1
    45     7    40    1
    46     7    41    1
    47    10    42    1
    48    12    43    1
    49    14    44    1
    50    17    45    1
    51    20    46    1
    52    21    47    1
    53    23    48    1
    54    23    49    1
    55    25    50    1
    56    25    51    1
    57    26    52    1
    58    27    53    1
    59    27    54    1
    60    28    55    1
    61    29    56    1
    62    29    57    1
    63    30    58    1
    64    30    59    1
    65    33    60    1
    66    34    61    1
    67    36    62    1
