@<TRIPOS>MOLECULE
*****
 60 63 0 0 0
SMALL
GASTEIGER

@<TRIPOS>ATOM
      1 C          -7.8166   -2.5582   -1.3589 C.3     1  UNL1        0.0790
      2 O          -7.7720   -1.2592   -0.7807 O.3     1  UNL1       -0.4914
      3 C          -6.5259   -0.7792   -0.3383 C.ar    1  UNL1        0.1618
      4 C          -5.3822   -1.5445   -0.4615 C.ar    1  UNL1       -0.0124
      5 C          -4.1759   -1.0437   -0.0173 C.ar    1  UNL1       -0.0325
      6 C          -4.0735    0.2081    0.5513 C.ar    1  UNL1        0.0246
      7 C          -5.2208    0.9775    0.6757 C.ar    1  UNL1       -0.0056
      8 C          -6.4462    0.4768    0.2279 C.ar    1  UNL1        0.1622
      9 O          -7.6140    1.2384    0.3450 O.3     1  UNL1       -0.4914
     10 C          -7.5692    2.5201    0.9159 C.3     1  UNL1        0.0790
     11 C          -2.6593    0.4118    0.9055 C.2     1  UNL1        0.1669
     12 O          -2.2895    1.2417    1.8053 O.2     1  UNL1       -0.2917
     13 C          -1.8905   -0.4875    0.0486 C.3     1  UNL1        0.0264
     14 C          -0.5562   -0.9017    0.5581 C.3     1  UNL1       -0.0399
     15 C           0.3579    0.2624    0.7781 C.3     1  UNL1       -0.0381
     16 C           1.7114   -0.2304    1.2994 C.3     1  UNL1       -0.0373
     17 C           2.6392   -0.3834    0.1131 C.3     1  UNL1       -0.0005
     18 N           2.9642    0.8642   -0.5016 N.3     1  UNL1       -0.2981
     19 C           4.0055    1.6141    0.1304 C.3     1  UNL1        0.0240
     20 C           5.3106    0.8920    0.1899 C.ar    1  UNL1       -0.0333
     21 C           6.2011    1.0237   -0.8505 C.ar    1  UNL1       -0.0571
     22 C           7.4140    0.3634   -0.8100 C.ar    1  UNL1       -0.0585
     23 C           7.7456   -0.4251    0.2563 C.ar    1  UNL1       -0.0504
     24 C           9.0541   -1.1516    0.3242 C.3     1  UNL1       -0.0397
     25 C           6.8690   -0.5639    1.2963 C.ar    1  UNL1       -0.0585
     26 C           5.6615    0.0947    1.2540 C.ar    1  UNL1       -0.0571
     27 C           1.8169    1.7414   -0.6396 C.3     1  UNL1       -0.0005
     28 C           0.5100    1.0050   -0.5286 C.3     1  UNL1       -0.0373
     29 C          -2.8155   -1.6876   -0.0490 C.3     1  UNL1       -0.0170
     30 H          -7.1956   -2.6062   -2.2942 H       1  UNL1        0.0660
     31 H          -7.3794   -3.3292   -0.6662 H       1  UNL1        0.0660
     32 H          -8.8795   -2.7939   -1.5729 H       1  UNL1        0.0660
     33 H          -5.5007   -2.5177   -0.9108 H       1  UNL1        0.0658
     34 H          -5.1454    1.9645    1.1229 H       1  UNL1        0.0662
     35 H          -8.5998    2.9589    0.7814 H       1  UNL1        0.0660
     36 H          -7.3225    2.4433    2.0028 H       1  UNL1        0.0660
     37 H          -6.8161    3.1855    0.4693 H       1  UNL1        0.0660
     38 H          -1.7891   -0.0805   -0.9764 H       1  UNL1        0.0384
     39 H          -0.0946   -1.5495   -0.2334 H       1  UNL1        0.0275
     40 H          -0.6397   -1.5573    1.4500 H       1  UNL1        0.0275
     41 H           0.0013    0.9759    1.5239 H       1  UNL1        0.0302
     42 H           2.1396    0.4844    2.0378 H       1  UNL1        0.0280
     43 H           1.6256   -1.2006    1.7934 H       1  UNL1        0.0280
     44 H           3.5207   -0.9379    0.4265 H       1  UNL1        0.0427
     45 H           2.0973   -0.9992   -0.6312 H       1  UNL1        0.0427
     46 H           3.7211    1.9157    1.1708 H       1  UNL1        0.0476
     47 H           4.1748    2.5271   -0.4730 H       1  UNL1        0.0476
     48 H           5.9500    1.6507   -1.7099 H       1  UNL1        0.0621
     49 H           8.1099    0.4801   -1.6470 H       1  UNL1        0.0620
     50 H           9.6909   -0.9470   -0.5457 H       1  UNL1        0.0278
     51 H           9.5700   -0.8013    1.2439 H       1  UNL1        0.0278
     52 H           8.8020   -2.2332    0.3930 H       1  UNL1        0.0278
     53 H           7.1460   -1.2019    2.1514 H       1  UNL1        0.0620
     54 H           4.9713   -0.0283    2.0993 H       1  UNL1        0.0621
     55 H           1.8576    2.1765   -1.6577 H       1  UNL1        0.0427
     56 H           1.8524    2.5798    0.0876 H       1  UNL1        0.0427
     57 H           0.3724    0.3421   -1.4069 H       1  UNL1        0.0280
     58 H          -0.2952    1.7659   -0.5833 H       1  UNL1        0.0280
     59 H          -2.6594   -2.2872   -0.9436 H       1  UNL1        0.0320
     60 H          -2.7395   -2.2989    0.8716 H       1  UNL1        0.0320
@<TRIPOS>BOND
     1     1     2    1
     2     2     3    1
     3     3     4   ar
     4     4     5   ar
     5     5     6   ar
     6     6     7   ar
     7     7     8   ar
     8     8     9    1
     9     9    10    1
    10     6    11    1
    11    11    12    2
    12    11    13    1
    13    13    14    1
    14    14    15    1
    15    15    16    1
    16    16    17    1
    17    17    18    1
    18    18    19    1
    19    19    20    1
    20    20    21   ar
    21    21    22   ar
    22    22    23   ar
    23    23    24    1
    24    23    25   ar
    25    25    26   ar
    26    18    27    1
    27    27    28    1
    28    13    29    1
    29     8     3   ar
    30    28    15    1
    31    29     5    1
    32    26    20   ar
    33     1    30    1
    34     1    31    1
    35     1    32    1
    36     4    33    1
    37     7    34    1
    38    10    35    1
    39    10    36    1
    40    10    37    1
    41    13    38    1
    42    14    39    1
    43    14    40    1
    44    15    41    1
    45    16    42    1
    46    16    43    1
    47    17    44    1
    48    17    45    1
    49    19    46    1
    50    19    47    1
    51    21    48    1
    52    22    49    1
    53    24    50    1
    54    24    51    1
    55    24    52    1
    56    25    53    1
    57    26    54    1
    58    27    55    1
    59    27    56    1
    60    28    57    1
    61    28    58    1
    62    29    59    1
    63    29    60    1
