
     RDKit          3D

 45 44  0  0  0  0  0  0  0  0999 V2000
    3.7522    0.6636    0.1699 C   0  0  2  0  0  0  0  0  0  0  0  0
    5.0958    1.1004    0.0579 O   0  0  0  0  0  0  0  0  0  0  0  0
    3.3928    0.6992    1.6182 C   0  0  0  0  0  0  0  0  0  0  0  0
    1.9824    0.2699    1.9292 C   0  0  0  0  0  0  0  0  0  0  0  0
    0.9526    1.1246    1.2671 C   0  0  0  0  0  0  0  0  0  0  0  0
   -0.4596    0.7269    1.5668 C   0  0  0  0  0  0  0  0  0  0  0  0
   -0.8206   -0.6697    1.1393 C   0  0  0  0  0  0  0  0  0  0  0  0
   -0.6659   -0.8499   -0.3186 C   0  0  0  0  0  0  0  0  0  0  0  0
   -1.3975    0.0317   -1.2588 C   0  0  0  0  0  0  0  0  0  0  0  0
   -2.8701    0.0737   -1.2682 C   0  0  0  0  0  0  0  0  0  0  0  0
   -3.6178    0.5497   -0.0907 C   0  0  0  0  0  0  0  0  0  0  0  0
   -5.1228    0.4881   -0.4857 C   0  0  0  0  0  0  0  0  0  0  0  0
   -5.5014   -0.9219   -0.8290 C   0  0  0  0  0  0  0  0  0  0  0  0
    3.7828   -0.7728   -0.3642 C   0  0  0  0  0  0  0  0  0  0  0  0
    4.2558   -0.7256   -1.7695 C   0  0  0  0  0  0  0  0  0  0  0  0
    5.5510   -1.1042   -2.1355 O   0  0  0  0  0  0  0  0  0  0  0  0
    3.5644   -0.3541   -2.7367 O   0  0  0  0  0  0  0  0  0  0  0  0
    3.1376    1.2778   -0.4906 H   0  0  0  0  0  0  0  0  0  0  0  0
    5.2210    1.9508    0.5194 H   0  0  0  0  0  0  0  0  0  0  0  0
    4.0590   -0.0390    2.1288 H   0  0  0  0  0  0  0  0  0  0  0  0
    3.6327    1.6768    2.0799 H   0  0  0  0  0  0  0  0  0  0  0  0
    1.8751   -0.7935    1.6295 H   0  0  0  0  0  0  0  0  0  0  0  0
    1.8526    0.3668    3.0267 H   0  0  0  0  0  0  0  0  0  0  0  0
    1.1149    1.1783    0.1592 H   0  0  0  0  0  0  0  0  0  0  0  0
    1.0703    2.1727    1.6408 H   0  0  0  0  0  0  0  0  0  0  0  0
   -0.5733    0.7577    2.6870 H   0  0  0  0  0  0  0  0  0  0  0  0
   -1.1205    1.4763    1.1195 H   0  0  0  0  0  0  0  0  0  0  0  0
   -0.0600   -1.3983    1.5998 H   0  0  0  0  0  0  0  0  0  0  0  0
   -1.7670   -1.0541    1.5148 H   0  0  0  0  0  0  0  0  0  0  0  0
   -0.9196   -1.9410   -0.5625 H   0  0  0  0  0  0  0  0  0  0  0  0
    0.4509   -0.8425   -0.5377 H   0  0  0  0  0  0  0  0  0  0  0  0
   -0.9802    1.0964   -1.2084 H   0  0  0  0  0  0  0  0  0  0  0  0
   -1.0139   -0.2713   -2.3022 H   0  0  0  0  0  0  0  0  0  0  0  0
   -3.1782    0.6667   -2.1919 H   0  0  0  0  0  0  0  0  0  0  0  0
   -3.2859   -0.9667   -1.5040 H   0  0  0  0  0  0  0  0  0  0  0  0
   -3.4221    1.6242    0.1353 H   0  0  0  0  0  0  0  0  0  0  0  0
   -3.5304    0.0008    0.8337 H   0  0  0  0  0  0  0  0  0  0  0  0
   -5.7396    0.8895    0.3380 H   0  0  0  0  0  0  0  0  0  0  0  0
   -5.1815    1.1448   -1.3936 H   0  0  0  0  0  0  0  0  0  0  0  0
   -4.8248   -1.6510   -0.3299 H   0  0  0  0  0  0  0  0  0  0  0  0
   -6.5371   -1.1735   -0.4585 H   0  0  0  0  0  0  0  0  0  0  0  0
   -5.4609   -1.0856   -1.9290 H   0  0  0  0  0  0  0  0  0  0  0  0
    2.7899   -1.2576   -0.2975 H   0  0  0  0  0  0  0  0  0  0  0  0
    4.4879   -1.3889    0.2311 H   0  0  0  0  0  0  0  0  0  0  0  0
    6.0291   -0.7496   -2.9290 H   0  0  0  0  0  0  0  0  0  0  0  0
  1  2  1  0
  1  3  1  0
  3  4  1  0
  4  5  1  0
  5  6  1  0
  6  7  1  0
  7  8  1  0
  8  9  1  0
  9 10  1  0
 10 11  1  0
 11 12  1  0
 12 13  1  0
  1 14  1  0
 14 15  1  0
 15 16  1  0
 15 17  2  0
  1 18  1  6
  2 19  1  0
  3 20  1  0
  3 21  1  0
  4 22  1  0
  4 23  1  0
  5 24  1  0
  5 25  1  0
  6 26  1  0
  6 27  1  0
  7 28  1  0
  7 29  1  0
  8 30  1  0
  8 31  1  0
  9 32  1  0
  9 33  1  0
 10 34  1  0
 10 35  1  0
 11 36  1  0
 11 37  1  0
 12 38  1  0
 12 39  1  0
 13 40  1  0
 13 41  1  0
 13 42  1  0
 14 43  1  0
 14 44  1  0
 16 45  1  0
M  END
$$$$
