
     RDKit          3D

 50 52  0  0  0  0  0  0  0  0999 V2000
    0.2698    1.1250   -4.1199 C   0  0  0  0  0  0  0  0  0  0  0  0
    0.0505    0.7816   -2.7663 O   0  0  0  0  0  0  0  0  0  0  0  0
    1.1778    0.5880   -1.9497 C   0  0  0  0  0  0  0  0  0  0  0  0
    2.4505    0.7272   -2.4469 C   0  0  0  0  0  0  0  0  0  0  0  0
    3.5238    0.5480   -1.6891 N   0  0  0  0  0  0  0  0  0  0  0  0
    3.4538    0.2156   -0.3784 C   0  0  0  0  0  0  0  0  0  0  0  0
    4.6911    0.0423    0.3647 C   0  0  0  0  0  0  0  0  0  0  0  0
    4.7220   -0.2891    1.6878 C   0  0  0  0  0  0  0  0  0  0  0  0
    5.9408   -0.4455    2.3615 C   0  0  0  0  0  0  0  0  0  0  0  0
    5.9457   -0.8749    4.0744 Cl  0  0  0  0  0  0  0  0  0  0  0  0
    7.1450   -0.2739    1.7255 C   0  0  0  0  0  0  0  0  0  0  0  0
    7.0946    0.0608    0.3884 C   0  0  0  0  0  0  0  0  0  0  0  0
    5.8978    0.2149   -0.2750 C   0  0  0  0  0  0  0  0  0  0  0  0
    5.9008    0.5478   -1.6029 F   0  0  0  0  0  0  0  0  0  0  0  0
    2.1979    0.0695    0.1414 C   0  0  0  0  0  0  0  0  0  0  0  0
    1.0451    0.2446   -0.5925 C   0  0  0  0  0  0  0  0  0  0  0  0
   -0.2698    0.1892   -0.0814 N   0  0  0  0  0  0  0  0  0  0  0  0
   -0.7098    0.2265    1.2461 C   0  0  0  0  0  0  0  0  0  0  0  0
    0.0961    0.7386    2.2564 C   0  0  0  0  0  0  0  0  0  0  0  0
   -0.2953    0.7171    3.5703 C   0  0  0  0  0  0  0  0  0  0  0  0
   -1.4853    0.1879    3.8590 N   0  0  0  0  0  0  0  0  0  0  0  0
   -2.2988   -0.3202    2.8949 C   0  0  0  0  0  0  0  0  0  0  0  0
   -1.9574   -0.3274    1.5585 C   0  0  0  0  0  0  0  0  0  0  0  0
   -2.8562   -0.9404    0.5991 C   0  0  0  0  0  0  0  0  0  0  0  0
   -2.5709   -1.1691   -0.6200 O   0  0  0  0  0  0  0  0  0  0  0  0
   -4.1856   -1.3542    0.9462 N   0  0  0  0  0  0  0  0  0  0  0  0
   -5.0883   -1.9632   -0.0036 C   0  0  0  0  0  0  0  0  0  0  0  0
   -5.4377   -1.1160   -1.1788 C   0  0  2  0  0  0  0  0  0  0  0  0
   -5.9996    0.2315   -0.7888 C   0  0  0  0  0  0  0  0  0  0  0  0
   -6.3200   -1.7737   -2.0459 O   0  0  0  0  0  0  0  0  0  0  0  0
   -0.6693    1.1203   -4.7025 H   0  0  0  0  0  0  0  0  0  0  0  0
    0.9335    0.3653   -4.6272 H   0  0  0  0  0  0  0  0  0  0  0  0
    0.7518    2.1273   -4.2185 H   0  0  0  0  0  0  0  0  0  0  0  0
    2.5211    0.9968   -3.5135 H   0  0  0  0  0  0  0  0  0  0  0  0
    3.8225   -0.4382    2.2475 H   0  0  0  0  0  0  0  0  0  0  0  0
    8.0685   -0.4019    2.2737 H   0  0  0  0  0  0  0  0  0  0  0  0
    8.0508    0.1995   -0.1260 H   0  0  0  0  0  0  0  0  0  0  0  0
    2.1375   -0.2620    1.1869 H   0  0  0  0  0  0  0  0  0  0  0  0
   -1.0211    0.1393   -0.8317 H   0  0  0  0  0  0  0  0  0  0  0  0
    1.0358    1.2290    2.0708 H   0  0  0  0  0  0  0  0  0  0  0  0
    0.3260    1.1137    4.3808 H   0  0  0  0  0  0  0  0  0  0  0  0
   -3.2538   -0.7373    3.2271 H   0  0  0  0  0  0  0  0  0  0  0  0
   -4.4989   -1.1981    1.9199 H   0  0  0  0  0  0  0  0  0  0  0  0
   -6.0317   -2.2265    0.5144 H   0  0  0  0  0  0  0  0  0  0  0  0
   -4.6709   -2.9399   -0.3562 H   0  0  0  0  0  0  0  0  0  0  0  0
   -4.5235   -0.9174   -1.7681 H   0  0  0  0  0  0  0  0  0  0  0  0
   -6.7931    0.1309   -0.0201 H   0  0  0  0  0  0  0  0  0  0  0  0
   -5.2021    0.8965   -0.4173 H   0  0  0  0  0  0  0  0  0  0  0  0
   -6.3819    0.7061   -1.7266 H   0  0  0  0  0  0  0  0  0  0  0  0
   -6.7300   -1.1114   -2.6489 H   0  0  0  0  0  0  0  0  0  0  0  0
  1  2  1  0
  2  3  1  0
  3  4  2  0
  4  5  1  0
  5  6  2  0
  6  7  1  0
  7  8  2  0
  8  9  1  0
  9 10  1  0
  9 11  2  0
 11 12  1  0
 12 13  2  0
 13 14  1  0
  6 15  1  0
 15 16  2  0
 16 17  1  0
 17 18  1  0
 18 19  2  0
 19 20  1  0
 20 21  2  0
 21 22  1  0
 22 23  2  0
 23 24  1  0
 24 25  2  0
 24 26  1  0
 26 27  1  0
 27 28  1  0
 28 29  1  0
 28 30  1  0
 16  3  1  0
 23 18  1  0
 13  7  1  0
  1 31  1  0
  1 32  1  0
  1 33  1  0
  4 34  1  0
  8 35  1  0
 11 36  1  0
 12 37  1  0
 15 38  1  0
 17 39  1  0
 19 40  1  0
 20 41  1  0
 22 42  1  0
 26 43  1  0
 27 44  1  0
 27 45  1  0
 28 46  1  6
 29 47  1  0
 29 48  1  0
 29 49  1  0
 30 50  1  0
M  END
$$$$
