@<TRIPOS>MOLECULE
*****
 50 52 0 0 0
SMALL
GASTEIGER

@<TRIPOS>ATOM
      1 C           0.2698    1.1250   -4.1199 C.3     1  UNL1        0.0789
      2 O           0.0505    0.7816   -2.7663 O.3     1  UNL1       -0.4917
      3 C           1.1778    0.5880   -1.9497 C.ar    1  UNL1        0.1591
      4 C           2.4505    0.7272   -2.4469 C.ar    1  UNL1        0.0717
      5 N           3.5238    0.5480   -1.6891 N.ar    1  UNL1       -0.2511
      6 C           3.4538    0.2156   -0.3784 C.ar    1  UNL1        0.0758
      7 C           4.6911    0.0423    0.3647 C.ar    1  UNL1        0.0369
      8 C           4.7220   -0.2891    1.6878 C.ar    1  UNL1       -0.0314
      9 C           5.9408   -0.4455    2.3615 C.ar    1  UNL1        0.0418
     10 CL          5.9457   -0.8749    4.0744 Cl      1  UNL1       -0.0835
     11 C           7.1450   -0.2739    1.7255 C.ar    1  UNL1       -0.0406
     12 C           7.0946    0.0608    0.3884 C.ar    1  UNL1       -0.0244
     13 C           5.8978    0.2149   -0.2750 C.ar    1  UNL1        0.1326
     14 F           5.9008    0.5478   -1.6029 F       1  UNL1       -0.2048
     15 C           2.1979    0.0695    0.1414 C.ar    1  UNL1       -0.0108
     16 C           1.0451    0.2446   -0.5925 C.ar    1  UNL1        0.0772
     17 N          -0.2698    0.1892   -0.0814 N.pl3   1  UNL1       -0.3109
     18 C          -0.7098    0.2265    1.2461 C.ar    1  UNL1        0.0466
     19 C           0.0961    0.7386    2.2564 C.ar    1  UNL1       -0.0217
     20 C          -0.2953    0.7171    3.5703 C.ar    1  UNL1        0.0293
     21 N          -1.4853    0.1879    3.8590 N.ar    1  UNL1       -0.2624
     22 C          -2.2988   -0.3202    2.8949 C.ar    1  UNL1        0.0415
     23 C          -1.9574   -0.3274    1.5585 C.ar    1  UNL1        0.0758
     24 C          -2.8562   -0.9404    0.5991 C.2     1  UNL1        0.2474
     25 O          -2.5709   -1.1691   -0.6200 O.2     1  UNL1       -0.2701
     26 N          -4.1856   -1.3542    0.9462 N.am    1  UNL1       -0.3088
     27 C          -5.0883   -1.9632   -0.0036 C.3     1  UNL1        0.0377
     28 C          -5.4377   -1.1160   -1.1788 C.3     1  UNL1        0.0679
     29 C          -5.9996    0.2315   -0.7888 C.3     1  UNL1       -0.0375
     30 O          -6.3200   -1.7737   -2.0459 O.3     1  UNL1       -0.3905
     31 H          -0.6693    1.1203   -4.7025 H       1  UNL1        0.0660
     32 H           0.9335    0.3653   -4.6272 H       1  UNL1        0.0660
     33 H           0.7518    2.1273   -4.2185 H       1  UNL1        0.0660
     34 H           2.5211    0.9968   -3.5135 H       1  UNL1        0.0868
     35 H           3.8225   -0.4382    2.2475 H       1  UNL1        0.0639
     36 H           8.0685   -0.4019    2.2737 H       1  UNL1        0.0633
     37 H           8.0508    0.1995   -0.1260 H       1  UNL1        0.0647
     38 H           2.1375   -0.2620    1.1869 H       1  UNL1        0.0659
     39 H          -1.0211    0.1393   -0.8317 H       1  UNL1        0.1523
     40 H           1.0358    1.2290    2.0708 H       1  UNL1        0.0651
     41 H           0.3260    1.1137    4.3808 H       1  UNL1        0.0830
     42 H          -3.2538   -0.7373    3.2271 H       1  UNL1        0.0838
     43 H          -4.4989   -1.1981    1.9199 H       1  UNL1        0.1491
     44 H          -6.0317   -2.2265    0.5144 H       1  UNL1        0.0487
     45 H          -4.6709   -2.9399   -0.3562 H       1  UNL1        0.0487
     46 H          -4.5235   -0.9174   -1.7681 H       1  UNL1        0.0606
     47 H          -6.7931    0.1309   -0.0201 H       1  UNL1        0.0255
     48 H          -5.2021    0.8965   -0.4173 H       1  UNL1        0.0255
     49 H          -6.3819    0.7061   -1.7266 H       1  UNL1        0.0255
     50 H          -6.7300   -1.1114   -2.6489 H       1  UNL1        0.2098
@<TRIPOS>BOND
     1     1     2    1
     2     2     3    1
     3     3     4   ar
     4     4     5   ar
     5     5     6   ar
     6     6     7    1
     7     7     8   ar
     8     8     9   ar
     9     9    10    1
    10     9    11   ar
    11    11    12   ar
    12    12    13   ar
    13    13    14    1
    14     6    15   ar
    15    15    16   ar
    16    16    17    1
    17    17    18    1
    18    18    19   ar
    19    19    20   ar
    20    20    21   ar
    21    21    22   ar
    22    22    23   ar
    23    23    24    1
    24    24    25    2
    25    24    26   am
    26    26    27    1
    27    27    28    1
    28    28    29    1
    29    28    30    1
    30    16     3   ar
    31    23    18   ar
    32    13     7   ar
    33     1    31    1
    34     1    32    1
    35     1    33    1
    36     4    34    1
    37     8    35    1
    38    11    36    1
    39    12    37    1
    40    15    38    1
    41    17    39    1
    42    19    40    1
    43    20    41    1
    44    22    42    1
    45    26    43    1
    46    27    44    1
    47    27    45    1
    48    28    46    1
    49    29    47    1
    50    29    48    1
    51    29    49    1
    52    30    50    1
