
     RDKit          3D

 40 43  0  0  0  0  0  0  0  0999 V2000
    6.3095    1.9140   -0.9533 C   0  0  0  0  0  0  0  0  0  0  0  0
    5.1613    1.1513   -0.6266 O   0  0  0  0  0  0  0  0  0  0  0  0
    5.2063   -0.1434   -0.1677 C   0  0  0  0  0  0  0  0  0  0  0  0
    6.3330   -0.6803   -0.0305 O   0  0  0  0  0  0  0  0  0  0  0  0
    4.0230   -0.9237    0.1667 C   0  0  0  0  0  0  0  0  0  0  0  0
    4.1341   -2.2193    0.6223 C   0  0  0  0  0  0  0  0  0  0  0  0
    3.0390   -2.9609    0.9386 N   0  0  0  0  0  0  0  0  0  0  0  0
    1.7878   -2.4887    0.8305 C   0  0  0  0  0  0  0  0  0  0  0  0
    1.6327   -1.1952    0.3777 C   0  0  0  0  0  0  0  0  0  0  0  0
    0.2780   -0.6865    0.2619 C   0  0  0  0  0  0  0  0  0  0  0  0
   -0.0063    0.6228    0.4418 C   0  0  0  0  0  0  0  0  0  0  0  0
   -1.3165    1.1246    0.3319 C   0  0  0  0  0  0  0  0  0  0  0  0
   -2.3439    0.2617    0.0324 C   0  0  0  0  0  0  0  0  0  0  0  0
   -2.0817   -1.0648   -0.1540 C   0  0  0  0  0  0  0  0  0  0  0  0
   -0.7587   -1.5314   -0.0361 C   0  0  0  0  0  0  0  0  0  0  0  0
   -3.1213   -2.0452   -0.4801 C   0  0  0  0  0  0  0  0  0  0  0  0
   -4.4938   -1.5091   -0.5707 C   0  0  0  0  0  0  0  0  0  0  0  0
   -4.6593   -0.0713   -0.3576 C   0  0  0  0  0  0  0  0  0  0  0  0
   -5.8068    0.6556   -0.4037 N   0  0  0  0  0  0  0  0  0  0  0  0
   -5.5152    1.8961   -0.1543 N   0  0  0  0  0  0  0  0  0  0  0  0
   -4.1727    2.0259    0.0631 C   0  0  0  0  0  0  0  0  0  0  0  0
   -3.5321    3.3129    0.3703 C   0  0  0  0  0  0  0  0  0  0  0  0
   -3.6704    0.7913   -0.0697 N   0  0  0  0  0  0  0  0  0  0  0  0
    2.7458   -0.4163    0.0474 C   0  0  0  0  0  0  0  0  0  0  0  0
    5.9865    2.6551   -1.7245 H   0  0  0  0  0  0  0  0  0  0  0  0
    6.6828    2.5023   -0.0954 H   0  0  0  0  0  0  0  0  0  0  0  0
    7.1019    1.3085   -1.4184 H   0  0  0  0  0  0  0  0  0  0  0  0
    5.1324   -2.6343    0.7221 H   0  0  0  0  0  0  0  0  0  0  0  0
    0.9395   -3.1256    1.0976 H   0  0  0  0  0  0  0  0  0  0  0  0
    0.7637    1.3150    0.6739 H   0  0  0  0  0  0  0  0  0  0  0  0
   -1.4710    2.1578    0.4847 H   0  0  0  0  0  0  0  0  0  0  0  0
   -0.6184   -2.5870   -0.1943 H   0  0  0  0  0  0  0  0  0  0  0  0
   -2.8417   -2.6121   -1.4189 H   0  0  0  0  0  0  0  0  0  0  0  0
   -3.1019   -2.8146    0.3585 H   0  0  0  0  0  0  0  0  0  0  0  0
   -4.9493   -1.7886   -1.5609 H   0  0  0  0  0  0  0  0  0  0  0  0
   -5.1404   -2.0040    0.2199 H   0  0  0  0  0  0  0  0  0  0  0  0
   -2.8347    3.6877   -0.4065 H   0  0  0  0  0  0  0  0  0  0  0  0
   -4.3325    4.1329    0.3720 H   0  0  0  0  0  0  0  0  0  0  0  0
   -3.1077    3.3886    1.3851 H   0  0  0  0  0  0  0  0  0  0  0  0
    2.6190    0.5983   -0.3075 H   0  0  0  0  0  0  0  0  0  0  0  0
  1  2  1  0
  2  3  1  0
  3  4  2  0
  3  5  1  0
  5  6  2  0
  6  7  1  0
  7  8  2  0
  8  9  1  0
  9 10  1  0
 10 11  2  0
 11 12  1  0
 12 13  2  0
 13 14  1  0
 14 15  2  0
 14 16  1  0
 16 17  1  0
 17 18  1  0
 18 19  2  0
 19 20  1  0
 20 21  2  0
 21 22  1  0
 21 23  1  0
  9 24  2  0
 24  5  1  0
 15 10  1  0
 23 18  1  0
 23 13  1  0
  1 25  1  0
  1 26  1  0
  1 27  1  0
  6 28  1  0
  8 29  1  0
 11 30  1  0
 12 31  1  0
 15 32  1  0
 16 33  1  0
 16 34  1  0
 17 35  1  0
 17 36  1  0
 22 37  1  0
 22 38  1  0
 22 39  1  0
 24 40  1  0
M  END
$$$$
