@<TRIPOS>MOLECULE
*****
 40 43 0 0 0
SMALL
GASTEIGER

@<TRIPOS>ATOM
      1 C           6.3095    1.9140   -0.9533 C.3     1  UNL1        0.0820
      2 O           5.1613    1.1513   -0.6266 O.3     1  UNL1       -0.4644
      3 C           5.2063   -0.1434   -0.1677 C.2     1  UNL1        0.3404
      4 O           6.3330   -0.6803   -0.0305 O.2     1  UNL1       -0.2449
      5 C           4.0230   -0.9237    0.1667 C.ar    1  UNL1        0.0776
      6 C           4.1341   -2.2193    0.6223 C.ar    1  UNL1        0.0416
      7 N           3.0390   -2.9609    0.9386 N.ar    1  UNL1       -0.2618
      8 C           1.7878   -2.4887    0.8305 C.ar    1  UNL1        0.0353
      9 C           1.6327   -1.1952    0.3777 C.ar    1  UNL1        0.0010
     10 C           0.2780   -0.6865    0.2619 C.ar    1  UNL1       -0.0160
     11 C          -0.0063    0.6228    0.4418 C.ar    1  UNL1       -0.0520
     12 C          -1.3165    1.1246    0.3319 C.ar    1  UNL1       -0.0369
     13 C          -2.3439    0.2617    0.0324 C.ar    1  UNL1        0.0526
     14 C          -2.0817   -1.0648   -0.1540 C.ar    1  UNL1       -0.0225
     15 C          -0.7587   -1.5314   -0.0361 C.ar    1  UNL1       -0.0488
     16 C          -3.1213   -2.0452   -0.4801 C.3     1  UNL1       -0.0188
     17 C          -4.4938   -1.5091   -0.5707 C.3     1  UNL1        0.0118
     18 C          -4.6593   -0.0713   -0.3576 C.ar    1  UNL1        0.1383
     19 N          -5.8068    0.6556   -0.4037 N.ar    1  UNL1       -0.1340
     20 N          -5.5152    1.8961   -0.1543 N.ar    1  UNL1       -0.1343
     21 C          -4.1727    2.0259    0.0631 C.ar    1  UNL1        0.1348
     22 C          -3.5321    3.3129    0.3703 C.3     1  UNL1       -0.0041
     23 N          -3.6704    0.7913   -0.0697 N.ar    1  UNL1       -0.2829
     24 C           2.7458   -0.4163    0.0474 C.ar    1  UNL1       -0.0371
     25 H           5.9865    2.6551   -1.7245 H       1  UNL1        0.0661
     26 H           6.6828    2.5023   -0.0954 H       1  UNL1        0.0661
     27 H           7.1019    1.3085   -1.4184 H       1  UNL1        0.0661
     28 H           5.1324   -2.6343    0.7221 H       1  UNL1        0.0838
     29 H           0.9395   -3.1256    1.0976 H       1  UNL1        0.0836
     30 H           0.7637    1.3150    0.6739 H       1  UNL1        0.0624
     31 H          -1.4710    2.1578    0.4847 H       1  UNL1        0.0638
     32 H          -0.6184   -2.5870   -0.1943 H       1  UNL1        0.0627
     33 H          -2.8417   -2.6121   -1.4189 H       1  UNL1        0.0318
     34 H          -3.1019   -2.8146    0.3585 H       1  UNL1        0.0318
     35 H          -4.9493   -1.7886   -1.5609 H       1  UNL1        0.0347
     36 H          -5.1404   -2.0040    0.2199 H       1  UNL1        0.0347
     37 H          -2.8347    3.6877   -0.4065 H       1  UNL1        0.0308
     38 H          -4.3325    4.1329    0.3720 H       1  UNL1        0.0308
     39 H          -3.1077    3.3886    1.3851 H       1  UNL1        0.0308
     40 H           2.6190    0.5983   -0.3075 H       1  UNL1        0.0633
@<TRIPOS>BOND
     1     1     2    1
     2     2     3    1
     3     3     4    2
     4     3     5    1
     5     5     6   ar
     6     6     7   ar
     7     7     8   ar
     8     8     9   ar
     9     9    10    1
    10    10    11   ar
    11    11    12   ar
    12    12    13   ar
    13    13    14   ar
    14    14    15   ar
    15    14    16    1
    16    16    17    1
    17    17    18    1
    18    18    19   ar
    19    19    20   ar
    20    20    21   ar
    21    21    22    1
    22    21    23   ar
    23     9    24   ar
    24    24     5   ar
    25    15    10   ar
    26    23    18   ar
    27    23    13    1
    28     1    25    1
    29     1    26    1
    30     1    27    1
    31     6    28    1
    32     8    29    1
    33    11    30    1
    34    12    31    1
    35    15    32    1
    36    16    33    1
    37    16    34    1
    38    17    35    1
    39    17    36    1
    40    22    37    1
    41    22    38    1
    42    22    39    1
    43    24    40    1
