@<TRIPOS>MOLECULE
*****
 47 48 0 0 0
SMALL
GASTEIGER

@<TRIPOS>ATOM
      1 CL         -1.9545   -1.3037    3.5215 Cl      1  UNL1       -0.0832
      2 C          -2.1572   -1.3715    1.7861 C.ar    1  UNL1        0.0456
      3 C          -3.0346   -2.3582    1.3297 C.ar    1  UNL1       -0.0431
      4 C          -3.2886   -2.5233   -0.0344 C.ar    1  UNL1       -0.0604
      5 C          -2.6347   -1.6709   -0.9052 C.ar    1  UNL1       -0.0614
      6 C          -1.7735   -0.7002   -0.4576 C.ar    1  UNL1       -0.0557
      7 C          -1.5311   -0.5467    0.8866 C.ar    1  UNL1       -0.0119
      8 C          -0.6056    0.4799    1.4303 C.3     1  UNL1        0.0386
      9 N           0.5000    0.8035    0.6014 N.pl3   1  UNL1       -0.3252
     10 C           1.5922   -0.0630    0.3606 C.3     1  UNL1        0.0177
     11 C           1.3719   -1.2797   -0.4759 C.3     1  UNL1       -0.0002
     12 C           2.7207   -2.0029   -0.6050 C.3     1  UNL1        0.0013
     13 N           2.0851   -3.2193   -0.2196 N.3     1  UNL1       -0.3153
     14 C           0.9166   -2.5299    0.2195 C.3     1  UNL1        0.0013
     15 C           0.5186    2.0741   -0.0468 C.ar    1  UNL1        0.0300
     16 C           1.5066    2.4420   -0.9525 C.ar    1  UNL1       -0.0407
     17 C           1.5200    3.6743   -1.5456 C.ar    1  UNL1       -0.0600
     18 C           0.5442    4.6147   -1.2684 C.ar    1  UNL1       -0.0616
     19 C          -0.4399    4.3012   -0.3904 C.ar    1  UNL1       -0.0600
     20 C          -0.4350    3.0436    0.2013 C.ar    1  UNL1       -0.0407
     21 O           0.8979    1.4569   -0.3668 O.2     2  UNL2       -0.2408
     22 C           0.4771    0.2976   -0.0741 C.2     2  UNL2        0.4107
     23 O           1.4174   -0.6781    0.1257 O.3     2  UNL2       -0.4744
     24 C          -0.9602   -0.0205    0.0538 C.3     2  UNL2        0.4910
     25 F          -1.2692   -1.0088   -0.8790 F       2  UNL2       -0.1606
     26 F          -1.7676    1.0597   -0.1631 F       2  UNL2       -0.1606
     27 F          -1.2062   -0.5342    1.3114 F       2  UNL2       -0.1606
     28 H          -3.5414   -3.0181    1.9956 H       1  UNL1        0.0632
     29 H          -3.9711   -3.2918   -0.4029 H       1  UNL1        0.0618
     30 H          -2.8327   -1.8139   -1.9759 H       1  UNL1        0.0618
     31 H          -1.2845   -0.0636   -1.1672 H       1  UNL1        0.0621
     32 H          -0.1735    0.0432    2.4066 H       1  UNL1        0.0513
     33 H          -1.2233    1.3052    1.8086 H       1  UNL1        0.0513
     34 H           1.8136   -0.5177    1.4146 H       1  UNL1        0.0467
     35 H           2.5329    0.4183    0.0738 H       1  UNL1        0.0467
     36 H           0.9677   -1.1343   -1.5010 H       1  UNL1        0.0341
     37 H           3.5034   -1.6580    0.0973 H       1  UNL1        0.0428
     38 H           3.1480   -1.9762   -1.6300 H       1  UNL1        0.0428
     39 H           1.9604   -3.8637   -1.0072 H       1  UNL1        0.1220
     40 H           0.0236   -2.9612   -0.3009 H       1  UNL1        0.0428
     41 H           0.8631   -2.4751    1.3183 H       1  UNL1        0.0428
     42 H           2.3010    1.7321   -1.2306 H       1  UNL1        0.0636
     43 H           2.3261    3.9211   -2.2650 H       1  UNL1        0.0618
     44 H           0.6387    5.5738   -1.7935 H       1  UNL1        0.0618
     45 H          -1.2122    5.0281   -0.1620 H       1  UNL1        0.0618
     46 H          -1.2610    2.8879    0.8861 H       1  UNL1        0.0636
     47 H           2.4108   -0.5726   -0.0079 H       2  UNL2        0.2953
@<TRIPOS>BOND
     1     1     2    1
     2     2     3   ar
     3     3     4   ar
     4     4     5   ar
     5     5     6   ar
     6     6     7   ar
     7     7     8    1
     8     8     9    1
     9     9    10    1
    10    10    11    1
    11    11    12    1
    12    12    13    1
    13    13    14    1
    14     9    15    1
    15    15    16   ar
    16    16    17   ar
    17    17    18   ar
    18    18    19   ar
    19    19    20   ar
    20    21    22    2
    21    22    23    1
    22    22    24    1
    23    24    25    1
    24    24    26    1
    25    24    27    1
    26     7     2   ar
    27    14    11    1
    28    20    15   ar
    29     3    28    1
    30     4    29    1
    31     5    30    1
    32     6    31    1
    33     8    32    1
    34     8    33    1
    35    10    34    1
    36    10    35    1
    37    11    36    1
    38    12    37    1
    39    12    38    1
    40    13    39    1
    41    14    40    1
    42    14    41    1
    43    16    42    1
    44    17    43    1
    45    18    44    1
    46    19    45    1
    47    20    46    1
    48    23    47    1
