@<TRIPOS>MOLECULE
*****
 58 61 0 0 0
SMALL
GASTEIGER

@<TRIPOS>ATOM
      1 C           5.7772   -2.3141   -0.4519 C.3     1  UNL1       -0.0560
      2 C           5.5989   -0.8429   -0.7397 C.3     1  UNL1       -0.0127
      3 C           5.7298   -0.5595   -2.2267 C.3     1  UNL1       -0.0560
      4 C           6.6195    0.0075   -0.0323 C.3     1  UNL1       -0.0560
      5 C           4.2151   -0.4369   -0.3501 C.ar    1  UNL1       -0.0418
      6 C           3.3316   -1.3744    0.1837 C.ar    1  UNL1       -0.0561
      7 C           2.0395   -0.9839    0.5448 C.ar    1  UNL1       -0.0375
      8 C           1.6762    0.3328    0.3589 C.ar    1  UNL1        0.0475
      9 N           0.3564    0.7097    0.7329 N.ar    1  UNL1       -0.3004
     10 C          -0.5743    1.1067   -0.1843 C.ar    1  UNL1        0.1750
     11 C          -0.4006    1.2117   -1.6246 C.2     1  UNL1        0.3575
     12 O          -1.3723    1.5964   -2.3141 O.2     1  UNL1       -0.2433
     13 O           0.7864    0.9058   -2.2580 O.3     1  UNL1       -0.4760
     14 C          -1.7050    1.3833    0.5519 C.ar    1  UNL1        0.1683
     15 O          -2.8868    1.8183    0.0086 O.3     1  UNL1       -0.4530
     16 C          -3.8985    0.9589   -0.4184 C.ar    1  UNL1        0.1296
     17 C          -3.7871   -0.4102   -0.3263 C.ar    1  UNL1       -0.0077
     18 C          -4.8344   -1.1867   -0.7718 C.ar    1  UNL1        0.0588
     19 C          -4.6781   -2.6660   -0.6561 C.3     1  UNL1        0.4175
     20 F          -3.7684   -2.9958    0.3123 F       1  UNL1       -0.1659
     21 F          -5.9022   -3.2200   -0.3587 F       1  UNL1       -0.1659
     22 F          -4.2680   -3.1870   -1.8858 F       1  UNL1       -0.1659
     23 C          -5.9962   -0.6412   -1.3095 C.ar    1  UNL1       -0.0383
     24 C          -6.1111    0.7334   -1.4034 C.ar    1  UNL1        0.0588
     25 C          -7.3470    1.3274   -1.9758 C.3     1  UNL1        0.4175
     26 F          -6.9387    2.4662   -2.6811 F       1  UNL1       -0.1659
     27 F          -8.0998    1.7927   -0.9064 F       1  UNL1       -0.1659
     28 F          -8.0265    0.4576   -2.7727 F       1  UNL1       -0.1659
     29 C          -5.0565    1.4855   -0.9538 C.ar    1  UNL1       -0.0077
     30 C          -1.4689    1.1581    1.9045 C.ar    1  UNL1        0.0448
     31 C          -2.2527    1.2800    3.0431 C.ar    1  UNL1       -0.0307
     32 C          -1.7325    0.9755    4.2989 C.ar    1  UNL1        0.0418
     33 CL         -2.7224    1.1287    5.7445 Cl      1  UNL1       -0.0835
     34 C          -0.4261    0.5560    4.3472 C.ar    1  UNL1       -0.0414
     35 C           0.3675    0.4307    3.2113 C.ar    1  UNL1       -0.0357
     36 C          -0.1682    0.7385    1.9695 C.ar    1  UNL1        0.0583
     37 C           2.5709    1.2389   -0.1714 C.ar    1  UNL1       -0.0375
     38 C           3.8565    0.8790   -0.5375 C.ar    1  UNL1       -0.0561
     39 H           5.6490   -2.4465    0.6452 H       1  UNL1        0.0238
     40 H           6.8386   -2.5860   -0.6920 H       1  UNL1        0.0238
     41 H           5.0686   -2.8889   -1.0466 H       1  UNL1        0.0238
     42 H           6.5221   -1.2119   -2.6617 H       1  UNL1        0.0238
     43 H           5.9926    0.4994   -2.4151 H       1  UNL1        0.0238
     44 H           4.7582   -0.7443   -2.7578 H       1  UNL1        0.0238
     45 H           7.6175   -0.4478   -0.2290 H       1  UNL1        0.0238
     46 H           6.4076    0.1678    1.0232 H       1  UNL1        0.0238
     47 H           6.6381    1.0002   -0.5585 H       1  UNL1        0.0238
     48 H           3.6351   -2.4055    0.3226 H       1  UNL1        0.0621
     49 H           1.3787   -1.7325    0.9553 H       1  UNL1        0.0638
     50 H           0.8332    0.6265   -3.2453 H       1  UNL1        0.2955
     51 H          -2.8815   -0.8017    0.0918 H       1  UNL1        0.0660
     52 H          -6.7741   -1.3158   -1.6374 H       1  UNL1        0.0629
     53 H          -5.1602    2.5674   -1.0336 H       1  UNL1        0.0660
     54 H          -3.2626    1.6129    2.9288 H       1  UNL1        0.0640
     55 H          -0.0195    0.3169    5.3391 H       1  UNL1        0.0633
     56 H           1.3979    0.0929    3.3115 H       1  UNL1        0.0639
     57 H           2.2792    2.2689   -0.3142 H       1  UNL1        0.0638
     58 H           4.5784    1.5671   -0.9551 H       1  UNL1        0.0621
@<TRIPOS>BOND
     1     1     2    1
     2     2     3    1
     3     2     4    1
     4     2     5    1
     5     5     6   ar
     6     6     7   ar
     7     7     8   ar
     8     8     9    1
     9     9    10   ar
    10    10    11    1
    11    11    12    2
    12    11    13    1
    13    10    14   ar
    14    14    15    1
    15    15    16    1
    16    16    17   ar
    17    17    18   ar
    18    18    19    1
    19    19    20    1
    20    19    21    1
    21    19    22    1
    22    18    23   ar
    23    23    24   ar
    24    24    25    1
    25    25    26    1
    26    25    27    1
    27    25    28    1
    28    24    29   ar
    29    14    30   ar
    30    30    31   ar
    31    31    32   ar
    32    32    33    1
    33    32    34   ar
    34    34    35   ar
    35    35    36   ar
    36     8    37   ar
    37    37    38   ar
    38    38     5   ar
    39    36     9   ar
    40    29    16   ar
    41    36    30   ar
    42     1    39    1
    43     1    40    1
    44     1    41    1
    45     3    42    1
    46     3    43    1
    47     3    44    1
    48     4    45    1
    49     4    46    1
    50     4    47    1
    51     6    48    1
    52     7    49    1
    53    13    50    1
    54    17    51    1
    55    23    52    1
    56    29    53    1
    57    31    54    1
    58    34    55    1
    59    35    56    1
    60    37    57    1
    61    38    58    1
