
     RDKit          3D

 58 61  0  0  0  0  0  0  0  0999 V2000
    5.7772   -2.3141   -0.4519 C   0  0  0  0  0  0  0  0  0  0  0  0
    5.5989   -0.8429   -0.7397 C   0  0  0  0  0  0  0  0  0  0  0  0
    5.7298   -0.5595   -2.2267 C   0  0  0  0  0  0  0  0  0  0  0  0
    6.6195    0.0075   -0.0323 C   0  0  0  0  0  0  0  0  0  0  0  0
    4.2151   -0.4369   -0.3501 C   0  0  0  0  0  0  0  0  0  0  0  0
    3.3316   -1.3744    0.1837 C   0  0  0  0  0  0  0  0  0  0  0  0
    2.0395   -0.9839    0.5448 C   0  0  0  0  0  0  0  0  0  0  0  0
    1.6762    0.3328    0.3589 C   0  0  0  0  0  0  0  0  0  0  0  0
    0.3564    0.7097    0.7329 N   0  0  0  0  0  0  0  0  0  0  0  0
   -0.5743    1.1067   -0.1843 C   0  0  0  0  0  0  0  0  0  0  0  0
   -0.4006    1.2117   -1.6246 C   0  0  0  0  0  0  0  0  0  0  0  0
   -1.3723    1.5964   -2.3141 O   0  0  0  0  0  0  0  0  0  0  0  0
    0.7864    0.9058   -2.2580 O   0  0  0  0  0  0  0  0  0  0  0  0
   -1.7050    1.3833    0.5519 C   0  0  0  0  0  0  0  0  0  0  0  0
   -2.8868    1.8183    0.0086 O   0  0  0  0  0  0  0  0  0  0  0  0
   -3.8985    0.9589   -0.4184 C   0  0  0  0  0  0  0  0  0  0  0  0
   -3.7871   -0.4102   -0.3263 C   0  0  0  0  0  0  0  0  0  0  0  0
   -4.8344   -1.1867   -0.7718 C   0  0  0  0  0  0  0  0  0  0  0  0
   -4.6781   -2.6660   -0.6561 C   0  0  0  0  0  0  0  0  0  0  0  0
   -3.7684   -2.9958    0.3123 F   0  0  0  0  0  0  0  0  0  0  0  0
   -5.9022   -3.2200   -0.3587 F   0  0  0  0  0  0  0  0  0  0  0  0
   -4.2680   -3.1870   -1.8858 F   0  0  0  0  0  0  0  0  0  0  0  0
   -5.9962   -0.6412   -1.3095 C   0  0  0  0  0  0  0  0  0  0  0  0
   -6.1111    0.7334   -1.4034 C   0  0  0  0  0  0  0  0  0  0  0  0
   -7.3470    1.3274   -1.9758 C   0  0  0  0  0  0  0  0  0  0  0  0
   -6.9387    2.4662   -2.6811 F   0  0  0  0  0  0  0  0  0  0  0  0
   -8.0998    1.7927   -0.9064 F   0  0  0  0  0  0  0  0  0  0  0  0
   -8.0265    0.4576   -2.7727 F   0  0  0  0  0  0  0  0  0  0  0  0
   -5.0565    1.4855   -0.9538 C   0  0  0  0  0  0  0  0  0  0  0  0
   -1.4689    1.1581    1.9045 C   0  0  0  0  0  0  0  0  0  0  0  0
   -2.2527    1.2800    3.0431 C   0  0  0  0  0  0  0  0  0  0  0  0
   -1.7325    0.9755    4.2989 C   0  0  0  0  0  0  0  0  0  0  0  0
   -2.7224    1.1287    5.7445 Cl  0  0  0  0  0  0  0  0  0  0  0  0
   -0.4261    0.5560    4.3472 C   0  0  0  0  0  0  0  0  0  0  0  0
    0.3675    0.4307    3.2113 C   0  0  0  0  0  0  0  0  0  0  0  0
   -0.1682    0.7385    1.9695 C   0  0  0  0  0  0  0  0  0  0  0  0
    2.5709    1.2389   -0.1714 C   0  0  0  0  0  0  0  0  0  0  0  0
    3.8565    0.8790   -0.5375 C   0  0  0  0  0  0  0  0  0  0  0  0
    5.6490   -2.4465    0.6452 H   0  0  0  0  0  0  0  0  0  0  0  0
    6.8386   -2.5860   -0.6920 H   0  0  0  0  0  0  0  0  0  0  0  0
    5.0686   -2.8889   -1.0466 H   0  0  0  0  0  0  0  0  0  0  0  0
    6.5221   -1.2119   -2.6617 H   0  0  0  0  0  0  0  0  0  0  0  0
    5.9926    0.4994   -2.4151 H   0  0  0  0  0  0  0  0  0  0  0  0
    4.7582   -0.7443   -2.7578 H   0  0  0  0  0  0  0  0  0  0  0  0
    7.6175   -0.4478   -0.2290 H   0  0  0  0  0  0  0  0  0  0  0  0
    6.4076    0.1678    1.0232 H   0  0  0  0  0  0  0  0  0  0  0  0
    6.6381    1.0002   -0.5585 H   0  0  0  0  0  0  0  0  0  0  0  0
    3.6351   -2.4055    0.3226 H   0  0  0  0  0  0  0  0  0  0  0  0
    1.3787   -1.7325    0.9553 H   0  0  0  0  0  0  0  0  0  0  0  0
    0.8332    0.6265   -3.2453 H   0  0  0  0  0  0  0  0  0  0  0  0
   -2.8815   -0.8017    0.0918 H   0  0  0  0  0  0  0  0  0  0  0  0
   -6.7741   -1.3158   -1.6374 H   0  0  0  0  0  0  0  0  0  0  0  0
   -5.1602    2.5674   -1.0336 H   0  0  0  0  0  0  0  0  0  0  0  0
   -3.2626    1.6129    2.9288 H   0  0  0  0  0  0  0  0  0  0  0  0
   -0.0195    0.3169    5.3391 H   0  0  0  0  0  0  0  0  0  0  0  0
    1.3979    0.0929    3.3115 H   0  0  0  0  0  0  0  0  0  0  0  0
    2.2792    2.2689   -0.3142 H   0  0  0  0  0  0  0  0  0  0  0  0
    4.5784    1.5671   -0.9551 H   0  0  0  0  0  0  0  0  0  0  0  0
  1  2  1  0
  2  3  1  0
  2  4  1  0
  2  5  1  0
  5  6  2  0
  6  7  1  0
  7  8  2  0
  8  9  1  0
  9 10  1  0
 10 11  1  0
 11 12  2  0
 11 13  1  0
 10 14  2  0
 14 15  1  0
 15 16  1  0
 16 17  2  0
 17 18  1  0
 18 19  1  0
 19 20  1  0
 19 21  1  0
 19 22  1  0
 18 23  2  0
 23 24  1  0
 24 25  1  0
 25 26  1  0
 25 27  1  0
 25 28  1  0
 24 29  2  0
 14 30  1  0
 30 31  2  0
 31 32  1  0
 32 33  1  0
 32 34  2  0
 34 35  1  0
 35 36  2  0
  8 37  1  0
 37 38  2  0
 38  5  1  0
 36  9  1  0
 29 16  1  0
 36 30  1  0
  1 39  1  0
  1 40  1  0
  1 41  1  0
  3 42  1  0
  3 43  1  0
  3 44  1  0
  4 45  1  0
  4 46  1  0
  4 47  1  0
  6 48  1  0
  7 49  1  0
 13 50  1  0
 17 51  1  0
 23 52  1  0
 29 53  1  0
 31 54  1  0
 34 55  1  0
 35 56  1  0
 37 57  1  0
 38 58  1  0
M  END
$$$$
