
     RDKit          3D

 58 61  0  0  0  0  0  0  0  0999 V2000
   -1.9823   -2.5922    1.3031 C   0  0  0  0  0  0  0  0  0  0  0  0
   -2.1176   -2.7892   -0.2143 C   0  0  2  0  0  0  0  0  0  0  0  0
   -1.6361   -4.2260   -0.4597 C   0  0  0  0  0  0  0  0  0  0  0  0
   -2.4672   -5.0586    0.2683 O   0  0  0  0  0  0  0  0  0  0  0  0
   -1.2480   -1.8326   -0.9328 C   0  0  0  0  0  0  0  0  0  0  0  0
   -1.4742   -0.4619   -0.7266 N   0  0  0  0  0  0  0  0  0  0  0  0
   -2.6877    0.0857   -1.2392 C   0  0  2  0  0  0  0  0  0  0  0  0
   -2.4223    0.4990   -2.6776 C   0  0  0  0  0  0  0  0  0  0  0  0
   -3.1479    1.3306   -0.5157 C   0  0  0  0  0  0  0  0  0  0  0  0
   -1.9929    2.1338   -0.1054 C   0  0  0  0  0  0  0  0  0  0  0  0
   -0.6815    1.7664   -0.2594 C   0  0  0  0  0  0  0  0  0  0  0  0
    0.0666    2.7600    0.2368 N   0  0  0  0  0  0  0  0  0  0  0  0
   -0.7014    3.7613    0.7086 C   0  0  0  0  0  0  0  0  0  0  0  0
   -0.4541    4.9840    1.3063 C   0  0  0  0  0  0  0  0  0  0  0  0
   -1.4604    5.8373    1.7013 C   0  0  0  0  0  0  0  0  0  0  0  0
   -2.7787    5.4580    1.4924 C   0  0  0  0  0  0  0  0  0  0  0  0
   -3.0344    4.2402    0.8970 C   0  0  0  0  0  0  0  0  0  0  0  0
   -2.0148    3.3944    0.5060 C   0  0  0  0  0  0  0  0  0  0  0  0
   -0.3919    0.4358   -0.9000 C   0  0  1  0  0  0  0  0  0  0  0  0
    0.9315   -0.0675   -0.4846 C   0  0  0  0  0  0  0  0  0  0  0  0
    1.1448   -0.6942    0.7249 C   0  0  0  0  0  0  0  0  0  0  0  0
    2.3850   -1.1605    1.0916 C   0  0  0  0  0  0  0  0  0  0  0  0
    3.4852   -1.0131    0.2400 C   0  0  0  0  0  0  0  0  0  0  0  0
    4.7957   -1.5197    0.6466 C   0  0  0  0  0  0  0  0  0  0  0  0
    5.8913   -1.4291   -0.0755 C   0  0  0  0  0  0  0  0  0  0  0  0
    7.1491   -1.9690    0.4257 C   0  0  0  0  0  0  0  0  0  0  0  0
    8.1689   -1.8589   -0.2979 O   0  0  0  0  0  0  0  0  0  0  0  0
    7.2834   -2.5891    1.6394 O   0  0  0  0  0  0  0  0  0  0  0  0
    3.3015   -0.3923   -0.9713 C   0  0  0  0  0  0  0  0  0  0  0  0
    2.0246    0.0695   -1.3104 C   0  0  0  0  0  0  0  0  0  0  0  0
   -2.2195   -1.5411    1.5295 H   0  0  0  0  0  0  0  0  0  0  0  0
   -2.6865   -3.2779    1.8363 H   0  0  0  0  0  0  0  0  0  0  0  0
   -0.9639   -2.8737    1.6241 H   0  0  0  0  0  0  0  0  0  0  0  0
   -3.1755   -2.7747   -0.4419 H   0  0  0  0  0  0  0  0  0  0  0  0
   -0.5999   -4.3627   -0.0749 H   0  0  0  0  0  0  0  0  0  0  0  0
   -1.7248   -4.4843   -1.5347 H   0  0  0  0  0  0  0  0  0  0  0  0
   -2.8661   -5.7825   -0.2658 H   0  0  0  0  0  0  0  0  0  0  0  0
   -0.1911   -2.0883   -0.7414 H   0  0  0  0  0  0  0  0  0  0  0  0
   -1.3800   -2.0450   -2.0385 H   0  0  0  0  0  0  0  0  0  0  0  0
   -3.5045   -0.6726   -1.3095 H   0  0  0  0  0  0  0  0  0  0  0  0
   -3.3720    0.4270   -3.2863 H   0  0  0  0  0  0  0  0  0  0  0  0
   -2.0695    1.5237   -2.7829 H   0  0  0  0  0  0  0  0  0  0  0  0
   -1.7360   -0.2449   -3.1780 H   0  0  0  0  0  0  0  0  0  0  0  0
   -3.8498    1.1076    0.3115 H   0  0  0  0  0  0  0  0  0  0  0  0
   -3.7439    1.9309   -1.2499 H   0  0  0  0  0  0  0  0  0  0  0  0
    1.1109    2.7639    0.2584 H   0  0  0  0  0  0  0  0  0  0  0  0
    0.5598    5.3100    1.4835 H   0  0  0  0  0  0  0  0  0  0  0  0
   -1.2657    6.8077    2.1759 H   0  0  0  0  0  0  0  0  0  0  0  0
   -3.6089    6.1086    1.7918 H   0  0  0  0  0  0  0  0  0  0  0  0
   -4.0490    3.9558    0.7401 H   0  0  0  0  0  0  0  0  0  0  0  0
   -0.3452    0.6784   -2.0033 H   0  0  0  0  0  0  0  0  0  0  0  0
    0.3209   -0.8420    1.4416 H   0  0  0  0  0  0  0  0  0  0  0  0
    2.5472   -1.6512    2.0404 H   0  0  0  0  0  0  0  0  0  0  0  0
    4.9093   -2.0149    1.6136 H   0  0  0  0  0  0  0  0  0  0  0  0
    5.8507   -0.9520   -1.0408 H   0  0  0  0  0  0  0  0  0  0  0  0
    8.1199   -2.4289    2.2089 H   0  0  0  0  0  0  0  0  0  0  0  0
    4.1199   -0.2411   -1.6907 H   0  0  0  0  0  0  0  0  0  0  0  0
    1.8791    0.5626   -2.2708 H   0  0  0  0  0  0  0  0  0  0  0  0
  1  2  1  0
  2  3  1  0
  3  4  1  0
  2  5  1  0
  5  6  1  0
  6  7  1  0
  7  8  1  0
  7  9  1  0
  9 10  1  0
 10 11  2  0
 11 12  1  0
 12 13  1  0
 13 14  2  0
 14 15  1  0
 15 16  2  0
 16 17  1  0
 17 18  2  0
 11 19  1  0
 19 20  1  0
 20 21  2  0
 21 22  1  0
 22 23  2  0
 23 24  1  0
 24 25  2  0
 25 26  1  0
 26 27  2  0
 26 28  1  0
 23 29  1  0
 29 30  2  0
 19  6  1  0
 30 20  1  0
 18 10  1  0
 18 13  1  0
  1 31  1  0
  1 32  1  0
  1 33  1  0
  2 34  1  6
  3 35  1  0
  3 36  1  0
  4 37  1  0
  5 38  1  0
  5 39  1  0
  7 40  1  6
  8 41  1  0
  8 42  1  0
  8 43  1  0
  9 44  1  0
  9 45  1  0
 12 46  1  0
 14 47  1  0
 15 48  1  0
 16 49  1  0
 17 50  1  0
 19 51  1  6
 21 52  1  0
 22 53  1  0
 24 54  1  0
 25 55  1  0
 28 56  1  0
 29 57  1  0
 30 58  1  0
M  END
$$$$
