@<TRIPOS>MOLECULE
*****
 58 61 0 0 0
SMALL
GASTEIGER

@<TRIPOS>ATOM
      1 C          -1.9823   -2.5922    1.3031 C.3     1  UNL1       -0.0592
      2 C          -2.1176   -2.7892   -0.2143 C.3     1  UNL1       -0.0078
      3 C          -1.6361   -4.2260   -0.4597 C.3     1  UNL1        0.0479
      4 O          -2.4672   -5.0586    0.2683 O.3     1  UNL1       -0.3947
      5 C          -1.2480   -1.8326   -0.9328 C.3     1  UNL1        0.0047
      6 N          -1.4742   -0.4619   -0.7266 N.3     1  UNL1       -0.2870
      7 C          -2.6877    0.0857   -1.2392 C.3     1  UNL1        0.0126
      8 C          -2.4223    0.4990   -2.6776 C.3     1  UNL1       -0.0491
      9 C          -3.1479    1.3306   -0.5157 C.3     1  UNL1       -0.0099
     10 C          -1.9929    2.1338   -0.1054 C.ar    1  UNL1       -0.0158
     11 C          -0.6815    1.7664   -0.2594 C.ar    1  UNL1        0.0421
     12 N           0.0666    2.7600    0.2368 N.ar    1  UNL1       -0.3562
     13 C          -0.7014    3.7613    0.7086 C.ar    1  UNL1        0.0470
     14 C          -0.4541    4.9840    1.3063 C.ar    1  UNL1       -0.0378
     15 C          -1.4604    5.8373    1.7013 C.ar    1  UNL1       -0.0598
     16 C          -2.7787    5.4580    1.4924 C.ar    1  UNL1       -0.0611
     17 C          -3.0344    4.2402    0.8970 C.ar    1  UNL1       -0.0523
     18 C          -2.0148    3.3944    0.5060 C.ar    1  UNL1        0.0032
     19 C          -0.3919    0.4358   -0.9000 C.3     1  UNL1        0.0766
     20 C           0.9315   -0.0675   -0.4846 C.ar    1  UNL1       -0.0244
     21 C           1.1448   -0.6942    0.7249 C.ar    1  UNL1       -0.0562
     22 C           2.3850   -1.1605    1.0916 C.ar    1  UNL1       -0.0543
     23 C           3.4852   -1.0131    0.2400 C.ar    1  UNL1       -0.0248
     24 C           4.7957   -1.5197    0.6466 C.2     1  UNL1       -0.0478
     25 C           5.8913   -1.4291   -0.0755 C.2     1  UNL1        0.0229
     26 C           7.1491   -1.9690    0.4257 C.2     1  UNL1        0.3296
     27 O           8.1689   -1.8589   -0.2979 O.2     1  UNL1       -0.2458
     28 O           7.2834   -2.5891    1.6394 O.3     1  UNL1       -0.4775
     29 C           3.3015   -0.3923   -0.9713 C.ar    1  UNL1       -0.0543
     30 C           2.0246    0.0695   -1.3104 C.ar    1  UNL1       -0.0562
     31 H          -2.2195   -1.5411    1.5295 H       1  UNL1        0.0234
     32 H          -2.6865   -3.2779    1.8363 H       1  UNL1        0.0234
     33 H          -0.9639   -2.8737    1.6241 H       1  UNL1        0.0234
     34 H          -3.1755   -2.7747   -0.4419 H       1  UNL1        0.0333
     35 H          -0.5999   -4.3627   -0.0749 H       1  UNL1        0.0560
     36 H          -1.7248   -4.4843   -1.5347 H       1  UNL1        0.0560
     37 H          -2.8661   -5.7825   -0.2658 H       1  UNL1        0.2094
     38 H          -0.1911   -2.0883   -0.7414 H       1  UNL1        0.0430
     39 H          -1.3800   -2.0450   -2.0385 H       1  UNL1        0.0430
     40 H          -3.5045   -0.6726   -1.3095 H       1  UNL1        0.0463
     41 H          -3.3720    0.4270   -3.2863 H       1  UNL1        0.0245
     42 H          -2.0695    1.5237   -2.7829 H       1  UNL1        0.0245
     43 H          -1.7360   -0.2449   -3.1780 H       1  UNL1        0.0245
     44 H          -3.8498    1.1076    0.3115 H       1  UNL1        0.0329
     45 H          -3.7439    1.9309   -1.2499 H       1  UNL1        0.0329
     46 H           1.1109    2.7639    0.2584 H       1  UNL1        0.1657
     47 H           0.5598    5.3100    1.4835 H       1  UNL1        0.0638
     48 H          -1.2657    6.8077    2.1759 H       1  UNL1        0.0618
     49 H          -3.6089    6.1086    1.7918 H       1  UNL1        0.0618
     50 H          -4.0490    3.9558    0.7401 H       1  UNL1        0.0624
     51 H          -0.3452    0.6784   -2.0033 H       1  UNL1        0.0577
     52 H           0.3209   -0.8420    1.4416 H       1  UNL1        0.0621
     53 H           2.5472   -1.6512    2.0404 H       1  UNL1        0.0624
     54 H           4.9093   -2.0149    1.6136 H       1  UNL1        0.0626
     55 H           5.8507   -0.9520   -1.0408 H       1  UNL1        0.0689
     56 H           8.1199   -2.4289    2.2089 H       1  UNL1        0.2954
     57 H           4.1199   -0.2411   -1.6907 H       1  UNL1        0.0624
     58 H           1.8791    0.5626   -2.2708 H       1  UNL1        0.0621
@<TRIPOS>BOND
     1     1     2    1
     2     2     3    1
     3     3     4    1
     4     2     5    1
     5     5     6    1
     6     6     7    1
     7     7     8    1
     8     7     9    1
     9     9    10    1
    10    10    11   ar
    11    11    12   ar
    12    12    13   ar
    13    13    14   ar
    14    14    15   ar
    15    15    16   ar
    16    16    17   ar
    17    17    18   ar
    18    11    19    1
    19    19    20    1
    20    20    21   ar
    21    21    22   ar
    22    22    23   ar
    23    23    24    1
    24    24    25    2
    25    25    26    1
    26    26    27    2
    27    26    28    1
    28    23    29   ar
    29    29    30   ar
    30    19     6    1
    31    30    20   ar
    32    18    10   ar
    33    18    13   ar
    34     1    31    1
    35     1    32    1
    36     1    33    1
    37     2    34    1
    38     3    35    1
    39     3    36    1
    40     4    37    1
    41     5    38    1
    42     5    39    1
    43     7    40    1
    44     8    41    1
    45     8    42    1
    46     8    43    1
    47     9    44    1
    48     9    45    1
    49    12    46    1
    50    14    47    1
    51    15    48    1
    52    16    49    1
    53    17    50    1
    54    19    51    1
    55    21    52    1
    56    22    53    1
    57    24    54    1
    58    25    55    1
    59    28    56    1
    60    29    57    1
    61    30    58    1
