@<TRIPOS>MOLECULE
*****
 58 62 0 0 0
SMALL
GASTEIGER

@<TRIPOS>ATOM
      1 O           6.6134    1.6933   -1.8820 O.2     1  UNL1       -0.2918
      2 C           5.8876    0.8874   -1.2269 C.2     1  UNL1        0.1704
      3 C           4.4555    0.6933   -1.5068 C.3     1  UNL1        0.0506
      4 C           3.6348    0.5654   -0.2473 C.3     1  UNL1        0.1205
      5 C           2.6422   -0.5800   -0.4827 C.3     1  UNL1        0.0034
      6 C           1.4128   -0.2824    0.3805 C.3     1  UNL1        0.0198
      7 N           0.7123    0.7730   -0.3334 N.am    1  UNL1       -0.2854
      8 C          -0.6927    0.8392   -0.4811 C.2     1  UNL1        0.3024
      9 O          -1.1498    1.8263   -1.1506 O.2     1  UNL1       -0.2526
     10 N          -1.5416   -0.1286    0.0785 N.am    1  UNL1       -0.2964
     11 C          -2.9976   -0.0201   -0.1050 C.3     1  UNL1        0.0252
     12 C          -3.5699    0.3067    1.2518 C.3     1  UNL1       -0.0304
     13 C          -4.8603    1.0485    1.1923 C.3     1  UNL1       -0.0257
     14 C          -5.8973    0.2600    0.4658 C.ar    1  UNL1       -0.0441
     15 C          -7.0844    0.9932    0.3426 C.ar    1  UNL1       -0.0583
     16 C          -8.1467    0.4089   -0.3061 C.ar    1  UNL1       -0.0615
     17 C          -8.0554   -0.8640   -0.8249 C.ar    1  UNL1       -0.0615
     18 C          -6.8541   -1.5620   -0.6813 C.ar    1  UNL1       -0.0583
     19 C          -5.7679   -0.9985   -0.0328 C.ar    1  UNL1       -0.0441
     20 C          -4.6290   -1.9454   -0.0186 C.3     1  UNL1       -0.0257
     21 C          -3.4596   -1.3010   -0.6973 C.3     1  UNL1       -0.0304
     22 C           1.5990    1.7963   -0.9033 C.3     1  UNL1        0.0198
     23 C           2.8142    1.8397   -0.0189 C.3     1  UNL1        0.0034
     24 O           4.3608    0.2100    0.8905 O.3     1  UNL1       -0.4845
     25 C           5.6814   -0.2056    0.9210 C.ar    1  UNL1        0.1318
     26 C           6.2298   -0.9318    1.9620 C.ar    1  UNL1       -0.0192
     27 C           7.5706   -1.3091    1.9105 C.ar    1  UNL1       -0.0583
     28 C           8.3679   -0.9726    0.8389 C.ar    1  UNL1       -0.0609
     29 C           7.8380   -0.2499   -0.2053 C.ar    1  UNL1       -0.0477
     30 C           6.5113    0.1131   -0.1365 C.ar    1  UNL1        0.0592
     31 H           4.0824    1.6112   -2.0470 H       1  UNL1        0.0384
     32 H           4.2743   -0.2093   -2.1478 H       1  UNL1        0.0384
     33 H           2.3349   -0.5854   -1.5493 H       1  UNL1        0.0319
     34 H           3.0794   -1.5236   -0.1554 H       1  UNL1        0.0319
     35 H           1.7096    0.1084    1.3591 H       1  UNL1        0.0466
     36 H           0.8299   -1.2187    0.4552 H       1  UNL1        0.0466
     37 H          -1.1937   -0.9402    0.6305 H       1  UNL1        0.1505
     38 H          -3.2022    0.8382   -0.7751 H       1  UNL1        0.0499
     39 H          -2.8270    1.0207    1.7222 H       1  UNL1        0.0286
     40 H          -3.5816   -0.5574    1.9247 H       1  UNL1        0.0286
     41 H          -5.2329    1.1482    2.2428 H       1  UNL1        0.0314
     42 H          -4.7648    2.0738    0.7806 H       1  UNL1        0.0314
     43 H          -7.1804    1.9898    0.7376 H       1  UNL1        0.0620
     44 H          -9.1073    0.9141   -0.4450 H       1  UNL1        0.0618
     45 H          -8.8655   -1.3636   -1.3442 H       1  UNL1        0.0618
     46 H          -6.7601   -2.5555   -1.0782 H       1  UNL1        0.0620
     47 H          -4.8836   -2.8730   -0.5739 H       1  UNL1        0.0314
     48 H          -4.4165   -2.1728    1.0598 H       1  UNL1        0.0314
     49 H          -2.6533   -2.0570   -0.8210 H       1  UNL1        0.0286
     50 H          -3.8044   -1.0897   -1.7528 H       1  UNL1        0.0286
     51 H           1.1261    2.7865   -0.9159 H       1  UNL1        0.0466
     52 H           1.9137    1.4538   -1.9071 H       1  UNL1        0.0466
     53 H           3.4681    2.7136   -0.2520 H       1  UNL1        0.0319
     54 H           2.5820    1.9094    1.0534 H       1  UNL1        0.0319
     55 H           5.6037   -1.2007    2.8132 H       1  UNL1        0.0654
     56 H           7.9975   -1.8871    2.7419 H       1  UNL1        0.0619
     57 H           9.4218   -1.2805    0.8171 H       1  UNL1        0.0618
     58 H           8.4245    0.0436   -1.0730 H       1  UNL1        0.0626
@<TRIPOS>BOND
     1     1     2    2
     2     2     3    1
     3     3     4    1
     4     4     5    1
     5     5     6    1
     6     6     7    1
     7     7     8   am
     8     8     9    2
     9     8    10   am
    10    10    11    1
    11    11    12    1
    12    12    13    1
    13    13    14    1
    14    14    15   ar
    15    15    16   ar
    16    16    17   ar
    17    17    18   ar
    18    18    19   ar
    19    19    20    1
    20    20    21    1
    21     7    22    1
    22    22    23    1
    23     4    24    1
    24    24    25    1
    25    25    26   ar
    26    26    27   ar
    27    27    28   ar
    28    28    29   ar
    29    29    30   ar
    30    30     2    1
    31    23     4    1
    32    30    25   ar
    33    21    11    1
    34    19    14   ar
    35     3    31    1
    36     3    32    1
    37     5    33    1
    38     5    34    1
    39     6    35    1
    40     6    36    1
    41    10    37    1
    42    11    38    1
    43    12    39    1
    44    12    40    1
    45    13    41    1
    46    13    42    1
    47    15    43    1
    48    16    44    1
    49    17    45    1
    50    18    46    1
    51    20    47    1
    52    20    48    1
    53    21    49    1
    54    21    50    1
    55    22    51    1
    56    22    52    1
    57    23    53    1
    58    23    54    1
    59    26    55    1
    60    27    56    1
    61    28    57    1
    62    29    58    1
