
     RDKit          3D

 58 62  0  0  0  0  0  0  0  0999 V2000
    6.6134    1.6933   -1.8820 O   0  0  0  0  0  0  0  0  0  0  0  0
    5.8876    0.8874   -1.2269 C   0  0  0  0  0  0  0  0  0  0  0  0
    4.4555    0.6933   -1.5068 C   0  0  0  0  0  0  0  0  0  0  0  0
    3.6348    0.5654   -0.2473 C   0  0  0  0  0  0  0  0  0  0  0  0
    2.6422   -0.5800   -0.4827 C   0  0  0  0  0  0  0  0  0  0  0  0
    1.4128   -0.2824    0.3805 C   0  0  0  0  0  0  0  0  0  0  0  0
    0.7123    0.7730   -0.3334 N   0  0  0  0  0  0  0  0  0  0  0  0
   -0.6927    0.8392   -0.4811 C   0  0  0  0  0  0  0  0  0  0  0  0
   -1.1498    1.8263   -1.1506 O   0  0  0  0  0  0  0  0  0  0  0  0
   -1.5416   -0.1286    0.0785 N   0  0  0  0  0  0  0  0  0  0  0  0
   -2.9976   -0.0201   -0.1050 C   0  0  0  0  0  0  0  0  0  0  0  0
   -3.5699    0.3067    1.2518 C   0  0  0  0  0  0  0  0  0  0  0  0
   -4.8603    1.0485    1.1923 C   0  0  0  0  0  0  0  0  0  0  0  0
   -5.8973    0.2600    0.4658 C   0  0  0  0  0  0  0  0  0  0  0  0
   -7.0844    0.9932    0.3426 C   0  0  0  0  0  0  0  0  0  0  0  0
   -8.1467    0.4089   -0.3061 C   0  0  0  0  0  0  0  0  0  0  0  0
   -8.0554   -0.8640   -0.8249 C   0  0  0  0  0  0  0  0  0  0  0  0
   -6.8541   -1.5620   -0.6813 C   0  0  0  0  0  0  0  0  0  0  0  0
   -5.7679   -0.9985   -0.0328 C   0  0  0  0  0  0  0  0  0  0  0  0
   -4.6290   -1.9454   -0.0186 C   0  0  0  0  0  0  0  0  0  0  0  0
   -3.4596   -1.3010   -0.6973 C   0  0  0  0  0  0  0  0  0  0  0  0
    1.5990    1.7963   -0.9033 C   0  0  0  0  0  0  0  0  0  0  0  0
    2.8142    1.8397   -0.0189 C   0  0  0  0  0  0  0  0  0  0  0  0
    4.3608    0.2100    0.8905 O   0  0  0  0  0  0  0  0  0  0  0  0
    5.6814   -0.2056    0.9210 C   0  0  0  0  0  0  0  0  0  0  0  0
    6.2298   -0.9318    1.9620 C   0  0  0  0  0  0  0  0  0  0  0  0
    7.5706   -1.3091    1.9105 C   0  0  0  0  0  0  0  0  0  0  0  0
    8.3679   -0.9726    0.8389 C   0  0  0  0  0  0  0  0  0  0  0  0
    7.8380   -0.2499   -0.2053 C   0  0  0  0  0  0  0  0  0  0  0  0
    6.5113    0.1131   -0.1365 C   0  0  0  0  0  0  0  0  0  0  0  0
    4.0824    1.6112   -2.0470 H   0  0  0  0  0  0  0  0  0  0  0  0
    4.2743   -0.2093   -2.1478 H   0  0  0  0  0  0  0  0  0  0  0  0
    2.3349   -0.5854   -1.5493 H   0  0  0  0  0  0  0  0  0  0  0  0
    3.0794   -1.5236   -0.1554 H   0  0  0  0  0  0  0  0  0  0  0  0
    1.7096    0.1084    1.3591 H   0  0  0  0  0  0  0  0  0  0  0  0
    0.8299   -1.2187    0.4552 H   0  0  0  0  0  0  0  0  0  0  0  0
   -1.1937   -0.9402    0.6305 H   0  0  0  0  0  0  0  0  0  0  0  0
   -3.2022    0.8382   -0.7751 H   0  0  0  0  0  0  0  0  0  0  0  0
   -2.8270    1.0207    1.7222 H   0  0  0  0  0  0  0  0  0  0  0  0
   -3.5816   -0.5574    1.9247 H   0  0  0  0  0  0  0  0  0  0  0  0
   -5.2329    1.1482    2.2428 H   0  0  0  0  0  0  0  0  0  0  0  0
   -4.7648    2.0738    0.7806 H   0  0  0  0  0  0  0  0  0  0  0  0
   -7.1804    1.9898    0.7376 H   0  0  0  0  0  0  0  0  0  0  0  0
   -9.1073    0.9141   -0.4450 H   0  0  0  0  0  0  0  0  0  0  0  0
   -8.8655   -1.3636   -1.3442 H   0  0  0  0  0  0  0  0  0  0  0  0
   -6.7601   -2.5555   -1.0782 H   0  0  0  0  0  0  0  0  0  0  0  0
   -4.8836   -2.8730   -0.5739 H   0  0  0  0  0  0  0  0  0  0  0  0
   -4.4165   -2.1728    1.0598 H   0  0  0  0  0  0  0  0  0  0  0  0
   -2.6533   -2.0570   -0.8210 H   0  0  0  0  0  0  0  0  0  0  0  0
   -3.8044   -1.0897   -1.7528 H   0  0  0  0  0  0  0  0  0  0  0  0
    1.1261    2.7865   -0.9159 H   0  0  0  0  0  0  0  0  0  0  0  0
    1.9137    1.4538   -1.9071 H   0  0  0  0  0  0  0  0  0  0  0  0
    3.4681    2.7136   -0.2520 H   0  0  0  0  0  0  0  0  0  0  0  0
    2.5820    1.9094    1.0534 H   0  0  0  0  0  0  0  0  0  0  0  0
    5.6037   -1.2007    2.8132 H   0  0  0  0  0  0  0  0  0  0  0  0
    7.9975   -1.8871    2.7419 H   0  0  0  0  0  0  0  0  0  0  0  0
    9.4218   -1.2805    0.8171 H   0  0  0  0  0  0  0  0  0  0  0  0
    8.4245    0.0436   -1.0730 H   0  0  0  0  0  0  0  0  0  0  0  0
  1  2  2  0
  2  3  1  0
  3  4  1  0
  4  5  1  0
  5  6  1  0
  6  7  1  0
  7  8  1  0
  8  9  2  0
  8 10  1  0
 10 11  1  0
 11 12  1  0
 12 13  1  0
 13 14  1  0
 14 15  2  0
 15 16  1  0
 16 17  2  0
 17 18  1  0
 18 19  2  0
 19 20  1  0
 20 21  1  0
  7 22  1  0
 22 23  1  0
  4 24  1  0
 24 25  1  0
 25 26  2  0
 26 27  1  0
 27 28  2  0
 28 29  1  0
 29 30  2  0
 30  2  1  0
 23  4  1  0
 30 25  1  0
 21 11  1  0
 19 14  1  0
  3 31  1  0
  3 32  1  0
  5 33  1  0
  5 34  1  0
  6 35  1  0
  6 36  1  0
 10 37  1  0
 11 38  1  0
 12 39  1  0
 12 40  1  0
 13 41  1  0
 13 42  1  0
 15 43  1  0
 16 44  1  0
 17 45  1  0
 18 46  1  0
 20 47  1  0
 20 48  1  0
 21 49  1  0
 21 50  1  0
 22 51  1  0
 22 52  1  0
 23 53  1  0
 23 54  1  0
 26 55  1  0
 27 56  1  0
 28 57  1  0
 29 58  1  0
M  END
$$$$
