@<TRIPOS>MOLECULE
*****
 47 50 0 0 0
SMALL
GASTEIGER

@<TRIPOS>ATOM
      1 O          -3.4544   -1.8478    1.6175 O.2     1  UNL1       -0.2967
      2 C          -4.0547   -0.8865    1.2050 C.2     1  UNL1        0.1434
      3 C          -5.2986   -0.3593    1.8366 C.3     1  UNL1        0.0190
      4 C          -6.2938   -0.1328    0.7172 C.3     1  UNL1        0.0026
      5 N          -5.8238   -0.6811   -0.5439 N.3     1  UNL1       -0.3146
      6 C          -4.6518    0.0230   -1.0279 C.3     1  UNL1        0.0098
      7 C          -3.5598   -0.1503   -0.0060 C.3     1  UNL1        0.0585
      8 C          -3.0285    1.1774    0.4929 C.3     1  UNL1       -0.0221
      9 C          -1.7159    0.6947    1.1281 C.3     1  UNL1        0.0159
     10 N          -1.1963   -0.1294    0.0545 N.pl3   1  UNL1       -0.2985
     11 C           0.1809   -0.2368   -0.2752 C.ar    1  UNL1        0.2214
     12 N           1.1235    0.4340    0.4012 N.ar    1  UNL1       -0.1790
     13 C           2.4301    0.3663    0.1299 C.ar    1  UNL1        0.2254
     14 O           3.3325    1.1000    0.8883 O.3     1  UNL1       -0.4378
     15 C           4.6957    1.0785    0.6648 C.ar    1  UNL1        0.1331
     16 C           5.4731    0.1609    1.3033 C.ar    1  UNL1       -0.0191
     17 C           6.8330    0.1446    1.0760 C.ar    1  UNL1       -0.0556
     18 C           7.3828    1.0608    0.2034 C.ar    1  UNL1       -0.0262
     19 C           6.5718    1.9854   -0.4352 C.ar    1  UNL1        0.1269
     20 F           7.1280    2.8692   -1.2816 F       1  UNL1       -0.2054
     21 C           5.2096    2.0062   -0.2113 C.ar    1  UNL1        0.0160
     22 C           2.8384   -0.4419   -0.9087 C.ar    1  UNL1        0.0305
     23 C           1.8875   -1.1571   -1.6378 C.ar    1  UNL1        0.1522
     24 C           2.3529   -2.0235   -2.7552 C.3     1  UNL1        0.4345
     25 F           3.5338   -1.5085   -3.2669 F       1  UNL1       -0.1644
     26 F           1.4225   -2.1285   -3.7626 F       1  UNL1       -0.1644
     27 F           2.6637   -3.2525   -2.2072 F       1  UNL1       -0.1644
     28 N           0.6053   -1.0218   -1.2881 N.ar    1  UNL1       -0.2101
     29 C          -2.3222   -0.7865   -0.5792 C.3     1  UNL1        0.0284
     30 H          -5.1181    0.6450    2.2941 H       1  UNL1        0.0354
     31 H          -5.6847   -1.0165    2.6311 H       1  UNL1        0.0354
     32 H          -7.2364   -0.6607    0.9689 H       1  UNL1        0.0428
     33 H          -6.5461    0.9264    0.5722 H       1  UNL1        0.0428
     34 H          -5.6104   -1.6945   -0.3957 H       1  UNL1        0.1220
     35 H          -4.3834   -0.4291   -1.9999 H       1  UNL1        0.0434
     36 H          -4.9244    1.0860   -1.1855 H       1  UNL1        0.0434
     37 H          -3.6753    1.6557    1.2329 H       1  UNL1        0.0291
     38 H          -2.7404    1.8111   -0.3552 H       1  UNL1        0.0291
     39 H          -1.0830    1.5468    1.3788 H       1  UNL1        0.0465
     40 H          -1.9930    0.0539    1.9895 H       1  UNL1        0.0465
     41 H           5.0462   -0.5730    2.0000 H       1  UNL1        0.0654
     42 H           7.4672   -0.5951    1.5894 H       1  UNL1        0.0620
     43 H           8.4350    1.0709    0.0082 H       1  UNL1        0.0646
     44 H           4.5682    2.7394   -0.7180 H       1  UNL1        0.0683
     45 H           3.8886   -0.4861   -1.1144 H       1  UNL1        0.0692
     46 H          -2.3563   -1.8726   -0.3747 H       1  UNL1        0.0475
     47 H          -2.3194   -0.5643   -1.6799 H       1  UNL1        0.0475
@<TRIPOS>BOND
     1     1     2    2
     2     2     3    1
     3     3     4    1
     4     4     5    1
     5     5     6    1
     6     6     7    1
     7     7     8    1
     8     8     9    1
     9     9    10    1
    10    10    11    1
    11    11    12   ar
    12    12    13   ar
    13    13    14    1
    14    14    15    1
    15    15    16   ar
    16    16    17   ar
    17    17    18   ar
    18    18    19   ar
    19    19    20    1
    20    19    21   ar
    21    13    22   ar
    22    22    23   ar
    23    23    24    1
    24    24    25    1
    25    24    26    1
    26    24    27    1
    27    23    28   ar
    28    10    29    1
    29     7     2    1
    30    28    11   ar
    31    29     7    1
    32    21    15   ar
    33     3    30    1
    34     3    31    1
    35     4    32    1
    36     4    33    1
    37     5    34    1
    38     6    35    1
    39     6    36    1
    40     8    37    1
    41     8    38    1
    42     9    39    1
    43     9    40    1
    44    16    41    1
    45    17    42    1
    46    18    43    1
    47    21    44    1
    48    22    45    1
    49    29    46    1
    50    29    47    1
