
     RDKit          3D

 47 50  0  0  0  0  0  0  0  0999 V2000
   -3.4544   -1.8478    1.6175 O   0  0  0  0  0  0  0  0  0  0  0  0
   -4.0547   -0.8865    1.2050 C   0  0  0  0  0  0  0  0  0  0  0  0
   -5.2986   -0.3593    1.8366 C   0  0  0  0  0  0  0  0  0  0  0  0
   -6.2938   -0.1328    0.7172 C   0  0  0  0  0  0  0  0  0  0  0  0
   -5.8238   -0.6811   -0.5439 N   0  0  0  0  0  0  0  0  0  0  0  0
   -4.6518    0.0230   -1.0279 C   0  0  0  0  0  0  0  0  0  0  0  0
   -3.5598   -0.1503   -0.0060 C   0  0  0  0  0  0  0  0  0  0  0  0
   -3.0285    1.1774    0.4929 C   0  0  0  0  0  0  0  0  0  0  0  0
   -1.7159    0.6947    1.1281 C   0  0  0  0  0  0  0  0  0  0  0  0
   -1.1963   -0.1294    0.0545 N   0  0  0  0  0  0  0  0  0  0  0  0
    0.1809   -0.2368   -0.2752 C   0  0  0  0  0  0  0  0  0  0  0  0
    1.1235    0.4340    0.4012 N   0  0  0  0  0  0  0  0  0  0  0  0
    2.4301    0.3663    0.1299 C   0  0  0  0  0  0  0  0  0  0  0  0
    3.3325    1.1000    0.8883 O   0  0  0  0  0  0  0  0  0  0  0  0
    4.6957    1.0785    0.6648 C   0  0  0  0  0  0  0  0  0  0  0  0
    5.4731    0.1609    1.3033 C   0  0  0  0  0  0  0  0  0  0  0  0
    6.8330    0.1446    1.0760 C   0  0  0  0  0  0  0  0  0  0  0  0
    7.3828    1.0608    0.2034 C   0  0  0  0  0  0  0  0  0  0  0  0
    6.5718    1.9854   -0.4352 C   0  0  0  0  0  0  0  0  0  0  0  0
    7.1280    2.8692   -1.2816 F   0  0  0  0  0  0  0  0  0  0  0  0
    5.2096    2.0062   -0.2113 C   0  0  0  0  0  0  0  0  0  0  0  0
    2.8384   -0.4419   -0.9087 C   0  0  0  0  0  0  0  0  0  0  0  0
    1.8875   -1.1571   -1.6378 C   0  0  0  0  0  0  0  0  0  0  0  0
    2.3529   -2.0235   -2.7552 C   0  0  0  0  0  0  0  0  0  0  0  0
    3.5338   -1.5085   -3.2669 F   0  0  0  0  0  0  0  0  0  0  0  0
    1.4225   -2.1285   -3.7626 F   0  0  0  0  0  0  0  0  0  0  0  0
    2.6637   -3.2525   -2.2072 F   0  0  0  0  0  0  0  0  0  0  0  0
    0.6053   -1.0218   -1.2881 N   0  0  0  0  0  0  0  0  0  0  0  0
   -2.3222   -0.7865   -0.5792 C   0  0  0  0  0  0  0  0  0  0  0  0
   -5.1181    0.6450    2.2941 H   0  0  0  0  0  0  0  0  0  0  0  0
   -5.6847   -1.0165    2.6311 H   0  0  0  0  0  0  0  0  0  0  0  0
   -7.2364   -0.6607    0.9689 H   0  0  0  0  0  0  0  0  0  0  0  0
   -6.5461    0.9264    0.5722 H   0  0  0  0  0  0  0  0  0  0  0  0
   -5.6104   -1.6945   -0.3957 H   0  0  0  0  0  0  0  0  0  0  0  0
   -4.3834   -0.4291   -1.9999 H   0  0  0  0  0  0  0  0  0  0  0  0
   -4.9244    1.0860   -1.1855 H   0  0  0  0  0  0  0  0  0  0  0  0
   -3.6753    1.6557    1.2329 H   0  0  0  0  0  0  0  0  0  0  0  0
   -2.7404    1.8111   -0.3552 H   0  0  0  0  0  0  0  0  0  0  0  0
   -1.0830    1.5468    1.3788 H   0  0  0  0  0  0  0  0  0  0  0  0
   -1.9930    0.0539    1.9895 H   0  0  0  0  0  0  0  0  0  0  0  0
    5.0462   -0.5730    2.0000 H   0  0  0  0  0  0  0  0  0  0  0  0
    7.4672   -0.5951    1.5894 H   0  0  0  0  0  0  0  0  0  0  0  0
    8.4350    1.0709    0.0082 H   0  0  0  0  0  0  0  0  0  0  0  0
    4.5682    2.7394   -0.7180 H   0  0  0  0  0  0  0  0  0  0  0  0
    3.8886   -0.4861   -1.1144 H   0  0  0  0  0  0  0  0  0  0  0  0
   -2.3563   -1.8726   -0.3747 H   0  0  0  0  0  0  0  0  0  0  0  0
   -2.3194   -0.5643   -1.6799 H   0  0  0  0  0  0  0  0  0  0  0  0
  1  2  2  0
  2  3  1  0
  3  4  1  0
  4  5  1  0
  5  6  1  0
  6  7  1  0
  7  8  1  0
  8  9  1  0
  9 10  1  0
 10 11  1  0
 11 12  2  0
 12 13  1  0
 13 14  1  0
 14 15  1  0
 15 16  2  0
 16 17  1  0
 17 18  2  0
 18 19  1  0
 19 20  1  0
 19 21  2  0
 13 22  2  0
 22 23  1  0
 23 24  1  0
 24 25  1  0
 24 26  1  0
 24 27  1  0
 23 28  2  0
 10 29  1  0
  7  2  1  0
 28 11  1  0
 29  7  1  0
 21 15  1  0
  3 30  1  0
  3 31  1  0
  4 32  1  0
  4 33  1  0
  5 34  1  0
  6 35  1  0
  6 36  1  0
  8 37  1  0
  8 38  1  0
  9 39  1  0
  9 40  1  0
 16 41  1  0
 17 42  1  0
 18 43  1  0
 21 44  1  0
 22 45  1  0
 29 46  1  0
 29 47  1  0
M  END
$$$$
