@<TRIPOS>MOLECULE
*****
 33 35 0 0 0
SMALL
GASTEIGER

@<TRIPOS>ATOM
      1 C           0.4564    1.1870    0.4998 C.3     1  UNL1       -0.0473
      2 C          -0.6707    0.2103    0.4657 C.3     1  UNL1        0.0538
      3 C          -0.3248   -1.1979    0.8031 C.3     1  UNL1        0.0169
      4 S           0.8732   -2.0029   -0.2227 S.3     1  UNL1       -0.0981
      5 C           2.5358   -1.4398   -0.0691 C.2     1  UNL1        0.1253
      6 N           2.9904   -0.6094    0.7425 N.2     1  UNL1       -0.2697
      7 C           4.3214   -0.2493    0.7610 C.3     1  UNL1        0.0508
      8 C           5.2003   -1.3490    0.1855 C.3     1  UNL1        0.0198
      9 S           3.9733   -1.9765   -1.0412 S.3     1  UNL1       -0.0977
     10 S          -1.9697    0.8438    1.6165 S.3     1  UNL1       -0.1270
     11 C          -3.3778    0.7460    0.4747 C.3     1  UNL1        0.0945
     12 C          -4.4052   -0.3138    0.7963 C.3     1  UNL1        0.1188
     13 BR         -4.0027   -1.4612    2.2695 Br      1  UNL1       -0.0754
     14 C          -4.0214   -0.8252   -0.5503 C.2     1  UNL1        0.2334
     15 O          -4.6105   -1.5965   -1.3509 O.2     1  UNL1       -0.2742
     16 N          -2.7809   -0.1203   -0.5582 N.am    1  UNL1       -0.2721
     17 C          -1.4326    0.3209   -0.8421 C.3     1  UNL1        0.1389
     18 C          -1.4180    1.6563   -1.4396 C.2     1  UNL1        0.3269
     19 O          -2.4473    2.3503   -1.6592 O.2     1  UNL1       -0.2489
     20 O          -0.2140    2.2383   -1.8059 O.3     1  UNL1       -0.4793
     21 H           1.1554    1.1001   -0.3463 H       1  UNL1        0.0244
     22 H           0.9601    1.1060    1.5067 H       1  UNL1        0.0244
     23 H          -0.0039    2.2217    0.5173 H       1  UNL1        0.0244
     24 H           0.0752   -1.2064    1.8625 H       1  UNL1        0.0394
     25 H          -1.2778   -1.8060    0.8389 H       1  UNL1        0.0394
     26 H           4.5021    0.6655    0.1480 H       1  UNL1        0.0517
     27 H           4.6202   -0.0754    1.8239 H       1  UNL1        0.0517
     28 H           5.4411   -2.1287    0.9238 H       1  UNL1        0.0398
     29 H           6.0693   -0.9179   -0.3139 H       1  UNL1        0.0398
     30 H          -3.7681    1.7011    0.1315 H       1  UNL1        0.0633
     31 H          -5.4492    0.0765    0.7442 H       1  UNL1        0.0540
     32 H          -0.9807   -0.3838   -1.5383 H       1  UNL1        0.0631
     33 H          -0.0190    3.2366   -1.6978 H       1  UNL1        0.2951
@<TRIPOS>BOND
     1     2     1    1
     2     2     3    1
     3     3     4    1
     4     4     5    1
     5     5     6    2
     6     6     7    1
     7     7     8    1
     8     8     9    1
     9     2    10    1
    10    10    11    1
    11    11    12    1
    12    12    13    1
    13    12    14    1
    14    14    15    2
    15    14    16   am
    16    16    17    1
    17    17    18    1
    18    18    19    2
    19    18    20    1
    20    17     2    1
    21     9     5    1
    22    16    11    1
    23     1    21    1
    24     1    22    1
    25     1    23    1
    26     3    24    1
    27     3    25    1
    28     7    26    1
    29     7    27    1
    30     8    28    1
    31     8    29    1
    32    11    30    1
    33    12    31    1
    34    17    32    1
    35    20    33    1
