@<TRIPOS>MOLECULE
*****
 49 52 0 0 0
SMALL
GASTEIGER

@<TRIPOS>ATOM
      1 C           6.6119   -3.6335   -1.0893 C.3     1  UNL1        0.0004
      2 N           5.9212   -2.4132   -1.5267 N.am    1  UNL1       -0.3144
      3 C           5.4804   -1.4472   -0.5878 C.2     1  UNL1        0.2444
      4 O           5.7212   -1.7124    0.6390 O.2     1  UNL1       -0.2702
      5 C           4.7917   -0.2110   -0.9434 C.ar    1  UNL1        0.0444
      6 C           5.4483    0.8000   -1.6428 C.ar    1  UNL1       -0.0490
      7 C           4.8224    1.9893   -1.9718 C.ar    1  UNL1       -0.0605
      8 C           3.5137    2.1559   -1.5859 C.ar    1  UNL1       -0.0539
      9 C           2.8195    1.1840   -0.8915 C.ar    1  UNL1       -0.0137
     10 C           1.4904    1.3714   -0.5110 C.ar    1  UNL1       -0.0116
     11 C           0.7774    0.4175    0.1770 C.ar    1  UNL1        0.1291
     12 O          -0.5398    0.5444    0.5838 O.3     1  UNL1       -0.4553
     13 C          -1.5635    0.3494   -0.3230 C.ar    1  UNL1        0.1391
     14 C          -1.3363    0.0960   -1.6671 C.ar    1  UNL1       -0.0006
     15 C          -2.4244   -0.0846   -2.4900 C.ar    1  UNL1        0.0318
     16 N          -3.6754   -0.0141   -1.9845 N.ar    1  UNL1       -0.2546
     17 C          -3.9087    0.2309   -0.6775 C.ar    1  UNL1        0.0782
     18 C          -5.1815    0.2822   -0.1545 C.ar    1  UNL1        0.0098
     19 C          -5.4043    0.5114    1.1848 C.ar    1  UNL1        0.1635
     20 O          -6.7152    0.5589    1.7108 O.3     1  UNL1       -0.4914
     21 C          -7.7503    0.3868    0.7350 C.3     1  UNL1        0.0790
     22 C          -4.3621    0.7021    2.0663 C.ar    1  UNL1        0.1623
     23 O          -4.5782    0.9339    3.4155 O.3     1  UNL1       -0.4914
     24 C          -3.4258    1.1185    4.2403 C.3     1  UNL1        0.0790
     25 C          -3.0849    0.6508    1.5349 C.ar    1  UNL1       -0.0036
     26 C          -2.8503    0.4184    0.1823 C.ar    1  UNL1        0.0463
     27 C           1.4742   -0.7627    0.4740 C.ar    1  UNL1       -0.0187
     28 C           2.7801   -0.9740    0.1138 C.ar    1  UNL1       -0.0498
     29 C           3.4771    0.0092   -0.5815 C.ar    1  UNL1       -0.0056
     30 H           5.8510   -4.4368   -1.0822 H       1  UNL1        0.0426
     31 H           7.4637   -3.8903   -1.7329 H       1  UNL1        0.0426
     32 H           6.9475   -3.4588   -0.0364 H       1  UNL1        0.0426
     33 H           5.7560   -2.2630   -2.5317 H       1  UNL1        0.1487
     34 H           6.4769    0.5985   -1.9148 H       1  UNL1        0.0625
     35 H           5.3599    2.7750   -2.5263 H       1  UNL1        0.0618
     36 H           2.9826    3.0846   -1.8286 H       1  UNL1        0.0624
     37 H           0.9979    2.2976   -0.7645 H       1  UNL1        0.0660
     38 H          -0.3134    0.0442   -2.0435 H       1  UNL1        0.0670
     39 H          -2.3119   -0.2859   -3.5513 H       1  UNL1        0.0831
     40 H          -5.9927    0.1329   -0.8494 H       1  UNL1        0.0677
     41 H          -8.7475    0.3067    1.2545 H       1  UNL1        0.0660
     42 H          -7.6221   -0.5334    0.1726 H       1  UNL1        0.0660
     43 H          -7.7367    1.2834    0.0831 H       1  UNL1        0.0660
     44 H          -3.7529    1.4050    5.2808 H       1  UNL1        0.0660
     45 H          -2.8899    0.1686    4.3144 H       1  UNL1        0.0660
     46 H          -2.8219    1.9225    3.7734 H       1  UNL1        0.0660
     47 H          -2.2389    0.7943    2.1770 H       1  UNL1        0.0663
     48 H           0.9435   -1.5154    1.0045 H       1  UNL1        0.0654
     49 H           3.3203   -1.8877    0.3444 H       1  UNL1        0.0625
@<TRIPOS>BOND
     1     1     2    1
     2     2     3   am
     3     3     4    2
     4     3     5    1
     5     5     6   ar
     6     6     7   ar
     7     7     8   ar
     8     8     9   ar
     9     9    10   ar
    10    10    11   ar
    11    11    12    1
    12    12    13    1
    13    13    14   ar
    14    14    15   ar
    15    15    16   ar
    16    16    17   ar
    17    17    18   ar
    18    18    19   ar
    19    19    20    1
    20    20    21    1
    21    19    22   ar
    22    22    23    1
    23    23    24    1
    24    22    25   ar
    25    25    26   ar
    26    11    27   ar
    27    27    28   ar
    28    28    29   ar
    29    29     5   ar
    30    29     9   ar
    31    26    13   ar
    32    26    17   ar
    33     1    30    1
    34     1    31    1
    35     1    32    1
    36     2    33    1
    37     6    34    1
    38     7    35    1
    39     8    36    1
    40    10    37    1
    41    14    38    1
    42    15    39    1
    43    18    40    1
    44    21    41    1
    45    21    42    1
    46    21    43    1
    47    24    44    1
    48    24    45    1
    49    24    46    1
    50    25    47    1
    51    27    48    1
    52    28    49    1
