
     RDKit          3D

 49 52  0  0  0  0  0  0  0  0999 V2000
    6.6119   -3.6335   -1.0893 C   0  0  0  0  0  0  0  0  0  0  0  0
    5.9212   -2.4132   -1.5267 N   0  0  0  0  0  0  0  0  0  0  0  0
    5.4804   -1.4472   -0.5878 C   0  0  0  0  0  0  0  0  0  0  0  0
    5.7212   -1.7124    0.6390 O   0  0  0  0  0  0  0  0  0  0  0  0
    4.7917   -0.2110   -0.9434 C   0  0  0  0  0  0  0  0  0  0  0  0
    5.4483    0.8000   -1.6428 C   0  0  0  0  0  0  0  0  0  0  0  0
    4.8224    1.9893   -1.9718 C   0  0  0  0  0  0  0  0  0  0  0  0
    3.5137    2.1559   -1.5859 C   0  0  0  0  0  0  0  0  0  0  0  0
    2.8195    1.1840   -0.8915 C   0  0  0  0  0  0  0  0  0  0  0  0
    1.4904    1.3714   -0.5110 C   0  0  0  0  0  0  0  0  0  0  0  0
    0.7774    0.4175    0.1770 C   0  0  0  0  0  0  0  0  0  0  0  0
   -0.5398    0.5444    0.5838 O   0  0  0  0  0  0  0  0  0  0  0  0
   -1.5635    0.3494   -0.3230 C   0  0  0  0  0  0  0  0  0  0  0  0
   -1.3363    0.0960   -1.6671 C   0  0  0  0  0  0  0  0  0  0  0  0
   -2.4244   -0.0846   -2.4900 C   0  0  0  0  0  0  0  0  0  0  0  0
   -3.6754   -0.0141   -1.9845 N   0  0  0  0  0  0  0  0  0  0  0  0
   -3.9087    0.2309   -0.6775 C   0  0  0  0  0  0  0  0  0  0  0  0
   -5.1815    0.2822   -0.1545 C   0  0  0  0  0  0  0  0  0  0  0  0
   -5.4043    0.5114    1.1848 C   0  0  0  0  0  0  0  0  0  0  0  0
   -6.7152    0.5589    1.7108 O   0  0  0  0  0  0  0  0  0  0  0  0
   -7.7503    0.3868    0.7350 C   0  0  0  0  0  0  0  0  0  0  0  0
   -4.3621    0.7021    2.0663 C   0  0  0  0  0  0  0  0  0  0  0  0
   -4.5782    0.9339    3.4155 O   0  0  0  0  0  0  0  0  0  0  0  0
   -3.4258    1.1185    4.2403 C   0  0  0  0  0  0  0  0  0  0  0  0
   -3.0849    0.6508    1.5349 C   0  0  0  0  0  0  0  0  0  0  0  0
   -2.8503    0.4184    0.1823 C   0  0  0  0  0  0  0  0  0  0  0  0
    1.4742   -0.7627    0.4740 C   0  0  0  0  0  0  0  0  0  0  0  0
    2.7801   -0.9740    0.1138 C   0  0  0  0  0  0  0  0  0  0  0  0
    3.4771    0.0092   -0.5815 C   0  0  0  0  0  0  0  0  0  0  0  0
    5.8510   -4.4368   -1.0822 H   0  0  0  0  0  0  0  0  0  0  0  0
    7.4637   -3.8903   -1.7329 H   0  0  0  0  0  0  0  0  0  0  0  0
    6.9475   -3.4588   -0.0364 H   0  0  0  0  0  0  0  0  0  0  0  0
    5.7560   -2.2630   -2.5317 H   0  0  0  0  0  0  0  0  0  0  0  0
    6.4769    0.5985   -1.9148 H   0  0  0  0  0  0  0  0  0  0  0  0
    5.3599    2.7750   -2.5263 H   0  0  0  0  0  0  0  0  0  0  0  0
    2.9826    3.0846   -1.8286 H   0  0  0  0  0  0  0  0  0  0  0  0
    0.9979    2.2976   -0.7645 H   0  0  0  0  0  0  0  0  0  0  0  0
   -0.3134    0.0442   -2.0435 H   0  0  0  0  0  0  0  0  0  0  0  0
   -2.3119   -0.2859   -3.5513 H   0  0  0  0  0  0  0  0  0  0  0  0
   -5.9927    0.1329   -0.8494 H   0  0  0  0  0  0  0  0  0  0  0  0
   -8.7475    0.3067    1.2545 H   0  0  0  0  0  0  0  0  0  0  0  0
   -7.6221   -0.5334    0.1726 H   0  0  0  0  0  0  0  0  0  0  0  0
   -7.7367    1.2834    0.0831 H   0  0  0  0  0  0  0  0  0  0  0  0
   -3.7529    1.4050    5.2808 H   0  0  0  0  0  0  0  0  0  0  0  0
   -2.8899    0.1686    4.3144 H   0  0  0  0  0  0  0  0  0  0  0  0
   -2.8219    1.9225    3.7734 H   0  0  0  0  0  0  0  0  0  0  0  0
   -2.2389    0.7943    2.1770 H   0  0  0  0  0  0  0  0  0  0  0  0
    0.9435   -1.5154    1.0045 H   0  0  0  0  0  0  0  0  0  0  0  0
    3.3203   -1.8877    0.3444 H   0  0  0  0  0  0  0  0  0  0  0  0
  1  2  1  0
  2  3  1  0
  3  4  2  0
  3  5  1  0
  5  6  2  0
  6  7  1  0
  7  8  2  0
  8  9  1  0
  9 10  2  0
 10 11  1  0
 11 12  1  0
 12 13  1  0
 13 14  2  0
 14 15  1  0
 15 16  2  0
 16 17  1  0
 17 18  2  0
 18 19  1  0
 19 20  1  0
 20 21  1  0
 19 22  2  0
 22 23  1  0
 23 24  1  0
 22 25  1  0
 25 26  2  0
 11 27  2  0
 27 28  1  0
 28 29  2  0
 29  5  1  0
 29  9  1  0
 26 13  1  0
 26 17  1  0
  1 30  1  0
  1 31  1  0
  1 32  1  0
  2 33  1  0
  6 34  1  0
  7 35  1  0
  8 36  1  0
 10 37  1  0
 14 38  1  0
 15 39  1  0
 18 40  1  0
 21 41  1  0
 21 42  1  0
 21 43  1  0
 24 44  1  0
 24 45  1  0
 24 46  1  0
 25 47  1  0
 27 48  1  0
 28 49  1  0
M  END
$$$$
