@<TRIPOS>MOLECULE
*****
 38 41 0 0 0
SMALL
GASTEIGER

@<TRIPOS>ATOM
      1 C          -1.5274    1.4764   -0.4235 C.3     1  UNL1       -0.0396
      2 C          -2.4550    1.4143    0.7540 C.3     1  UNL1       -0.0473
      3 C          -2.5265   -0.0080    1.2455 C.3     1  UNL1       -0.0396
      4 C          -3.0652   -0.8934    0.1612 C.3     1  UNL1       -0.0473
      5 C          -2.1991   -0.8188   -1.0497 C.3     1  UNL1       -0.0396
      6 C          -2.1515    0.6291   -1.5103 C.3     1  UNL1       -0.0473
      7 C          -0.7670   -1.2202   -0.7892 C.3     1  UNL1       -0.0377
      8 C          -0.2217   -0.4409    0.3700 C.3     1  UNL1        0.0315
      9 C          -0.1419    1.0144   -0.0354 C.3     1  UNL1       -0.0377
     10 C          -1.1306   -0.4861    1.5831 C.3     1  UNL1       -0.0377
     11 C           1.1119   -0.9679    0.7904 C.2     1  UNL1        0.1590
     12 O           1.4039   -1.3331    1.9139 O.2     1  UNL1       -0.2949
     13 C           2.0739   -1.0013   -0.3403 C.3     1  UNL1        0.0829
     14 N           3.3337   -0.3891    0.0122 N.ar    1  UNL1       -0.3297
     15 C           3.5527    0.9338   -0.1573 C.ar    1  UNL1        0.0245
     16 C           4.8502    1.2488    0.2358 C.ar    1  UNL1        0.0454
     17 N           5.3757    0.0634    0.6407 N.ar    1  UNL1       -0.2441
     18 C           4.4737   -0.9202    0.5092 C.ar    1  UNL1        0.0963
     19 H          -1.4606    2.5141   -0.8247 H       1  UNL1        0.0301
     20 H          -2.1729    2.1155    1.5442 H       1  UNL1        0.0271
     21 H          -3.4739    1.7283    0.3783 H       1  UNL1        0.0271
     22 H          -3.1401   -0.0634    2.1613 H       1  UNL1        0.0301
     23 H          -4.0800   -0.5616   -0.1457 H       1  UNL1        0.0271
     24 H          -3.1682   -1.9295    0.5482 H       1  UNL1        0.0271
     25 H          -2.6181   -1.4689   -1.8335 H       1  UNL1        0.0301
     26 H          -1.5186    0.6693   -2.4269 H       1  UNL1        0.0271
     27 H          -3.1740    1.0129   -1.6397 H       1  UNL1        0.0271
     28 H          -0.2151   -0.8530   -1.7060 H       1  UNL1        0.0277
     29 H          -0.5823   -2.2936   -0.7748 H       1  UNL1        0.0277
     30 H           0.1443    1.6287    0.8281 H       1  UNL1        0.0277
     31 H           0.5425    1.1229   -0.8926 H       1  UNL1        0.0277
     32 H          -0.7258    0.2611    2.3043 H       1  UNL1        0.0277
     33 H          -1.1280   -1.4452    2.1097 H       1  UNL1        0.0277
     34 H           1.7143   -0.5847   -1.2831 H       1  UNL1        0.0571
     35 H           2.3447   -2.1044   -0.4888 H       1  UNL1        0.0571
     36 H           2.8496    1.6788   -0.5434 H       1  UNL1        0.0825
     37 H           5.2632    2.2501    0.1909 H       1  UNL1        0.0845
     38 H           4.6091   -1.9783    0.7512 H       1  UNL1        0.1029
@<TRIPOS>BOND
     1     1     2    1
     2     2     3    1
     3     3     4    1
     4     4     5    1
     5     5     6    1
     6     5     7    1
     7     7     8    1
     8     8     9    1
     9     8    10    1
    10     8    11    1
    11    11    12    2
    12    11    13    1
    13    13    14    1
    14    14    15   ar
    15    15    16   ar
    16    16    17   ar
    17    17    18   ar
    18     6     1    1
    19    18    14   ar
    20     9     1    1
    21    10     3    1
    22     1    19    1
    23     2    20    1
    24     2    21    1
    25     3    22    1
    26     4    23    1
    27     4    24    1
    28     5    25    1
    29     6    26    1
    30     6    27    1
    31     7    28    1
    32     7    29    1
    33     9    30    1
    34     9    31    1
    35    10    32    1
    36    10    33    1
    37    13    34    1
    38    13    35    1
    39    15    36    1
    40    16    37    1
    41    18    38    1
