@<TRIPOS>MOLECULE
*****
 48 51 0 0 0
SMALL
GASTEIGER

@<TRIPOS>ATOM
      1 N           6.3386   -1.3739   -3.3250 N.1     1  UNL1       -0.1908
      2 C           5.6985   -1.2413   -2.3645 C.1     1  UNL1        0.1007
      3 C           4.8992   -1.0582   -1.1920 C.ar    1  UNL1        0.0705
      4 C           3.9117   -2.0143   -0.9457 C.ar    1  UNL1        0.0458
      5 N           3.1760   -1.8551    0.1606 N.ar    1  UNL1       -0.2502
      6 C           3.3574   -0.8314    1.0133 C.ar    1  UNL1        0.1137
      7 C           2.5143   -0.8091    2.1304 C.ar    1  UNL1        0.1492
      8 N           1.5384   -1.8285    2.3010 N.pl3   1  UNL1       -0.2977
      9 C           0.2328   -1.7494    1.7215 C.ar    1  UNL1        0.0329
     10 C          -0.6910   -2.7539    1.9008 C.ar    1  UNL1       -0.0378
     11 C          -1.9489   -2.7137    1.3532 C.ar    1  UNL1       -0.0243
     12 C          -2.3216   -1.6322    0.5900 C.ar    1  UNL1        0.1291
     13 F          -3.5610   -1.5534    0.0257 F       1  UNL1       -0.2051
     14 C          -1.3993   -0.5980    0.3939 C.ar    1  UNL1        0.0196
     15 C          -1.8239    0.5485   -0.4562 C.3     1  UNL1        0.1258
     16 C          -0.6954    1.5254   -0.5647 C.3     1  UNL1        0.1196
     17 F          -0.2936    2.0664    0.6365 F       1  UNL1       -0.2462
     18 C          -3.0618    1.2062    0.1258 C.3     1  UNL1        0.0251
     19 C          -4.1058    1.5982   -0.8700 C.3     1  UNL1        0.1998
     20 C          -4.6924    2.9718   -0.5612 C.3     1  UNL1        0.4266
     21 F          -3.7436    3.9555   -0.5736 F       1  UNL1       -0.1669
     22 F          -5.3724    2.8688    0.6149 F       1  UNL1       -0.1669
     23 F          -5.6180    3.2307   -1.5565 F       1  UNL1       -0.1669
     24 O          -3.7440    1.4801   -2.2104 O.2     1  UNL1       -0.4534
     25 C          -2.9737    0.3839   -2.5972 C.2     1  UNL1        0.2766
     26 N          -3.1747   -0.2287   -3.8576 N.pl3   1  UNL1       -0.3134
     27 N          -2.1052   -0.0035   -1.7511 N.2     1  UNL1       -0.2228
     28 C          -0.1492   -0.6483    0.9433 C.ar    1  UNL1       -0.0322
     29 N           2.6885    0.1983    2.9925 N.ar    1  UNL1       -0.2351
     30 C           3.6356    1.1688    2.8104 C.ar    1  UNL1        0.0656
     31 C           4.4613    1.1365    1.7049 C.ar    1  UNL1        0.1507
     32 F           5.4014    2.0844    1.5075 F       1  UNL1       -0.2032
     33 C           4.3126    0.1139    0.7956 C.ar    1  UNL1        0.0417
     34 C           5.1027   -0.0109   -0.3441 C.ar    1  UNL1       -0.0308
     35 H           3.7802   -2.8334   -1.6463 H       1  UNL1        0.0843
     36 H           1.7551   -2.6760    2.8629 H       1  UNL1        0.1536
     37 H          -0.4102   -3.6221    2.5070 H       1  UNL1        0.0637
     38 H          -2.6836   -3.4982    1.4880 H       1  UNL1        0.0647
     39 H           0.2164    1.0645   -1.0097 H       1  UNL1        0.0643
     40 H          -0.9450    2.3746   -1.2670 H       1  UNL1        0.0643
     41 H          -2.7293    2.1844    0.6017 H       1  UNL1        0.0331
     42 H          -3.5332    0.5584    0.8931 H       1  UNL1        0.0331
     43 H          -4.9897    0.9018   -0.7267 H       1  UNL1        0.0826
     44 H          -3.6774    0.2817   -4.5965 H       1  UNL1        0.1466
     45 H          -2.8191   -1.1785   -4.0324 H       1  UNL1        0.1466
     46 H           0.6261    0.0931    0.8379 H       1  UNL1        0.0640
     47 H           3.7621    1.9768    3.5179 H       1  UNL1        0.0860
     48 H           5.8543    0.7395   -0.5077 H       1  UNL1        0.0638
@<TRIPOS>BOND
     1     1     2    3
     2     2     3    1
     3     3     4   ar
     4     4     5   ar
     5     5     6   ar
     6     6     7   ar
     7     7     8    1
     8     8     9    1
     9     9    10   ar
    10    10    11   ar
    11    11    12   ar
    12    12    13    1
    13    12    14   ar
    14    14    15    1
    15    15    16    1
    16    16    17    1
    17    15    18    1
    18    18    19    1
    19    19    20    1
    20    20    21    1
    21    20    22    1
    22    20    23    1
    23    19    24    1
    24    24    25    1
    25    25    26    1
    26    25    27    2
    27    14    28   ar
    28     7    29   ar
    29    29    30   ar
    30    30    31   ar
    31    31    32    1
    32    31    33   ar
    33    33    34   ar
    34    34     3   ar
    35    33     6   ar
    36    28     9   ar
    37    27    15    1
    38     4    35    1
    39     8    36    1
    40    10    37    1
    41    11    38    1
    42    16    39    1
    43    16    40    1
    44    18    41    1
    45    18    42    1
    46    19    43    1
    47    26    44    1
    48    26    45    1
    49    28    46    1
    50    30    47    1
    51    34    48    1
