@<TRIPOS>MOLECULE
*****
 41 44 0 0 0
SMALL
GASTEIGER

@<TRIPOS>ATOM
      1 O          -1.1396    4.2197    0.2171 O.3     1  UNL1       -0.3924
      2 C           0.0932    3.5763    0.1288 C.3     1  UNL1        0.0729
      3 C          -0.1947    2.1537   -0.3688 C.3     1  UNL1        0.1112
      4 O           1.0144    1.4411   -0.4823 O.3     1  UNL1       -0.3611
      5 C           0.5549    0.1240   -0.4742 C.3     1  UNL1        0.1161
      6 C          -0.2441    0.0912    0.8090 C.3     1  UNL1        0.1206
      7 O          -1.3116   -0.8060    0.7630 O.3     1  UNL1       -0.3419
      8 C          -2.3466   -0.0317    1.2304 C.3     1  UNL1        0.1712
      9 C          -3.6933   -0.6820    1.1150 C.3     1  UNL1        0.1003
     10 P          -4.1477   -1.0903   -0.5645 P.3     1  UNL1        0.3327
     11 O          -3.2627   -2.3889   -1.1733 O.3     1  UNL1       -0.3239
     12 O          -4.0128    0.2518   -1.5526 O.3     1  UNL1       -0.3239
     13 O          -5.6080   -1.5464   -0.5329 O.2     1  UNL1       -0.2587
     14 O          -2.2321    1.1046    0.4279 O.3     1  UNL1       -0.3422
     15 C          -0.9037    1.4669    0.7512 C.3     1  UNL1        0.1188
     16 C           1.6291   -0.8755   -0.5005 C.ar    1  UNL1        0.0251
     17 C           1.3931   -2.1568   -1.0040 C.ar    1  UNL1        0.0101
     18 N           2.5633   -2.8462   -0.8971 N.ar    1  UNL1       -0.3549
     19 C           3.5025   -2.0384   -0.3495 C.ar    1  UNL1        0.1303
     20 C           2.9374   -0.8060   -0.0959 C.ar    1  UNL1        0.0765
     21 N           3.5921    0.2354    0.4482 N.ar    1  UNL1       -0.3439
     22 C           4.8941    0.0115    0.7515 C.ar    1  UNL1        0.0978
     23 N           5.4992   -1.1688    0.5272 N.ar    1  UNL1       -0.1978
     24 C           4.8242   -2.2183   -0.0255 C.ar    1  UNL1        0.2970
     25 O           5.3932   -3.3252   -0.2354 O.2     1  UNL1       -0.2635
     26 H          -1.7193    3.8841   -0.4960 H       1  UNL1        0.2095
     27 H           0.8080    4.0872   -0.5170 H       1  UNL1        0.0584
     28 H           0.4987    3.4140    1.1678 H       1  UNL1        0.0584
     29 H          -0.7521    2.1804   -1.3259 H       1  UNL1        0.0646
     30 H          -0.1187    0.0146   -1.3453 H       1  UNL1        0.0674
     31 H           0.3955   -0.0103    1.6865 H       1  UNL1        0.0653
     32 H          -2.1385    0.2541    2.2692 H       1  UNL1        0.0916
     33 H          -4.4609   -0.0016    1.5242 H       1  UNL1        0.0438
     34 H          -3.6842   -1.5744    1.7739 H       1  UNL1        0.0438
     35 H          -3.7380   -3.2588   -1.0021 H       1  UNL1        0.2198
     36 H          -4.8177    0.8216   -1.4253 H       1  UNL1        0.2198
     37 H          -0.8790    1.9909    1.7052 H       1  UNL1        0.0651
     38 H           0.4987   -2.6393   -1.4282 H       1  UNL1        0.0811
     39 H           2.7543   -3.8196   -1.1717 H       1  UNL1        0.1655
     40 H           3.1156    1.1285    0.6124 H       1  UNL1        0.1668
     41 H           5.4442    0.8329    1.1904 H       1  UNL1        0.1028
@<TRIPOS>BOND
     1     1     2    1
     2     2     3    1
     3     3     4    1
     4     4     5    1
     5     5     6    1
     6     6     7    1
     7     7     8    1
     8     8     9    1
     9     9    10    1
    10    10    11    1
    11    10    12    1
    12    10    13    2
    13     8    14    1
    14    14    15    1
    15     5    16    1
    16    16    17   ar
    17    17    18   ar
    18    18    19   ar
    19    19    20   ar
    20    20    21   ar
    21    21    22   ar
    22    22    23   ar
    23    23    24   ar
    24    24    25    2
    25    15     3    1
    26    20    16   ar
    27    15     6    1
    28    24    19   ar
    29     1    26    1
    30     2    27    1
    31     2    28    1
    32     3    29    1
    33     5    30    1
    34     6    31    1
    35     8    32    1
    36     9    33    1
    37     9    34    1
    38    11    35    1
    39    12    36    1
    40    15    37    1
    41    17    38    1
    42    18    39    1
    43    21    40    1
    44    22    41    1
