
     RDKit          3D

 30 31  0  0  0  0  0  0  0  0999 V2000
    3.5517    2.0464   -0.8360 C   0  0  0  0  0  0  0  0  0  0  0  0
    2.2157    2.0153   -0.6734 O   0  0  0  0  0  0  0  0  0  0  0  0
    1.1516    1.4013   -0.2858 C   0  0  0  0  0  0  0  0  0  0  0  0
    0.0565    0.7695    0.1131 C   0  0  0  0  0  0  0  0  0  0  0  0
   -0.6481   -0.2259    0.6337 C   0  0  0  0  0  0  0  0  0  0  0  0
   -2.1037   -0.1467    0.7643 C   0  0  0  0  0  0  0  0  0  0  0  0
   -2.8355   -0.6088   -0.4974 C   0  0  0  0  0  0  0  0  0  0  0  0
   -4.3217   -0.5246   -0.2780 C   0  0  0  0  0  0  0  0  0  0  0  0
   -2.5027    0.3317   -1.5664 N   0  0  0  0  0  0  0  0  0  0  0  0
    0.1699   -1.2528    1.0129 C   0  0  0  0  0  0  0  0  0  0  0  0
    1.4938   -1.0264    0.7720 C   0  0  0  0  0  0  0  0  0  0  0  0
    2.0144    0.1724    0.1777 C   0  0  0  0  0  0  0  0  0  0  0  0
    3.4004   -0.2039    0.2081 O   0  0  0  0  0  0  0  0  0  0  0  0
    3.6410   -1.5428    0.3363 C   0  0  0  0  0  0  0  0  0  0  0  0
    2.4992   -1.9843    1.0968 O   0  0  0  0  0  0  0  0  0  0  0  0
    3.9512    1.2318   -1.5052 H   0  0  0  0  0  0  0  0  0  0  0  0
    4.1279    1.9808    0.1233 H   0  0  0  0  0  0  0  0  0  0  0  0
    3.8702    3.0495   -1.2530 H   0  0  0  0  0  0  0  0  0  0  0  0
   -0.5540    1.6942   -0.2311 H   0  0  0  0  0  0  0  0  0  0  0  0
   -2.4759   -0.6843    1.6398 H   0  0  0  0  0  0  0  0  0  0  0  0
   -2.4310    0.9255    0.8975 H   0  0  0  0  0  0  0  0  0  0  0  0
   -2.5536   -1.6037   -0.7793 H   0  0  0  0  0  0  0  0  0  0  0  0
   -4.4972    0.0660    0.6571 H   0  0  0  0  0  0  0  0  0  0  0  0
   -4.8090    0.0403   -1.0919 H   0  0  0  0  0  0  0  0  0  0  0  0
   -4.7848   -1.5454   -0.1900 H   0  0  0  0  0  0  0  0  0  0  0  0
   -2.9918    0.1313   -2.4577 H   0  0  0  0  0  0  0  0  0  0  0  0
   -2.6427    1.3234   -1.2571 H   0  0  0  0  0  0  0  0  0  0  0  0
   -0.2630   -2.1205    1.4505 H   0  0  0  0  0  0  0  0  0  0  0  0
    3.7083   -2.0468   -0.6458 H   0  0  0  0  0  0  0  0  0  0  0  0
    4.5627   -1.6625    0.9507 H   0  0  0  0  0  0  0  0  0  0  0  0
  1  2  1  0
  2  3  1  0
  3  4  2  0
  4  5  1  0
  5  6  1  0
  6  7  1  0
  7  8  1  0
  7  9  1  0
  5 10  2  0
 10 11  1  0
 11 12  2  0
 12 13  1  0
 13 14  1  0
 14 15  1  0
 12  3  1  0
 15 11  1  0
  1 16  1  0
  1 17  1  0
  1 18  1  0
  4 19  1  0
  6 20  1  0
  6 21  1  0
  7 22  1  0
  8 23  1  0
  8 24  1  0
  8 25  1  0
  9 26  1  0
  9 27  1  0
 10 28  1  0
 14 29  1  0
 14 30  1  0
M  END
$$$$
