@<TRIPOS>MOLECULE
*****
 48 46 0 0 0
SMALL
GASTEIGER

@<TRIPOS>ATOM
      1 GD          0.0000    0.0000    0.0000 Gd      1  UNL1        0.0000
      2 O           6.0677   -1.0331   -2.2860 O.3     2  UNL2        0.0000
      3 C           5.1158   -0.6781   -1.3785 C.2     2  UNL2        0.0000
      4 O           5.9941    0.1240   -0.9062 O.2     2  UNL2        0.0000
      5 C           3.7461   -0.8679   -0.8790 C.3     2  UNL2        0.0000
      6 N           3.3984   -0.0287    0.1576 N.3     2  UNL2        0.0000
      7 C           2.0658   -0.1594    0.6837 C.3     2  UNL2        0.0000
      8 C           1.0707    0.2795   -0.3361 C.3     2  UNL2        0.0000
      9 N          -0.2872    0.2278    0.0752 N.3     2  UNL2        0.0000
     10 C          -1.1149    0.6353   -1.0213 C.3     2  UNL2        0.0000
     11 C          -2.5439    0.8606   -0.7565 C.3     2  UNL2        0.0000
     12 N          -3.2865   -0.2624   -0.2287 N.3     2  UNL2        0.0000
     13 C          -3.4588   -1.3509   -1.1607 C.3     2  UNL2        0.0000
     14 C          -4.2029   -2.4861   -0.4964 C.2     2  UNL2        0.0000
     15 O          -4.7371   -2.9244    0.7266 O.3     2  UNL2        0.0000
     16 O          -4.4818   -3.4515   -1.2887 O.2     2  UNL2        0.0000
     17 C          -4.6446    0.1726    0.1035 C.3     2  UNL2        0.0000
     18 C          -4.6405    1.1011    1.2489 C.2     2  UNL2        0.0000
     19 O          -5.3149    1.8919    2.1455 O.co2   2  UNL2       -0.5000
     20 O          -3.9915    1.7365    2.1119 O.co2   2  UNL2       -0.5000
     21 C          -0.6381    0.7353    1.3384 C.3     2  UNL2        0.0000
     22 C          -0.5418    2.1934    1.4821 C.2     2  UNL2        0.0000
     23 O          -0.2697    3.3565    0.7938 O.co2   2  UNL2       -0.5000
     24 O          -0.6223    3.2497    2.1960 O.co2   2  UNL2       -0.5000
     25 C           4.2902    0.7076    0.9293 C.3     2  UNL2        0.0000
     26 C           5.1132   -0.2626    1.7358 C.2     2  UNL2        0.0000
     27 O           6.0550    0.3426    2.5660 O.co2   2  UNL2       -0.5000
     28 O           5.0064   -1.5427    1.7106 O.co2   2  UNL2       -0.5000
     29 H           6.7484   -1.7810   -2.1371 H       2  UNL2        0.0000
     30 H           3.0382   -0.9192   -1.7354 H       2  UNL2        0.0000
     31 H           3.7233   -1.9367   -0.4621 H       2  UNL2        0.0000
     32 H           2.0239    0.4143    1.6183 H       2  UNL2        0.0000
     33 H           1.9278   -1.2289    0.9366 H       2  UNL2        0.0000
     34 H           1.3105    1.3142   -0.6932 H       2  UNL2        0.0000
     35 H           1.1419   -0.3529   -1.2670 H       2  UNL2        0.0000
     36 H          -0.6220    1.5693   -1.4386 H       2  UNL2        0.0000
     37 H          -1.0002   -0.1277   -1.8194 H       2  UNL2        0.0000
     38 H          -3.0189    1.0949   -1.7642 H       2  UNL2        0.0000
     39 H          -2.7798    1.7106   -0.0890 H       2  UNL2        0.0000
     40 H          -2.4968   -1.7830   -1.4992 H       2  UNL2        0.0000
     41 H          -4.0949   -0.9473   -1.9808 H       2  UNL2        0.0000
     42 H          -5.7549   -3.0067    0.7615 H       2  UNL2        0.0000
     43 H          -5.2600   -0.7241    0.2901 H       2  UNL2        0.0000
     44 H          -5.0480    0.7362   -0.7609 H       2  UNL2        0.0000
     45 H           0.0511    0.2791    2.0960 H       2  UNL2        0.0000
     46 H          -1.6498    0.3424    1.6157 H       2  UNL2        0.0000
     47 H           3.6885    1.3107    1.7002 H       2  UNL2        0.0000
     48 H           4.9246    1.4688    0.4785 H       2  UNL2        0.0000
@<TRIPOS>UNITY_ATOM_ATTR
1 1
charge 3
19 1
charge -1
23 1
charge -1
27 1
charge -1
@<TRIPOS>BOND
     1     2     3    1
     2     3     4    2
     3     3     5    1
     4     5     6    1
     5     6     7    1
     6     7     8    1
     7     8     9    1
     8     9    10    1
     9    10    11    1
    10    11    12    1
    11    12    13    1
    12    13    14    1
    13    14    15    1
    14    14    16    2
    15    12    17    1
    16    17    18    1
    17    18    19   ar
    18    18    20   ar
    19     9    21    1
    20    21    22    1
    21    22    23   ar
    22    22    24   ar
    23     6    25    1
    24    25    26    1
    25    26    27   ar
    26    26    28   ar
    27     2    29    1
    28     5    30    1
    29     5    31    1
    30     7    32    1
    31     7    33    1
    32     8    34    1
    33     8    35    1
    34    10    36    1
    35    10    37    1
    36    11    38    1
    37    11    39    1
    38    13    40    1
    39    13    41    1
    40    15    42    1
    41    17    43    1
    42    17    44    1
    43    21    45    1
    44    21    46    1
    45    25    47    1
    46    25    48    1
