
     RDKit          3D

 64 69  0  0  0  0  0  0  0  0999 V2000
   -8.2965    2.2612   -0.2878 C   0  0  0  0  0  0  0  0  0  0  0  0
   -7.3172    1.4827   -0.9687 N   0  0  0  0  0  0  0  0  0  0  0  0
   -7.0402    0.2102   -0.3729 C   0  0  0  0  0  0  0  0  0  0  0  0
   -5.7838    0.1322    0.3992 C   0  0  0  0  0  0  0  0  0  0  0  0
   -4.6987    0.9706   -0.0742 N   0  0  0  0  0  0  0  0  0  0  0  0
   -3.3693    0.4767   -0.0762 C   0  0  0  0  0  0  0  0  0  0  0  0
   -2.3033    1.3128   -0.2557 C   0  0  0  0  0  0  0  0  0  0  0  0
   -1.0389    0.7398   -0.2535 C   0  0  0  0  0  0  0  0  0  0  0  0
   -0.8563   -0.6181   -0.0776 C   0  0  0  0  0  0  0  0  0  0  0  0
   -1.9575   -1.4237    0.1002 C   0  0  0  0  0  0  0  0  0  0  0  0
   -3.1665   -0.8640    0.0963 N   0  0  0  0  0  0  0  0  0  0  0  0
   -1.4770   -2.6799    0.2441 N   0  0  0  0  0  0  0  0  0  0  0  0
   -0.1384   -2.6760    0.1624 C   0  0  0  0  0  0  0  0  0  0  0  0
    0.7289   -3.8749    0.2750 C   0  0  0  0  0  0  0  0  0  0  0  0
    1.6831   -3.9587    1.2492 C   0  0  0  0  0  0  0  0  0  0  0  0
    2.4876   -5.0606    1.3608 C   0  0  0  0  0  0  0  0  0  0  0  0
    2.3673   -6.1288    0.4954 C   0  0  0  0  0  0  0  0  0  0  0  0
    3.1644   -7.2320    0.5980 F   0  0  0  0  0  0  0  0  0  0  0  0
    1.3963   -6.0258   -0.4839 C   0  0  0  0  0  0  0  0  0  0  0  0
    0.5802   -4.9209   -0.6058 C   0  0  0  0  0  0  0  0  0  0  0  0
    0.2369   -1.4149   -0.0341 N   0  0  0  0  0  0  0  0  0  0  0  0
    1.5639   -0.9585   -0.1777 C   0  0  0  0  0  0  0  0  0  0  0  0
    2.5002   -1.7008   -0.8442 C   0  0  0  0  0  0  0  0  0  0  0  0
    3.7680   -1.1644   -0.9283 C   0  0  0  0  0  0  0  0  0  0  0  0
    4.0919    0.0243   -0.3916 N   0  0  0  0  0  0  0  0  0  0  0  0
    3.1634    0.7454    0.2613 C   0  0  0  0  0  0  0  0  0  0  0  0
    3.5248    1.9922    0.8179 N   0  0  0  0  0  0  0  0  0  0  0  0
    4.8191    2.5791    0.7526 C   0  0  0  0  0  0  0  0  0  0  0  0
    5.3020    2.8310   -0.6552 C   0  0  0  0  0  0  0  0  0  0  0  0
    6.7481    3.2436   -0.4037 C   0  0  0  0  0  0  0  0  0  0  0  0
    7.1601    2.5358    0.8644 C   0  0  0  0  0  0  0  0  0  0  0  0
    5.9317    1.7337    1.3159 C   0  0  0  0  0  0  0  0  0  0  0  0
    1.9310    0.2275    0.3450 N   0  0  0  0  0  0  0  0  0  0  0  0
   -5.0179    2.2924   -0.5381 C   0  0  0  0  0  0  0  0  0  0  0  0
   -6.2022    2.1801   -1.4778 C   0  0  0  0  0  0  0  0  0  0  0  0
   -8.0420    2.4102    0.7698 H   0  0  0  0  0  0  0  0  0  0  0  0
   -8.4154    3.2189   -0.8309 H   0  0  0  0  0  0  0  0  0  0  0  0
   -9.2648    1.7037   -0.3348 H   0  0  0  0  0  0  0  0  0  0  0  0
   -7.1134   -0.5786   -1.1674 H   0  0  0  0  0  0  0  0  0  0  0  0
   -7.8920   -0.0155    0.3230 H   0  0  0  0  0  0  0  0  0  0  0  0
   -5.9469    0.3810    1.4814 H   0  0  0  0  0  0  0  0  0  0  0  0
   -5.4300   -0.9224    0.3967 H   0  0  0  0  0  0  0  0  0  0  0  0
   -2.4320    2.3758   -0.3868 H   0  0  0  0  0  0  0  0  0  0  0  0
   -0.2034    1.4037   -0.3957 H   0  0  0  0  0  0  0  0  0  0  0  0
    1.8047   -3.1457    1.9404 H   0  0  0  0  0  0  0  0  0  0  0  0
    3.2605   -5.1594    2.1286 H   0  0  0  0  0  0  0  0  0  0  0  0
    1.2398   -6.8272   -1.2048 H   0  0  0  0  0  0  0  0  0  0  0  0
   -0.1818   -4.8878   -1.4074 H   0  0  0  0  0  0  0  0  0  0  0  0
    2.2878   -2.6603   -1.2916 H   0  0  0  0  0  0  0  0  0  0  0  0
    4.5119   -1.7503   -1.4557 H   0  0  0  0  0  0  0  0  0  0  0  0
    2.7568    2.5133    1.3179 H   0  0  0  0  0  0  0  0  0  0  0  0
    4.8342    3.5348    1.3548 H   0  0  0  0  0  0  0  0  0  0  0  0
    4.7411    3.6091   -1.1838 H   0  0  0  0  0  0  0  0  0  0  0  0
    5.3392    1.8788   -1.1849 H   0  0  0  0  0  0  0  0  0  0  0  0
    6.7847    4.3370   -0.3283 H   0  0  0  0  0  0  0  0  0  0  0  0
    7.3331    2.9297   -1.2807 H   0  0  0  0  0  0  0  0  0  0  0  0
    8.0378    1.8944    0.7239 H   0  0  0  0  0  0  0  0  0  0  0  0
    7.3810    3.3303    1.6150 H   0  0  0  0  0  0  0  0  0  0  0  0
    5.9523    1.7393    2.4145 H   0  0  0  0  0  0  0  0  0  0  0  0
    5.9728    0.7380    0.8659 H   0  0  0  0  0  0  0  0  0  0  0  0
   -4.1994    2.7375   -1.1081 H   0  0  0  0  0  0  0  0  0  0  0  0
   -5.2701    2.8945    0.3628 H   0  0  0  0  0  0  0  0  0  0  0  0
   -6.5223    3.2411   -1.6812 H   0  0  0  0  0  0  0  0  0  0  0  0
   -5.8092    1.8072   -2.4400 H   0  0  0  0  0  0  0  0  0  0  0  0
  1  2  1  0
  2  3  1  0
  3  4  1  0
  4  5  1  0
  5  6  1  0
  6  7  2  0
  7  8  1  0
  8  9  2  0
  9 10  1  0
 10 11  2  0
 10 12  1  0
 12 13  2  0
 13 14  1  0
 14 15  2  0
 15 16  1  0
 16 17  2  0
 17 18  1  0
 17 19  1  0
 19 20  2  0
 13 21  1  0
 21 22  1  0
 22 23  2  0
 23 24  1  0
 24 25  2  0
 25 26  1  0
 26 27  1  0
 27 28  1  0
 28 29  1  0
 29 30  1  0
 30 31  1  0
 31 32  1  0
 26 33  2  0
  5 34  1  0
 34 35  1  0
 35  2  1  0
 11  6  1  0
 20 14  1  0
 33 22  1  0
 21  9  1  0
 32 28  1  0
  1 36  1  0
  1 37  1  0
  1 38  1  0
  3 39  1  0
  3 40  1  0
  4 41  1  0
  4 42  1  0
  7 43  1  0
  8 44  1  0
 15 45  1  0
 16 46  1  0
 19 47  1  0
 20 48  1  0
 23 49  1  0
 24 50  1  0
 27 51  1  0
 28 52  1  0
 29 53  1  0
 29 54  1  0
 30 55  1  0
 30 56  1  0
 31 57  1  0
 31 58  1  0
 32 59  1  0
 32 60  1  0
 34 61  1  0
 34 62  1  0
 35 63  1  0
 35 64  1  0
M  END
$$$$
