@<TRIPOS>MOLECULE
*****
 64 69 0 0 0
SMALL
GASTEIGER

@<TRIPOS>ATOM
      1 C          -8.2965    2.2612   -0.2878 C.3     1  UNL1       -0.0126
      2 N          -7.3172    1.4827   -0.9687 N.3     1  UNL1       -0.3024
      3 C          -7.0402    0.2102   -0.3729 C.3     1  UNL1        0.0144
      4 C          -5.7838    0.1322    0.3992 C.3     1  UNL1        0.0263
      5 N          -4.6987    0.9706   -0.0742 N.pl3   1  UNL1       -0.3127
      6 C          -3.3693    0.4767   -0.0762 C.ar    1  UNL1        0.1238
      7 C          -2.3033    1.3128   -0.2557 C.ar    1  UNL1       -0.0196
      8 C          -1.0389    0.7398   -0.2535 C.ar    1  UNL1       -0.0309
      9 C          -0.8563   -0.6181   -0.0776 C.ar    1  UNL1        0.0942
     10 C          -1.9575   -1.4237    0.1002 C.ar    1  UNL1        0.1806
     11 N          -3.1665   -0.8640    0.0963 N.ar    1  UNL1       -0.2111
     12 N          -1.4770   -2.6799    0.2441 N.ar    1  UNL1       -0.2077
     13 C          -0.1384   -2.6760    0.1624 C.ar    1  UNL1        0.1492
     14 C           0.7289   -3.8749    0.2750 C.ar    1  UNL1        0.0181
     15 C           1.6831   -3.9587    1.2492 C.ar    1  UNL1       -0.0484
     16 C           2.4876   -5.0606    1.3608 C.ar    1  UNL1       -0.0258
     17 C           2.3673   -6.1288    0.4954 C.ar    1  UNL1        0.1234
     18 F           3.1644   -7.2320    0.5980 F       1  UNL1       -0.2055
     19 C           1.3963   -6.0258   -0.4839 C.ar    1  UNL1       -0.0258
     20 C           0.5802   -4.9209   -0.6058 C.ar    1  UNL1       -0.0484
     21 N           0.2369   -1.4149   -0.0341 N.ar    1  UNL1       -0.2747
     22 C           1.5639   -0.9585   -0.1777 C.ar    1  UNL1        0.1446
     23 C           2.5002   -1.7008   -0.8442 C.ar    1  UNL1       -0.0005
     24 C           3.7680   -1.1644   -0.9283 C.ar    1  UNL1        0.0347
     25 N           4.0919    0.0243   -0.3916 N.ar    1  UNL1       -0.2228
     26 C           3.1634    0.7454    0.2613 C.ar    1  UNL1        0.2172
     27 N           3.5248    1.9922    0.8179 N.pl3   1  UNL1       -0.3106
     28 C           4.8191    2.5791    0.7526 C.3     1  UNL1        0.0233
     29 C           5.3020    2.8310   -0.6552 C.3     1  UNL1       -0.0345
     30 C           6.7481    3.2436   -0.4037 C.3     1  UNL1       -0.0513
     31 C           7.1601    2.5358    0.8644 C.3     1  UNL1       -0.0513
     32 C           5.9317    1.7337    1.3159 C.3     1  UNL1       -0.0345
     33 N           1.9310    0.2275    0.3450 N.ar    1  UNL1       -0.1967
     34 C          -5.0179    2.2924   -0.5381 C.3     1  UNL1        0.0263
     35 C          -6.2022    2.1801   -1.4778 C.3     1  UNL1        0.0144
     36 H          -8.0420    2.4102    0.7698 H       1  UNL1        0.0391
     37 H          -8.4154    3.2189   -0.8309 H       1  UNL1        0.0391
     38 H          -9.2648    1.7037   -0.3348 H       1  UNL1        0.0391
     39 H          -7.1134   -0.5786   -1.1674 H       1  UNL1        0.0442
     40 H          -7.8920   -0.0155    0.3230 H       1  UNL1        0.0442
     41 H          -5.9469    0.3810    1.4814 H       1  UNL1        0.0477
     42 H          -5.4300   -0.9224    0.3967 H       1  UNL1        0.0477
     43 H          -2.4320    2.3758   -0.3868 H       1  UNL1        0.0652
     44 H          -0.2034    1.4037   -0.3957 H       1  UNL1        0.0640
     45 H           1.8047   -3.1457    1.9404 H       1  UNL1        0.0625
     46 H           3.2605   -5.1594    2.1286 H       1  UNL1        0.0646
     47 H           1.2398   -6.8272   -1.2048 H       1  UNL1        0.0646
     48 H          -0.1818   -4.8878   -1.4074 H       1  UNL1        0.0625
     49 H           2.2878   -2.6603   -1.2916 H       1  UNL1        0.0669
     50 H           4.5119   -1.7503   -1.4557 H       1  UNL1        0.0832
     51 H           2.7568    2.5133    1.3179 H       1  UNL1        0.1492
     52 H           4.8342    3.5348    1.3548 H       1  UNL1        0.0498
     53 H           4.7411    3.6091   -1.1838 H       1  UNL1        0.0283
     54 H           5.3392    1.8788   -1.1849 H       1  UNL1        0.0283
     55 H           6.7847    4.3370   -0.3283 H       1  UNL1        0.0266
     56 H           7.3331    2.9297   -1.2807 H       1  UNL1        0.0266
     57 H           8.0378    1.8944    0.7239 H       1  UNL1        0.0266
     58 H           7.3810    3.3303    1.6150 H       1  UNL1        0.0266
     59 H           5.9523    1.7393    2.4145 H       1  UNL1        0.0283
     60 H           5.9728    0.7380    0.8659 H       1  UNL1        0.0283
     61 H          -4.1994    2.7375   -1.1081 H       1  UNL1        0.0477
     62 H          -5.2701    2.8945    0.3628 H       1  UNL1        0.0477
     63 H          -6.5223    3.2411   -1.6812 H       1  UNL1        0.0442
     64 H          -5.8092    1.8072   -2.4400 H       1  UNL1        0.0442
@<TRIPOS>BOND
     1     1     2    1
     2     2     3    1
     3     3     4    1
     4     4     5    1
     5     5     6    1
     6     6     7   ar
     7     7     8   ar
     8     8     9   ar
     9     9    10   ar
    10    10    11   ar
    11    10    12   ar
    12    12    13   ar
    13    13    14    1
    14    14    15   ar
    15    15    16   ar
    16    16    17   ar
    17    17    18    1
    18    17    19   ar
    19    19    20   ar
    20    13    21   ar
    21    21    22    1
    22    22    23   ar
    23    23    24   ar
    24    24    25   ar
    25    25    26   ar
    26    26    27    1
    27    27    28    1
    28    28    29    1
    29    29    30    1
    30    30    31    1
    31    31    32    1
    32    26    33   ar
    33     5    34    1
    34    34    35    1
    35    35     2    1
    36    11     6   ar
    37    20    14   ar
    38    33    22   ar
    39    21     9   ar
    40    32    28    1
    41     1    36    1
    42     1    37    1
    43     1    38    1
    44     3    39    1
    45     3    40    1
    46     4    41    1
    47     4    42    1
    48     7    43    1
    49     8    44    1
    50    15    45    1
    51    16    46    1
    52    19    47    1
    53    20    48    1
    54    23    49    1
    55    24    50    1
    56    27    51    1
    57    28    52    1
    58    29    53    1
    59    29    54    1
    60    30    55    1
    61    30    56    1
    62    31    57    1
    63    31    58    1
    64    32    59    1
    65    32    60    1
    66    34    61    1
    67    34    62    1
    68    35    63    1
    69    35    64    1
