
     RDKit          3D

 46 47  0  0  0  0  0  0  0  0999 V2000
    6.8757    1.2584   -1.1945 C   0  0  0  0  0  0  0  0  0  0  0  0
    5.5117    0.7891   -0.8280 C   0  0  0  0  0  0  0  0  0  0  0  0
    4.4255    1.6169   -0.9723 C   0  0  0  0  0  0  0  0  0  0  0  0
    3.1296    1.2213   -0.6424 C   0  0  0  0  0  0  0  0  0  0  0  0
    2.8994   -0.0367   -0.1527 C   0  0  0  0  0  0  0  0  0  0  0  0
    1.6227   -0.5336    0.2114 N   0  0  0  0  0  0  0  0  0  0  0  0
    0.3996    0.1727    0.1319 C   0  0  0  0  0  0  0  0  0  0  0  0
    0.3695    1.3324   -0.2837 O   0  0  0  0  0  0  0  0  0  0  0  0
   -0.8615   -0.5415    0.5724 C   0  0  0  0  0  0  0  0  0  0  0  0
   -2.0568    0.3717    0.3999 C   0  0  1  0  0  0  0  0  0  0  0  0
   -2.2872    0.8031   -0.9188 N   0  0  0  0  0  0  0  0  0  0  0  0
   -3.5535    0.5170   -1.5023 C   0  0  1  0  0  0  0  0  0  0  0  0
   -3.4971   -0.8385   -2.2018 C   0  0  0  0  0  0  0  0  0  0  0  0
   -4.7341    0.6410   -0.6251 C   0  0  1  0  0  0  0  0  0  0  0  0
   -5.4924   -0.5435   -0.7262 O   0  0  0  0  0  0  0  0  0  0  0  0
   -4.3790    0.8130    0.8148 C   0  0  1  0  0  0  0  0  0  0  0  0
   -5.4233    0.6741    1.6866 O   0  0  0  0  0  0  0  0  0  0  0  0
   -3.2734   -0.2219    1.0785 C   0  0  2  0  0  0  0  0  0  0  0  0
   -3.0629   -0.3826    2.4363 O   0  0  0  0  0  0  0  0  0  0  0  0
    4.0170   -0.8685   -0.0115 C   0  0  0  0  0  0  0  0  0  0  0  0
    3.7717   -2.2540    0.5268 C   0  0  0  0  0  0  0  0  0  0  0  0
    5.2773   -0.4700   -0.3373 C   0  0  0  0  0  0  0  0  0  0  0  0
    6.9416    2.3267   -0.9233 H   0  0  0  0  0  0  0  0  0  0  0  0
    7.6060    0.6869   -0.6117 H   0  0  0  0  0  0  0  0  0  0  0  0
    7.0149    1.1396   -2.2832 H   0  0  0  0  0  0  0  0  0  0  0  0
    4.5813    2.6173   -1.3578 H   0  0  0  0  0  0  0  0  0  0  0  0
    2.3452    1.9340   -0.7883 H   0  0  0  0  0  0  0  0  0  0  0  0
    1.6027   -1.5433    0.5798 H   0  0  0  0  0  0  0  0  0  0  0  0
   -0.6979   -0.8396    1.6066 H   0  0  0  0  0  0  0  0  0  0  0  0
   -0.9821   -1.3854   -0.1259 H   0  0  0  0  0  0  0  0  0  0  0  0
   -1.8062    1.2903    1.0141 H   0  0  0  0  0  0  0  0  0  0  0  0
   -1.4933    0.7784   -1.5630 H   0  0  0  0  0  0  0  0  0  0  0  0
   -3.6902    1.2605   -2.3454 H   0  0  0  0  0  0  0  0  0  0  0  0
   -4.5441   -1.2007   -2.2669 H   0  0  0  0  0  0  0  0  0  0  0  0
   -3.1577   -0.7257   -3.2687 H   0  0  0  0  0  0  0  0  0  0  0  0
   -2.8156   -1.5418   -1.6960 H   0  0  0  0  0  0  0  0  0  0  0  0
   -5.4419    1.4561   -0.9287 H   0  0  0  0  0  0  0  0  0  0  0  0
   -6.0652   -0.6838    0.0443 H   0  0  0  0  0  0  0  0  0  0  0  0
   -3.9408    1.8425    0.9253 H   0  0  0  0  0  0  0  0  0  0  0  0
   -5.1971    0.2455    2.5369 H   0  0  0  0  0  0  0  0  0  0  0  0
   -3.5067   -1.1816    0.5734 H   0  0  0  0  0  0  0  0  0  0  0  0
   -3.6568   -1.1025    2.7792 H   0  0  0  0  0  0  0  0  0  0  0  0
    3.0616   -2.7664   -0.1642 H   0  0  0  0  0  0  0  0  0  0  0  0
    3.2988   -2.2027    1.5092 H   0  0  0  0  0  0  0  0  0  0  0  0
    4.7430   -2.7860    0.5861 H   0  0  0  0  0  0  0  0  0  0  0  0
    6.1219   -1.1380   -0.2163 H   0  0  0  0  0  0  0  0  0  0  0  0
  1  2  1  0
  2  3  2  0
  3  4  1  0
  4  5  2  0
  5  6  1  0
  6  7  1  0
  7  8  2  0
  7  9  1  0
  9 10  1  0
 10 11  1  0
 11 12  1  0
 12 13  1  0
 12 14  1  0
 14 15  1  0
 14 16  1  0
 16 17  1  0
 16 18  1  0
 18 19  1  0
  5 20  1  0
 20 21  1  0
 20 22  2  0
 22  2  1  0
 18 10  1  0
  1 23  1  0
  1 24  1  0
  1 25  1  0
  3 26  1  0
  4 27  1  0
  6 28  1  0
  9 29  1  0
  9 30  1  0
 10 31  1  1
 11 32  1  0
 12 33  1  6
 13 34  1  0
 13 35  1  0
 13 36  1  0
 14 37  1  6
 15 38  1  0
 16 39  1  6
 17 40  1  0
 18 41  1  6
 19 42  1  0
 21 43  1  0
 21 44  1  0
 21 45  1  0
 22 46  1  0
M  END
$$$$
