@<TRIPOS>MOLECULE
*****
 46 47 0 0 0
SMALL
GASTEIGER

@<TRIPOS>ATOM
      1 C           6.8757    1.2584   -1.1945 C.3     1  UNL1       -0.0397
      2 C           5.5117    0.7891   -0.8280 C.ar    1  UNL1       -0.0501
      3 C           4.4255    1.6169   -0.9723 C.ar    1  UNL1       -0.0571
      4 C           3.1296    1.2213   -0.6424 C.ar    1  UNL1       -0.0400
      5 C           2.8994   -0.0367   -0.1527 C.ar    1  UNL1        0.0363
      6 N           1.6227   -0.5336    0.2114 N.am    1  UNL1       -0.2852
      7 C           0.3996    0.1727    0.1319 C.2     1  UNL1        0.2188
      8 O           0.3695    1.3324   -0.2837 O.2     1  UNL1       -0.2754
      9 C          -0.8615   -0.5415    0.5724 C.3     1  UNL1        0.0421
     10 C          -2.0568    0.3717    0.3999 C.3     1  UNL1        0.0447
     11 N          -2.2872    0.8031   -0.9188 N.3     1  UNL1       -0.3053
     12 C          -3.5535    0.5170   -1.5023 C.3     1  UNL1        0.0336
     13 C          -3.4971   -0.8385   -2.2018 C.3     1  UNL1       -0.0472
     14 C          -4.7341    0.6410   -0.6251 C.3     1  UNL1        0.0985
     15 O          -5.4924   -0.5435   -0.7262 O.3     1  UNL1       -0.3876
     16 C          -4.3790    0.8130    0.8148 C.3     1  UNL1        0.1097
     17 O          -5.4233    0.6741    1.6866 O.3     1  UNL1       -0.3866
     18 C          -3.2734   -0.2219    1.0785 C.3     1  UNL1        0.0992
     19 O          -3.0629   -0.3826    2.4363 O.3     1  UNL1       -0.3876
     20 C           4.0170   -0.8685   -0.0115 C.ar    1  UNL1       -0.0290
     21 C           3.7717   -2.2540    0.5268 C.3     1  UNL1       -0.0379
     22 C           5.2773   -0.4700   -0.3373 C.ar    1  UNL1       -0.0542
     23 H           6.9416    2.3267   -0.9233 H       1  UNL1        0.0278
     24 H           7.6060    0.6869   -0.6117 H       1  UNL1        0.0278
     25 H           7.0149    1.1396   -2.2832 H       1  UNL1        0.0278
     26 H           4.5813    2.6173   -1.3578 H       1  UNL1        0.0621
     27 H           2.3452    1.9340   -0.7883 H       1  UNL1        0.0636
     28 H           1.6027   -1.5433    0.5798 H       1  UNL1        0.1548
     29 H          -0.6979   -0.8396    1.6066 H       1  UNL1        0.0375
     30 H          -0.9821   -1.3854   -0.1259 H       1  UNL1        0.0375
     31 H          -1.8062    1.2903    1.0141 H       1  UNL1        0.0491
     32 H          -1.4933    0.7784   -1.5630 H       1  UNL1        0.1226
     33 H          -3.6902    1.2605   -2.3454 H       1  UNL1        0.0484
     34 H          -4.5441   -1.2007   -2.2669 H       1  UNL1        0.0245
     35 H          -3.1577   -0.7257   -3.2687 H       1  UNL1        0.0245
     36 H          -2.8156   -1.5418   -1.6960 H       1  UNL1        0.0245
     37 H          -5.4419    1.4561   -0.9287 H       1  UNL1        0.0635
     38 H          -6.0652   -0.6838    0.0443 H       1  UNL1        0.2100
     39 H          -3.9408    1.8425    0.9253 H       1  UNL1        0.0646
     40 H          -5.1971    0.2455    2.5369 H       1  UNL1        0.2100
     41 H          -3.5067   -1.1816    0.5734 H       1  UNL1        0.0636
     42 H          -3.6568   -1.1025    2.7792 H       1  UNL1        0.2100
     43 H           3.0616   -2.7664   -0.1642 H       1  UNL1        0.0278
     44 H           3.2988   -2.2027    1.5092 H       1  UNL1        0.0278
     45 H           4.7430   -2.7860    0.5861 H       1  UNL1        0.0278
     46 H           6.1219   -1.1380   -0.2163 H       1  UNL1        0.0623
@<TRIPOS>BOND
     1     1     2    1
     2     2     3   ar
     3     3     4   ar
     4     4     5   ar
     5     5     6    1
     6     6     7   am
     7     7     8    2
     8     7     9    1
     9     9    10    1
    10    10    11    1
    11    11    12    1
    12    12    13    1
    13    12    14    1
    14    14    15    1
    15    14    16    1
    16    16    17    1
    17    16    18    1
    18    18    19    1
    19     5    20   ar
    20    20    21    1
    21    20    22   ar
    22    22     2   ar
    23    18    10    1
    24     1    23    1
    25     1    24    1
    26     1    25    1
    27     3    26    1
    28     4    27    1
    29     6    28    1
    30     9    29    1
    31     9    30    1
    32    10    31    1
    33    11    32    1
    34    12    33    1
    35    13    34    1
    36    13    35    1
    37    13    36    1
    38    14    37    1
    39    15    38    1
    40    16    39    1
    41    17    40    1
    42    18    41    1
    43    19    42    1
    44    21    43    1
    45    21    44    1
    46    21    45    1
    47    22    46    1
