
     RDKit          3D

 45 47  0  0  0  0  0  0  0  0999 V2000
    3.5845   -1.6965    0.4177 C   0  0  0  0  0  0  0  0  0  0  0  0
    3.6266   -0.2539    0.3200 N   0  0  0  0  0  0  0  0  0  0  0  0
    4.9384    0.2226    0.6052 C   0  0  0  0  0  0  0  0  0  0  0  0
    3.0514    0.1497   -0.9175 C   0  0  0  0  0  0  0  0  0  0  0  0
    1.5630   -0.1199   -0.9158 C   0  0  0  0  0  0  0  0  0  0  0  0
    0.8522    0.6480    0.2124 C   0  0  0  0  0  0  0  0  0  0  0  0
   -0.5663    0.4064    0.2363 N   0  0  0  0  0  0  0  0  0  0  0  0
   -1.4196    1.5806    0.1831 C   0  0  0  0  0  0  0  0  0  0  0  0
   -0.8376    2.6267    0.9103 C   0  0  0  0  0  0  0  0  0  0  0  0
   -1.5521    3.7874    0.9388 C   0  0  0  0  0  0  0  0  0  0  0  0
   -2.7597    3.8730    0.2802 C   0  0  0  0  0  0  0  0  0  0  0  0
   -3.2990    2.7989   -0.4335 C   0  0  0  0  0  0  0  0  0  0  0  0
   -2.6324    1.5699   -0.5157 C   0  0  0  0  0  0  0  0  0  0  0  0
   -3.3638    0.5965   -1.3308 C   0  0  0  0  0  0  0  0  0  0  0  0
   -3.4700   -0.7843   -0.7994 C   0  0  0  0  0  0  0  0  0  0  0  0
   -2.2748   -1.3516   -0.1554 C   0  0  0  0  0  0  0  0  0  0  0  0
   -2.5612   -2.7143    0.0075 C   0  0  0  0  0  0  0  0  0  0  0  0
   -1.6211   -3.5477    0.6198 C   0  0  0  0  0  0  0  0  0  0  0  0
   -0.3942   -3.0574    1.0784 C   0  0  0  0  0  0  0  0  0  0  0  0
   -0.0873   -1.7412    0.9350 C   0  0  0  0  0  0  0  0  0  0  0  0
   -1.0465   -0.9628    0.3244 C   0  0  0  0  0  0  0  0  0  0  0  0
    4.6172   -2.1111    0.5105 H   0  0  0  0  0  0  0  0  0  0  0  0
    3.1256   -2.1910   -0.4609 H   0  0  0  0  0  0  0  0  0  0  0  0
    3.0916   -2.0131    1.3782 H   0  0  0  0  0  0  0  0  0  0  0  0
    5.0615    1.3052    0.5315 H   0  0  0  0  0  0  0  0  0  0  0  0
    5.1491   -0.0900    1.6708 H   0  0  0  0  0  0  0  0  0  0  0  0
    5.6942   -0.3523    0.0221 H   0  0  0  0  0  0  0  0  0  0  0  0
    3.2866    1.2137   -1.1070 H   0  0  0  0  0  0  0  0  0  0  0  0
    3.5026   -0.4658   -1.7184 H   0  0  0  0  0  0  0  0  0  0  0  0
    1.1661    0.2720   -1.8956 H   0  0  0  0  0  0  0  0  0  0  0  0
    1.4297   -1.1834   -0.9168 H   0  0  0  0  0  0  0  0  0  0  0  0
    1.3836    0.6412    1.1543 H   0  0  0  0  0  0  0  0  0  0  0  0
    0.9894    1.6914   -0.1880 H   0  0  0  0  0  0  0  0  0  0  0  0
    0.1347    2.3855    1.3768 H   0  0  0  0  0  0  0  0  0  0  0  0
   -1.1111    4.5826    1.4906 H   0  0  0  0  0  0  0  0  0  0  0  0
   -3.3054    4.8279    0.3282 H   0  0  0  0  0  0  0  0  0  0  0  0
   -4.2535    2.9605   -0.9186 H   0  0  0  0  0  0  0  0  0  0  0  0
   -4.4261    0.9730   -1.4495 H   0  0  0  0  0  0  0  0  0  0  0  0
   -2.9962    0.5664   -2.3863 H   0  0  0  0  0  0  0  0  0  0  0  0
   -3.7239   -1.4711   -1.6418 H   0  0  0  0  0  0  0  0  0  0  0  0
   -4.3551   -0.7906   -0.0908 H   0  0  0  0  0  0  0  0  0  0  0  0
   -3.4960   -3.1861   -0.3203 H   0  0  0  0  0  0  0  0  0  0  0  0
   -1.8450   -4.6146    0.7472 H   0  0  0  0  0  0  0  0  0  0  0  0
    0.3254   -3.7177    1.5521 H   0  0  0  0  0  0  0  0  0  0  0  0
    0.8247   -1.2627    1.2716 H   0  0  0  0  0  0  0  0  0  0  0  0
  1  2  1  0
  2  3  1  0
  2  4  1  0
  4  5  1  0
  5  6  1  0
  6  7  1  0
  7  8  1  0
  8  9  2  0
  9 10  1  0
 10 11  2  0
 11 12  1  0
 12 13  2  0
 13 14  1  0
 14 15  1  0
 15 16  1  0
 16 17  2  0
 17 18  1  0
 18 19  2  0
 19 20  1  0
 20 21  2  0
 21  7  1  0
 13  8  1  0
 21 16  1  0
  1 22  1  0
  1 23  1  0
  1 24  1  0
  3 25  1  0
  3 26  1  0
  3 27  1  0
  4 28  1  0
  4 29  1  0
  5 30  1  0
  5 31  1  0
  6 32  1  0
  6 33  1  0
  9 34  1  0
 10 35  1  0
 11 36  1  0
 12 37  1  0
 14 38  1  0
 14 39  1  0
 15 40  1  0
 15 41  1  0
 17 42  1  0
 18 43  1  0
 19 44  1  0
 20 45  1  0
M  END
$$$$
