@<TRIPOS>MOLECULE
*****
 45 47 0 0 0
SMALL
GASTEIGER

@<TRIPOS>ATOM
      1 C           3.5845   -1.6965    0.4177 C.3     1  UNL1       -0.0130
      2 N           3.6266   -0.2539    0.3200 N.3     1  UNL1       -0.3083
      3 C           4.9384    0.2226    0.6052 C.3     1  UNL1       -0.0130
      4 C           3.0514    0.1497   -0.9175 C.3     1  UNL1       -0.0003
      5 C           1.5630   -0.1199   -0.9158 C.3     1  UNL1       -0.0240
      6 C           0.8522    0.6480    0.2124 C.3     1  UNL1        0.0184
      7 N          -0.5663    0.4064    0.2363 N.pl3   1  UNL1       -0.2996
      8 C          -1.4196    1.5806    0.1831 C.ar    1  UNL1        0.0372
      9 C          -0.8376    2.6267    0.9103 C.ar    1  UNL1       -0.0401
     10 C          -1.5521    3.7874    0.9388 C.ar    1  UNL1       -0.0600
     11 C          -2.7597    3.8730    0.2802 C.ar    1  UNL1       -0.0614
     12 C          -3.2990    2.7989   -0.4335 C.ar    1  UNL1       -0.0568
     13 C          -2.6324    1.5699   -0.5157 C.ar    1  UNL1       -0.0257
     14 C          -3.3638    0.5965   -1.3308 C.3     1  UNL1       -0.0219
     15 C          -3.4700   -0.7843   -0.7994 C.3     1  UNL1       -0.0219
     16 C          -2.2748   -1.3516   -0.1554 C.ar    1  UNL1       -0.0257
     17 C          -2.5612   -2.7143    0.0075 C.ar    1  UNL1       -0.0568
     18 C          -1.6211   -3.5477    0.6198 C.ar    1  UNL1       -0.0614
     19 C          -0.3942   -3.0574    1.0784 C.ar    1  UNL1       -0.0600
     20 C          -0.0873   -1.7412    0.9350 C.ar    1  UNL1       -0.0401
     21 C          -1.0465   -0.9628    0.3244 C.ar    1  UNL1        0.0372
     22 H           4.6172   -2.1111    0.5105 H       1  UNL1        0.0391
     23 H           3.1256   -2.1910   -0.4609 H       1  UNL1        0.0391
     24 H           3.0916   -2.0131    1.3782 H       1  UNL1        0.0391
     25 H           5.0615    1.3052    0.5315 H       1  UNL1        0.0391
     26 H           5.1491   -0.0900    1.6708 H       1  UNL1        0.0391
     27 H           5.6942   -0.3523    0.0221 H       1  UNL1        0.0391
     28 H           3.2866    1.2137   -1.1070 H       1  UNL1        0.0427
     29 H           3.5026   -0.4658   -1.7184 H       1  UNL1        0.0427
     30 H           1.1661    0.2720   -1.8956 H       1  UNL1        0.0293
     31 H           1.4297   -1.1834   -0.9168 H       1  UNL1        0.0293
     32 H           1.3836    0.6412    1.1543 H       1  UNL1        0.0468
     33 H           0.9894    1.6914   -0.1880 H       1  UNL1        0.0468
     34 H           0.1347    2.3855    1.3768 H       1  UNL1        0.0636
     35 H          -1.1111    4.5826    1.4906 H       1  UNL1        0.0618
     36 H          -3.3054    4.8279    0.3282 H       1  UNL1        0.0618
     37 H          -4.2535    2.9605   -0.9186 H       1  UNL1        0.0621
     38 H          -4.4261    0.9730   -1.4495 H       1  UNL1        0.0317
     39 H          -2.9962    0.5664   -2.3863 H       1  UNL1        0.0317
     40 H          -3.7239   -1.4711   -1.6418 H       1  UNL1        0.0317
     41 H          -4.3551   -0.7906   -0.0908 H       1  UNL1        0.0317
     42 H          -3.4960   -3.1861   -0.3203 H       1  UNL1        0.0621
     43 H          -1.8450   -4.6146    0.7472 H       1  UNL1        0.0618
     44 H           0.3254   -3.7177    1.5521 H       1  UNL1        0.0618
     45 H           0.8247   -1.2627    1.2716 H       1  UNL1        0.0636
@<TRIPOS>BOND
     1     1     2    1
     2     2     3    1
     3     2     4    1
     4     4     5    1
     5     5     6    1
     6     6     7    1
     7     7     8    1
     8     8     9   ar
     9     9    10   ar
    10    10    11   ar
    11    11    12   ar
    12    12    13   ar
    13    13    14    1
    14    14    15    1
    15    15    16    1
    16    16    17   ar
    17    17    18   ar
    18    18    19   ar
    19    19    20   ar
    20    20    21   ar
    21    21     7    1
    22    13     8   ar
    23    21    16   ar
    24     1    22    1
    25     1    23    1
    26     1    24    1
    27     3    25    1
    28     3    26    1
    29     3    27    1
    30     4    28    1
    31     4    29    1
    32     5    30    1
    33     5    31    1
    34     6    32    1
    35     6    33    1
    36     9    34    1
    37    10    35    1
    38    11    36    1
    39    12    37    1
    40    14    38    1
    41    14    39    1
    42    15    40    1
    43    15    41    1
    44    17    42    1
    45    18    43    1
    46    19    44    1
    47    20    45    1
