@<TRIPOS>MOLECULE
*****
 59 63 0 0 0
SMALL
GASTEIGER

@<TRIPOS>ATOM
      1 C           8.5699   -0.6864   -0.0148 C.3     1  UNL1        0.0833
      2 O           7.2052   -0.4205   -0.2254 O.3     1  UNL1       -0.4536
      3 C           6.2652   -0.4336    0.7904 C.2     1  UNL1        0.4026
      4 O           6.6772   -0.6986    1.9466 O.2     1  UNL1       -0.2263
      5 N           4.9134   -0.1509    0.4677 N.am    1  UNL1       -0.2673
      6 C           3.9739   -0.1795    1.5758 C.3     1  UNL1        0.0197
      7 C           3.0619    0.9980    1.4110 C.3     1  UNL1       -0.0144
      8 C           2.3694    0.9529    0.0902 C.3     1  UNL1        0.0578
      9 N           1.3249   -0.0832    0.1111 N.ar    1  UNL1       -0.2431
     10 N           1.5696   -1.3909    0.1607 N.ar    1  UNL1       -0.1768
     11 C           0.4091   -2.0735    0.1675 C.ar    1  UNL1        0.0620
     12 C          -0.6171   -1.1535    0.1198 C.ar    1  UNL1        0.0785
     13 C          -2.0039   -1.2787    0.1037 C.ar    1  UNL1        0.1361
     14 N          -2.6355   -2.5438    0.1380 N.pl3   1  UNL1       -0.3101
     15 C          -2.4964   -3.5924   -0.8165 C.3     1  UNL1        0.0370
     16 C          -3.7731   -4.3393   -1.0962 C.3     1  UNL1        0.0634
     17 O          -4.6034   -4.4345    0.0091 O.3     1  UNL1       -0.3767
     18 C          -4.8538   -3.2393    0.6346 C.3     1  UNL1        0.0634
     19 C          -3.5299   -2.8022    1.2770 C.3     1  UNL1        0.0370
     20 N          -2.7088   -0.1215    0.0527 N.ar    1  UNL1       -0.2118
     21 C          -2.1321    1.0967    0.0184 C.ar    1  UNL1        0.1641
     22 C          -2.9755    2.2827   -0.0357 C.ar    1  UNL1        0.0194
     23 C          -2.3593    3.5118   -0.0701 C.ar    1  UNL1       -0.0493
     24 C          -3.0902    4.6754   -0.1220 C.ar    1  UNL1       -0.0404
     25 C          -4.4669    4.5499   -0.1378 C.ar    1  UNL1        0.0246
     26 N          -5.2618    5.7397   -0.1915 N.pl3   1  UNL1       -0.3580
     27 C          -5.1056    3.3230   -0.1038 C.ar    1  UNL1       -0.0404
     28 C          -4.3459    2.1612   -0.0515 C.ar    1  UNL1       -0.0493
     29 N          -0.7845    1.1944    0.0349 N.ar    1  UNL1       -0.2080
     30 C          -0.0118    0.0827    0.0853 C.ar    1  UNL1        0.1642
     31 C           3.2628    0.8262   -1.0852 C.3     1  UNL1       -0.0144
     32 C           4.5478    0.1374   -0.8778 C.3     1  UNL1        0.0197
     33 H           8.7856   -1.0823    0.9869 H       1  UNL1        0.0661
     34 H           9.1081    0.2932   -0.1697 H       1  UNL1        0.0661
     35 H           8.9008   -1.3646   -0.8241 H       1  UNL1        0.0661
     36 H           3.4539   -1.1506    1.5925 H       1  UNL1        0.0466
     37 H           4.4840   -0.0673    2.5508 H       1  UNL1        0.0466
     38 H           2.2833    1.0588    2.2008 H       1  UNL1        0.0301
     39 H           3.6959    1.9125    1.4481 H       1  UNL1        0.0301
     40 H           1.8167    1.9318   -0.0123 H       1  UNL1        0.0546
     41 H           0.2802   -3.1669    0.2043 H       1  UNL1        0.0856
     42 H          -2.1587   -3.1469   -1.7774 H       1  UNL1        0.0487
     43 H          -1.7250   -4.3161   -0.4199 H       1  UNL1        0.0487
     44 H          -4.3158   -3.9342   -1.9753 H       1  UNL1        0.0575
     45 H          -3.4821   -5.3839   -1.3655 H       1  UNL1        0.0575
     46 H          -5.1764   -2.4545   -0.1008 H       1  UNL1        0.0575
     47 H          -5.6150   -3.4139    1.4143 H       1  UNL1        0.0575
     48 H          -3.6541   -1.9288    1.9181 H       1  UNL1        0.0487
     49 H          -3.1548   -3.7054    1.8057 H       1  UNL1        0.0487
     50 H          -1.2706    3.6200   -0.0581 H       1  UNL1        0.0625
     51 H          -2.6238    5.6586   -0.1499 H       1  UNL1        0.0636
     52 H          -6.1318    5.6866   -0.7608 H       1  UNL1        0.1423
     53 H          -4.9788    6.5882    0.3066 H       1  UNL1        0.1423
     54 H          -6.2034    3.2640   -0.1178 H       1  UNL1        0.0636
     55 H          -4.8362    1.1870   -0.0243 H       1  UNL1        0.0625
     56 H           3.4796    1.8420   -1.5308 H       1  UNL1        0.0301
     57 H           2.6750    0.3080   -1.9001 H       1  UNL1        0.0301
     58 H           4.5553   -0.8455   -1.4362 H       1  UNL1        0.0466
     59 H           5.4134    0.7003   -1.3383 H       1  UNL1        0.0466
@<TRIPOS>BOND
     1     1     2    1
     2     2     3    1
     3     3     4    2
     4     3     5   am
     5     5     6    1
     6     6     7    1
     7     7     8    1
     8     8     9    1
     9     9    10   ar
    10    10    11   ar
    11    11    12   ar
    12    12    13   ar
    13    13    14    1
    14    14    15    1
    15    15    16    1
    16    16    17    1
    17    17    18    1
    18    18    19    1
    19    13    20   ar
    20    20    21   ar
    21    21    22    1
    22    22    23   ar
    23    23    24   ar
    24    24    25   ar
    25    25    26    1
    26    25    27   ar
    27    27    28   ar
    28    21    29   ar
    29    29    30   ar
    30     8    31    1
    31    31    32    1
    32    32     5    1
    33    30     9   ar
    34    30    12   ar
    35    19    14    1
    36    28    22   ar
    37     1    33    1
    38     1    34    1
    39     1    35    1
    40     6    36    1
    41     6    37    1
    42     7    38    1
    43     7    39    1
    44     8    40    1
    45    11    41    1
    46    15    42    1
    47    15    43    1
    48    16    44    1
    49    16    45    1
    50    18    46    1
    51    18    47    1
    52    19    48    1
    53    19    49    1
    54    23    50    1
    55    24    51    1
    56    26    52    1
    57    26    53    1
    58    27    54    1
    59    28    55    1
    60    31    56    1
    61    31    57    1
    62    32    58    1
    63    32    59    1
