
     RDKit          3D

 56 57  0  0  0  0  0  0  0  0999 V2000
   -5.6518   -2.1988    1.7549 C   0  0  0  0  0  0  0  0  0  0  0  0
   -5.4244   -0.7088    1.7734 C   0  0  0  0  0  0  0  0  0  0  0  0
   -5.5474   -0.0869    0.4283 C   0  0  0  0  0  0  0  0  0  0  0  0
   -4.6054   -0.5700   -0.6168 C   0  0  0  0  0  0  0  0  0  0  0  0
   -3.1407   -0.3406   -0.2371 C   0  0  0  0  0  0  0  0  0  0  0  0
   -2.2514   -0.8195   -1.3239 C   0  0  0  0  0  0  0  0  0  0  0  0
   -0.8058   -0.6371   -1.0747 C   0  0  0  0  0  0  0  0  0  0  0  0
   -0.0554   -1.5714   -0.4344 N   0  0  0  0  0  0  0  0  0  0  0  0
    1.2218   -1.1888   -0.3736 C   0  0  0  0  0  0  0  0  0  0  0  0
    2.3853   -1.7541    0.1481 C   0  0  0  0  0  0  0  0  0  0  0  0
    3.5967   -1.1140    0.0501 C   0  0  0  0  0  0  0  0  0  0  0  0
    4.8398   -1.6664    0.5807 C   0  0  0  0  0  0  0  0  0  0  0  0
    4.9430   -2.8244    1.2028 C   0  0  0  0  0  0  0  0  0  0  0  0
    6.1963   -3.3631    1.7276 C   0  0  0  0  0  0  0  0  0  0  0  0
    6.1566   -4.4841    2.3020 O   0  0  0  0  0  0  0  0  0  0  0  0
    7.4455   -2.7320    1.6438 N   0  0  0  0  0  0  0  0  0  0  0  0
    8.5904   -3.2544    2.1379 O   0  0  0  0  0  0  0  0  0  0  0  0
    3.6819    0.1207   -0.5789 C   0  0  0  0  0  0  0  0  0  0  0  0
    2.5271    0.6629   -1.0864 C   0  0  0  0  0  0  0  0  0  0  0  0
    1.2927    0.0349   -0.9973 C   0  0  0  0  0  0  0  0  0  0  0  0
    0.0452    0.3572   -1.4181 N   0  0  0  0  0  0  0  0  0  0  0  0
   -0.3318    1.5497   -2.1088 C   0  0  0  0  0  0  0  0  0  0  0  0
   -0.7801    2.6958   -1.2757 C   0  0  0  0  0  0  0  0  0  0  0  0
    0.1725    3.2308   -0.3447 N   0  0  0  0  0  0  0  0  0  0  0  0
    1.2453    3.9460   -0.9805 C   0  0  0  0  0  0  0  0  0  0  0  0
   -0.5016    4.1185    0.5717 C   0  0  0  0  0  0  0  0  0  0  0  0
   -5.4169   -2.6227    2.7638 H   0  0  0  0  0  0  0  0  0  0  0  0
   -5.0611   -2.7355    1.0109 H   0  0  0  0  0  0  0  0  0  0  0  0
   -6.7165   -2.4574    1.5853 H   0  0  0  0  0  0  0  0  0  0  0  0
   -6.2471   -0.2787    2.4013 H   0  0  0  0  0  0  0  0  0  0  0  0
   -4.4608   -0.4368    2.2250 H   0  0  0  0  0  0  0  0  0  0  0  0
   -6.5887   -0.0982    0.0295 H   0  0  0  0  0  0  0  0  0  0  0  0
   -5.3325    1.0157    0.5611 H   0  0  0  0  0  0  0  0  0  0  0  0
   -4.7447   -1.6303   -0.8977 H   0  0  0  0  0  0  0  0  0  0  0  0
   -4.8028    0.0254   -1.5349 H   0  0  0  0  0  0  0  0  0  0  0  0
   -3.0106    0.7386   -0.0796 H   0  0  0  0  0  0  0  0  0  0  0  0
   -2.9005   -0.8596    0.7179 H   0  0  0  0  0  0  0  0  0  0  0  0
   -2.5460   -0.3652   -2.2960 H   0  0  0  0  0  0  0  0  0  0  0  0
   -2.4689   -1.9210   -1.4679 H   0  0  0  0  0  0  0  0  0  0  0  0
    2.2900   -2.6981    0.6249 H   0  0  0  0  0  0  0  0  0  0  0  0
    5.7692   -1.1064    0.4730 H   0  0  0  0  0  0  0  0  0  0  0  0
    4.0173   -3.3838    1.3134 H   0  0  0  0  0  0  0  0  0  0  0  0
    7.5183   -1.8064    1.1771 H   0  0  0  0  0  0  0  0  0  0  0  0
    8.9899   -3.9420    1.5513 H   0  0  0  0  0  0  0  0  0  0  0  0
    4.6495    0.6444   -0.6636 H   0  0  0  0  0  0  0  0  0  0  0  0
    2.5964    1.6084   -1.5884 H   0  0  0  0  0  0  0  0  0  0  0  0
    0.5243    1.8888   -2.7573 H   0  0  0  0  0  0  0  0  0  0  0  0
   -1.1550    1.3648   -2.8597 H   0  0  0  0  0  0  0  0  0  0  0  0
   -0.9755    3.5604   -2.0072 H   0  0  0  0  0  0  0  0  0  0  0  0
   -1.7373    2.5184   -0.7346 H   0  0  0  0  0  0  0  0  0  0  0  0
    1.0934    5.0519   -0.8474 H   0  0  0  0  0  0  0  0  0  0  0  0
    2.2349    3.7340   -0.5329 H   0  0  0  0  0  0  0  0  0  0  0  0
    1.2549    3.6646   -2.0619 H   0  0  0  0  0  0  0  0  0  0  0  0
    0.2018    4.5365    1.3374 H   0  0  0  0  0  0  0  0  0  0  0  0
   -0.8748    5.0049    0.0193 H   0  0  0  0  0  0  0  0  0  0  0  0
   -1.3443    3.5831    1.0674 H   0  0  0  0  0  0  0  0  0  0  0  0
  1  2  1  0
  2  3  1  0
  3  4  1  0
  4  5  1  0
  5  6  1  0
  6  7  1  0
  7  8  2  0
  8  9  1  0
  9 10  2  0
 10 11  1  0
 11 12  1  0
 12 13  2  0
 13 14  1  0
 14 15  2  0
 14 16  1  0
 16 17  1  0
 11 18  2  0
 18 19  1  0
 19 20  2  0
 20 21  1  0
 21 22  1  0
 22 23  1  0
 23 24  1  0
 24 25  1  0
 24 26  1  0
 21  7  1  0
 20  9  1  0
  1 27  1  0
  1 28  1  0
  1 29  1  0
  2 30  1  0
  2 31  1  0
  3 32  1  0
  3 33  1  0
  4 34  1  0
  4 35  1  0
  5 36  1  0
  5 37  1  0
  6 38  1  0
  6 39  1  0
 10 40  1  0
 12 41  1  0
 13 42  1  0
 16 43  1  0
 17 44  1  0
 18 45  1  0
 19 46  1  0
 22 47  1  0
 22 48  1  0
 23 49  1  0
 23 50  1  0
 25 51  1  0
 25 52  1  0
 25 53  1  0
 26 54  1  0
 26 55  1  0
 26 56  1  0
M  END
$$$$
