@<TRIPOS>MOLECULE
*****
 56 57 0 0 0
SMALL
GASTEIGER

@<TRIPOS>ATOM
      1 C          -5.6518   -2.1988    1.7549 C.3     1  UNL1       -0.0653
      2 C          -5.4244   -0.7088    1.7734 C.3     1  UNL1       -0.0559
      3 C          -5.5474   -0.0869    0.4283 C.3     1  UNL1       -0.0533
      4 C          -4.6054   -0.5700   -0.6168 C.3     1  UNL1       -0.0527
      5 C          -3.1407   -0.3406   -0.2371 C.3     1  UNL1       -0.0462
      6 C          -2.2514   -0.8195   -1.3239 C.3     1  UNL1        0.0056
      7 C          -0.8058   -0.6371   -1.0747 C.ar    1  UNL1        0.1108
      8 N          -0.0554   -1.5714   -0.4344 N.ar    1  UNL1       -0.2323
      9 C           1.2218   -1.1888   -0.3736 C.ar    1  UNL1        0.0899
     10 C           2.3853   -1.7541    0.1481 C.ar    1  UNL1       -0.0271
     11 C           3.5967   -1.1140    0.0501 C.ar    1  UNL1       -0.0227
     12 C           4.8398   -1.6664    0.5807 C.2     1  UNL1       -0.0496
     13 C           4.9430   -2.8244    1.2028 C.2     1  UNL1        0.0027
     14 C           6.1963   -3.3631    1.7276 C.2     1  UNL1        0.2593
     15 O           6.1566   -4.4841    2.3020 O.2     1  UNL1       -0.2687
     16 N           7.4455   -2.7320    1.6438 N.am    1  UNL1       -0.1940
     17 O           8.5904   -3.2544    2.1379 O.3     1  UNL1       -0.2949
     18 C           3.6819    0.1207   -0.5789 C.ar    1  UNL1       -0.0525
     19 C           2.5271    0.6629   -1.0864 C.ar    1  UNL1       -0.0355
     20 C           1.2927    0.0349   -0.9973 C.ar    1  UNL1        0.0689
     21 N           0.0452    0.3572   -1.4181 N.ar    1  UNL1       -0.3263
     22 C          -0.3318    1.5497   -2.1088 C.3     1  UNL1        0.0377
     23 C          -0.7801    2.6958   -1.2757 C.3     1  UNL1        0.0164
     24 N           0.1725    3.2308   -0.3447 N.3     1  UNL1       -0.3067
     25 C           1.2453    3.9460   -0.9805 C.3     1  UNL1       -0.0130
     26 C          -0.5016    4.1185    0.5717 C.3     1  UNL1       -0.0130
     27 H          -5.4169   -2.6227    2.7638 H       1  UNL1        0.0230
     28 H          -5.0611   -2.7355    1.0109 H       1  UNL1        0.0230
     29 H          -6.7165   -2.4574    1.5853 H       1  UNL1        0.0230
     30 H          -6.2471   -0.2787    2.4013 H       1  UNL1        0.0263
     31 H          -4.4608   -0.4368    2.2250 H       1  UNL1        0.0263
     32 H          -6.5887   -0.0982    0.0295 H       1  UNL1        0.0265
     33 H          -5.3325    1.0157    0.5611 H       1  UNL1        0.0265
     34 H          -4.7447   -1.6303   -0.8977 H       1  UNL1        0.0265
     35 H          -4.8028    0.0254   -1.5349 H       1  UNL1        0.0265
     36 H          -3.0106    0.7386   -0.0796 H       1  UNL1        0.0269
     37 H          -2.9005   -0.8596    0.7179 H       1  UNL1        0.0269
     38 H          -2.5460   -0.3652   -2.2960 H       1  UNL1        0.0343
     39 H          -2.4689   -1.9210   -1.4679 H       1  UNL1        0.0343
     40 H           2.2900   -2.6981    0.6249 H       1  UNL1        0.0645
     41 H           5.7692   -1.1064    0.4730 H       1  UNL1        0.0625
     42 H           4.0173   -3.3838    1.3134 H       1  UNL1        0.0670
     43 H           7.5183   -1.8064    1.1771 H       1  UNL1        0.1825
     44 H           8.9899   -3.9420    1.5513 H       1  UNL1        0.2414
     45 H           4.6495    0.6444   -0.6636 H       1  UNL1        0.0624
     46 H           2.5964    1.6084   -1.5884 H       1  UNL1        0.0639
     47 H           0.5243    1.8888   -2.7573 H       1  UNL1        0.0505
     48 H          -1.1550    1.3648   -2.8597 H       1  UNL1        0.0505
     49 H          -0.9755    3.5604   -2.0072 H       1  UNL1        0.0444
     50 H          -1.7373    2.5184   -0.7346 H       1  UNL1        0.0444
     51 H           1.0934    5.0519   -0.8474 H       1  UNL1        0.0391
     52 H           2.2349    3.7340   -0.5329 H       1  UNL1        0.0391
     53 H           1.2549    3.6646   -2.0619 H       1  UNL1        0.0391
     54 H           0.2018    4.5365    1.3374 H       1  UNL1        0.0391
     55 H          -0.8748    5.0049    0.0193 H       1  UNL1        0.0391
     56 H          -1.3443    3.5831    1.0674 H       1  UNL1        0.0391
@<TRIPOS>BOND
     1     1     2    1
     2     2     3    1
     3     3     4    1
     4     4     5    1
     5     5     6    1
     6     6     7    1
     7     7     8   ar
     8     8     9   ar
     9     9    10   ar
    10    10    11   ar
    11    11    12    1
    12    12    13    2
    13    13    14    1
    14    14    15    2
    15    14    16   am
    16    16    17    1
    17    11    18   ar
    18    18    19   ar
    19    19    20   ar
    20    20    21   ar
    21    21    22    1
    22    22    23    1
    23    23    24    1
    24    24    25    1
    25    24    26    1
    26    21     7   ar
    27    20     9   ar
    28     1    27    1
    29     1    28    1
    30     1    29    1
    31     2    30    1
    32     2    31    1
    33     3    32    1
    34     3    33    1
    35     4    34    1
    36     4    35    1
    37     5    36    1
    38     5    37    1
    39     6    38    1
    40     6    39    1
    41    10    40    1
    42    12    41    1
    43    13    42    1
    44    16    43    1
    45    17    44    1
    46    18    45    1
    47    19    46    1
    48    22    47    1
    49    22    48    1
    50    23    49    1
    51    23    50    1
    52    25    51    1
    53    25    52    1
    54    25    53    1
    55    26    54    1
    56    26    55    1
    57    26    56    1
