
     RDKit          3D

 47 50  0  0  0  0  0  0  0  0999 V2000
    5.8046    0.5548    0.2532 N   0  0  0  0  0  0  0  0  0  0  0  0
    4.4093    0.3835    0.3438 C   0  0  0  0  0  0  0  0  0  0  0  0
    3.8414    0.5319    1.4393 O   0  0  0  0  0  0  0  0  0  0  0  0
    3.6563    0.0356   -0.8466 C   0  0  0  0  0  0  0  0  0  0  0  0
    4.1799   -0.1735   -2.1319 C   0  0  0  0  0  0  0  0  0  0  0  0
    3.1619   -0.4730   -2.9487 N   0  0  0  0  0  0  0  0  0  0  0  0
    2.0065   -0.4683   -2.2594 C   0  0  0  0  0  0  0  0  0  0  0  0
    0.6795   -0.7104   -2.6373 C   0  0  0  0  0  0  0  0  0  0  0  0
   -0.3461   -0.6392   -1.7205 C   0  0  0  0  0  0  0  0  0  0  0  0
   -0.0022   -0.3220   -0.4289 C   0  0  0  0  0  0  0  0  0  0  0  0
   -0.9821   -0.2154    0.6309 C   0  0  0  0  0  0  0  0  0  0  0  0
   -1.4293    1.0325    1.0930 C   0  0  0  0  0  0  0  0  0  0  0  0
   -1.0075    2.3413    0.6009 C   0  0  0  0  0  0  0  0  0  0  0  0
   -0.4229    3.2307    1.4647 C   0  0  0  0  0  0  0  0  0  0  0  0
    0.0037    4.4950    1.0544 C   0  0  0  0  0  0  0  0  0  0  0  0
   -0.1561    4.8840   -0.2515 C   0  0  0  0  0  0  0  0  0  0  0  0
    0.2657    6.1256   -0.6426 F   0  0  0  0  0  0  0  0  0  0  0  0
   -0.7441    3.9922   -1.1255 C   0  0  0  0  0  0  0  0  0  0  0  0
   -1.1602    2.7479   -0.7053 C   0  0  0  0  0  0  0  0  0  0  0  0
   -2.3067    0.7421    2.0661 N   0  0  0  0  0  0  0  0  0  0  0  0
   -2.3943   -0.5949    2.1952 C   0  0  0  0  0  0  0  0  0  0  0  0
   -1.5824   -1.2064    1.3159 N   0  0  0  0  0  0  0  0  0  0  0  0
   -1.3888   -2.6269    1.1385 C   0  0  0  0  0  0  0  0  0  0  0  0
   -2.3846   -3.1605    0.1338 C   0  0  1  0  0  0  0  0  0  0  0  0
   -2.2291   -4.5306   -0.0829 O   0  0  0  0  0  0  0  0  0  0  0  0
   -3.8267   -2.9830    0.5708 C   0  0  0  0  0  0  0  0  0  0  0  0
   -4.1241   -3.7148    1.7269 O   0  0  0  0  0  0  0  0  0  0  0  0
    1.3328   -0.0912   -0.1077 C   0  0  0  0  0  0  0  0  0  0  0  0
    2.3303   -0.1588   -0.9930 N   0  0  0  0  0  0  0  0  0  0  0  0
    6.1702    1.2858   -0.3980 H   0  0  0  0  0  0  0  0  0  0  0  0
    6.5028    0.0031    0.7904 H   0  0  0  0  0  0  0  0  0  0  0  0
    5.2356   -0.0839   -2.3212 H   0  0  0  0  0  0  0  0  0  0  0  0
    0.4518   -0.9580   -3.6670 H   0  0  0  0  0  0  0  0  0  0  0  0
   -1.3843   -0.8190   -1.9962 H   0  0  0  0  0  0  0  0  0  0  0  0
   -0.2895    2.9445    2.4925 H   0  0  0  0  0  0  0  0  0  0  0  0
    0.4635    5.1903    1.7426 H   0  0  0  0  0  0  0  0  0  0  0  0
   -0.8754    4.2874   -2.1578 H   0  0  0  0  0  0  0  0  0  0  0  0
   -1.6114    2.0972   -1.4308 H   0  0  0  0  0  0  0  0  0  0  0  0
   -3.0372   -1.1058    2.9183 H   0  0  0  0  0  0  0  0  0  0  0  0
   -0.3853   -2.8862    0.7560 H   0  0  0  0  0  0  0  0  0  0  0  0
   -1.6139   -3.1843    2.0963 H   0  0  0  0  0  0  0  0  0  0  0  0
   -2.3021   -2.6856   -0.8636 H   0  0  0  0  0  0  0  0  0  0  0  0
   -1.9851   -4.7507   -1.0148 H   0  0  0  0  0  0  0  0  0  0  0  0
   -4.4597   -3.2764   -0.2768 H   0  0  0  0  0  0  0  0  0  0  0  0
   -3.9868   -1.9026    0.7269 H   0  0  0  0  0  0  0  0  0  0  0  0
   -3.6914   -3.3484    2.5314 H   0  0  0  0  0  0  0  0  0  0  0  0
    1.6133    0.1641    0.9262 H   0  0  0  0  0  0  0  0  0  0  0  0
  1  2  1  0
  2  3  2  0
  2  4  1  0
  4  5  2  0
  5  6  1  0
  6  7  2  0
  7  8  1  0
  8  9  2  0
  9 10  1  0
 10 11  1  0
 11 12  2  0
 12 13  1  0
 13 14  2  0
 14 15  1  0
 15 16  2  0
 16 17  1  0
 16 18  1  0
 18 19  2  0
 12 20  1  0
 20 21  2  0
 21 22  1  0
 22 23  1  0
 23 24  1  0
 24 25  1  0
 24 26  1  0
 26 27  1  0
 10 28  2  0
 28 29  1  0
 29  4  1  0
 29  7  1  0
 22 11  1  0
 19 13  1  0
  1 30  1  0
  1 31  1  0
  5 32  1  0
  8 33  1  0
  9 34  1  0
 14 35  1  0
 15 36  1  0
 18 37  1  0
 19 38  1  0
 21 39  1  0
 23 40  1  0
 23 41  1  0
 24 42  1  6
 25 43  1  0
 26 44  1  0
 26 45  1  0
 27 46  1  0
 28 47  1  0
M  END
$$$$
