@<TRIPOS>MOLECULE
*****
 47 50 0 0 0
SMALL
GASTEIGER

@<TRIPOS>ATOM
      1 N           5.8046    0.5548    0.2532 N.am    1  UNL1       -0.3241
      2 C           4.4093    0.3835    0.3438 C.2     1  UNL1        0.2599
      3 O           3.8414    0.5319    1.4393 O.2     1  UNL1       -0.2687
      4 C           3.6563    0.0356   -0.8466 C.ar    1  UNL1        0.1280
      5 C           4.1799   -0.1735   -2.1319 C.ar    1  UNL1        0.0588
      6 N           3.1619   -0.4730   -2.9487 N.ar    1  UNL1       -0.2353
      7 C           2.0065   -0.4683   -2.2594 C.ar    1  UNL1        0.1381
      8 C           0.6795   -0.7104   -2.6373 C.ar    1  UNL1       -0.0182
      9 C          -0.3461   -0.6392   -1.7205 C.ar    1  UNL1       -0.0477
     10 C          -0.0022   -0.3220   -0.4289 C.ar    1  UNL1        0.0173
     11 C          -0.9821   -0.2154    0.6309 C.ar    1  UNL1        0.0779
     12 C          -1.4293    1.0325    1.0930 C.ar    1  UNL1        0.0967
     13 C          -1.0075    2.3413    0.6009 C.ar    1  UNL1        0.0026
     14 C          -0.4229    3.2307    1.4647 C.ar    1  UNL1       -0.0498
     15 C           0.0037    4.4950    1.0544 C.ar    1  UNL1       -0.0258
     16 C          -0.1561    4.8840   -0.2515 C.ar    1  UNL1        0.1234
     17 F           0.2657    6.1256   -0.6426 F       1  UNL1       -0.2055
     18 C          -0.7441    3.9922   -1.1255 C.ar    1  UNL1       -0.0258
     19 C          -1.1602    2.7479   -0.7053 C.ar    1  UNL1       -0.0498
     20 N          -2.3067    0.7421    2.0661 N.ar    1  UNL1       -0.2351
     21 C          -2.3943   -0.5949    2.1952 C.ar    1  UNL1        0.0972
     22 N          -1.5824   -1.2064    1.3159 N.ar    1  UNL1       -0.3270
     23 C          -1.3888   -2.6269    1.1385 C.3     1  UNL1        0.0529
     24 C          -2.3846   -3.1605    0.1338 C.3     1  UNL1        0.0961
     25 O          -2.2291   -4.5306   -0.0829 O.3     1  UNL1       -0.3878
     26 C          -3.8267   -2.9830    0.5708 C.3     1  UNL1        0.0718
     27 O          -4.1241   -3.7148    1.7269 O.3     1  UNL1       -0.3924
     28 C           1.3328   -0.0912   -0.1077 C.ar    1  UNL1        0.0211
     29 N           2.3303   -0.1588   -0.9930 N.ar    1  UNL1       -0.2949
     30 H           6.1702    1.2858   -0.3980 H       1  UNL1        0.1453
     31 H           6.5028    0.0031    0.7904 H       1  UNL1        0.1453
     32 H           5.2356   -0.0839   -2.3212 H       1  UNL1        0.0853
     33 H           0.4518   -0.9580   -3.6670 H       1  UNL1        0.0654
     34 H          -1.3843   -0.8190   -1.9962 H       1  UNL1        0.0626
     35 H          -0.2895    2.9445    2.4925 H       1  UNL1        0.0625
     36 H           0.4635    5.1903    1.7426 H       1  UNL1        0.0646
     37 H          -0.8754    4.2874   -2.1578 H       1  UNL1        0.0646
     38 H          -1.6114    2.0972   -1.4308 H       1  UNL1        0.0625
     39 H          -3.0372   -1.1058    2.9183 H       1  UNL1        0.1029
     40 H          -0.3853   -2.8862    0.7560 H       1  UNL1        0.0518
     41 H          -1.6139   -3.1843    2.0963 H       1  UNL1        0.0518
     42 H          -2.3021   -2.6856   -0.8636 H       1  UNL1        0.0634
     43 H          -1.9851   -4.7507   -1.0148 H       1  UNL1        0.2100
     44 H          -4.4597   -3.2764   -0.2768 H       1  UNL1        0.0583
     45 H          -3.9868   -1.9026    0.7269 H       1  UNL1        0.0583
     46 H          -3.6914   -3.3484    2.5314 H       1  UNL1        0.2095
     47 H           1.6133    0.1641    0.9262 H       1  UNL1        0.0820
@<TRIPOS>BOND
     1     1     2   am
     2     2     3    2
     3     2     4    1
     4     4     5   ar
     5     5     6   ar
     6     6     7   ar
     7     7     8   ar
     8     8     9   ar
     9     9    10   ar
    10    10    11    1
    11    11    12   ar
    12    12    13    1
    13    13    14   ar
    14    14    15   ar
    15    15    16   ar
    16    16    17    1
    17    16    18   ar
    18    18    19   ar
    19    12    20   ar
    20    20    21   ar
    21    21    22   ar
    22    22    23    1
    23    23    24    1
    24    24    25    1
    25    24    26    1
    26    26    27    1
    27    10    28   ar
    28    28    29   ar
    29    29     4   ar
    30    29     7   ar
    31    22    11   ar
    32    19    13   ar
    33     1    30    1
    34     1    31    1
    35     5    32    1
    36     8    33    1
    37     9    34    1
    38    14    35    1
    39    15    36    1
    40    18    37    1
    41    19    38    1
    42    21    39    1
    43    23    40    1
    44    23    41    1
    45    24    42    1
    46    25    43    1
    47    26    44    1
    48    26    45    1
    49    27    46    1
    50    28    47    1
