
     RDKit          3D

 28 29  0  0  0  0  0  0  0  0999 V2000
   -0.1233   -0.0250    0.9813 O   0  0  0  0  0  0  0  0  0  0  0  0
    0.0288    0.3302   -0.1887 C   0  0  0  0  0  0  0  0  0  0  0  0
    1.3491    0.5314   -0.6916 N   0  0  0  0  0  0  0  0  0  0  0  0
    2.5401    0.3694    0.0054 C   0  0  0  0  0  0  0  0  0  0  0  0
    3.7350    0.6199   -0.6794 C   0  0  0  0  0  0  0  0  0  0  0  0
    4.9712    0.4927   -0.0933 C   0  0  0  0  0  0  0  0  0  0  0  0
    5.0775    0.1034    1.2248 C   0  0  0  0  0  0  0  0  0  0  0  0
    3.9296   -0.1504    1.9261 C   0  0  0  0  0  0  0  0  0  0  0  0
    2.6824   -0.0131    1.3051 C   0  0  0  0  0  0  0  0  0  0  0  0
   -1.1249    0.5220   -0.9808 N   0  0  0  0  0  0  0  0  0  0  0  0
   -2.4628    0.3613   -0.6159 C   0  0  0  0  0  0  0  0  0  0  0  0
   -3.4641    0.6076   -1.5710 C   0  0  0  0  0  0  0  0  0  0  0  0
   -4.7993    0.4802   -1.3175 C   0  0  0  0  0  0  0  0  0  0  0  0
   -5.2142    0.0913   -0.0684 C   0  0  0  0  0  0  0  0  0  0  0  0
   -4.2846   -0.1630    0.9043 C   0  0  0  0  0  0  0  0  0  0  0  0
   -2.9228   -0.0246    0.6174 C   0  0  0  0  0  0  0  0  0  0  0  0
    1.3656    0.8366   -1.7116 H   0  0  0  0  0  0  0  0  0  0  0  0
    3.7024    0.9278   -1.7149 H   0  0  0  0  0  0  0  0  0  0  0  0
    5.8611    0.7006   -0.6745 H   0  0  0  0  0  0  0  0  0  0  0  0
    6.0596    0.0092    1.6673 H   0  0  0  0  0  0  0  0  0  0  0  0
    4.0261   -0.4538    2.9549 H   0  0  0  0  0  0  0  0  0  0  0  0
    1.8506   -0.2347    1.9397 H   0  0  0  0  0  0  0  0  0  0  0  0
   -0.9292    0.8290   -1.9834 H   0  0  0  0  0  0  0  0  0  0  0  0
   -3.1857    0.9222   -2.5885 H   0  0  0  0  0  0  0  0  0  0  0  0
   -5.5209    0.6902   -2.1146 H   0  0  0  0  0  0  0  0  0  0  0  0
   -6.2806   -0.0149    0.1492 H   0  0  0  0  0  0  0  0  0  0  0  0
   -4.6166   -0.4702    1.8904 H   0  0  0  0  0  0  0  0  0  0  0  0
   -2.2502   -0.2406    1.4282 H   0  0  0  0  0  0  0  0  0  0  0  0
  1  2  2  0
  2  3  1  0
  3  4  1  0
  4  5  2  0
  5  6  1  0
  6  7  2  0
  7  8  1  0
  8  9  2  0
  2 10  1  0
 10 11  1  0
 11 12  2  0
 12 13  1  0
 13 14  2  0
 14 15  1  0
 15 16  2  0
  9  4  1  0
 16 11  1  0
  3 17  1  0
  5 18  1  0
  6 19  1  0
  7 20  1  0
  8 21  1  0
  9 22  1  0
 10 23  1  0
 12 24  1  0
 13 25  1  0
 14 26  1  0
 15 27  1  0
 16 28  1  0
M  END
$$$$
