@<TRIPOS>MOLECULE
*****
 28 29 0 0 0
SMALL
GASTEIGER

@<TRIPOS>ATOM
      1 O          -0.1233   -0.0250    0.9813 O.2     1  UNL1       -0.2522
      2 C           0.0288    0.3302   -0.1887 C.2     1  UNL1        0.3081
      3 N           1.3491    0.5314   -0.6916 N.am    1  UNL1       -0.2692
      4 C           2.5401    0.3694    0.0054 C.ar    1  UNL1        0.0348
      5 C           3.7350    0.6199   -0.6794 C.ar    1  UNL1       -0.0404
      6 C           4.9712    0.4927   -0.0933 C.ar    1  UNL1       -0.0600
      7 C           5.0775    0.1034    1.2248 C.ar    1  UNL1       -0.0616
      8 C           3.9296   -0.1504    1.9261 C.ar    1  UNL1       -0.0600
      9 C           2.6824   -0.0131    1.3051 C.ar    1  UNL1       -0.0404
     10 N          -1.1249    0.5220   -0.9808 N.am    1  UNL1       -0.2692
     11 C          -2.4628    0.3613   -0.6159 C.ar    1  UNL1        0.0348
     12 C          -3.4641    0.6076   -1.5710 C.ar    1  UNL1       -0.0404
     13 C          -4.7993    0.4802   -1.3175 C.ar    1  UNL1       -0.0600
     14 C          -5.2142    0.0913   -0.0684 C.ar    1  UNL1       -0.0616
     15 C          -4.2846   -0.1630    0.9043 C.ar    1  UNL1       -0.0600
     16 C          -2.9228   -0.0246    0.6174 C.ar    1  UNL1       -0.0404
     17 H           1.3656    0.8366   -1.7116 H       1  UNL1        0.1564
     18 H           3.7024    0.9278   -1.7149 H       1  UNL1        0.0636
     19 H           5.8611    0.7006   -0.6745 H       1  UNL1        0.0618
     20 H           6.0596    0.0092    1.6673 H       1  UNL1        0.0618
     21 H           4.0261   -0.4538    2.9549 H       1  UNL1        0.0618
     22 H           1.8506   -0.2347    1.9397 H       1  UNL1        0.0636
     23 H          -0.9292    0.8290   -1.9834 H       1  UNL1        0.1564
     24 H          -3.1857    0.9222   -2.5885 H       1  UNL1        0.0636
     25 H          -5.5209    0.6902   -2.1146 H       1  UNL1        0.0618
     26 H          -6.2806   -0.0149    0.1492 H       1  UNL1        0.0618
     27 H          -4.6166   -0.4702    1.8904 H       1  UNL1        0.0618
     28 H          -2.2502   -0.2406    1.4282 H       1  UNL1        0.0636
@<TRIPOS>BOND
     1     1     2    2
     2     2     3   am
     3     3     4    1
     4     4     5   ar
     5     5     6   ar
     6     6     7   ar
     7     7     8   ar
     8     8     9   ar
     9     2    10   am
    10    10    11    1
    11    11    12   ar
    12    12    13   ar
    13    13    14   ar
    14    14    15   ar
    15    15    16   ar
    16     9     4   ar
    17    16    11   ar
    18     3    17    1
    19     5    18    1
    20     6    19    1
    21     7    20    1
    22     8    21    1
    23     9    22    1
    24    10    23    1
    25    12    24    1
    26    13    25    1
    27    14    26    1
    28    15    27    1
    29    16    28    1
