
     RDKit          3D

 70 73  0  0  0  0  0  0  0  0999 V2000
   -1.7145   -1.1031   -4.7209 C   0  0  0  0  0  0  0  0  0  0  0  0
   -0.8843   -0.4150   -3.8244 O   0  0  0  0  0  0  0  0  0  0  0  0
   -1.2164   -0.3020   -2.4806 C   0  0  0  0  0  0  0  0  0  0  0  0
   -0.3811    0.3805   -1.6203 C   0  0  0  0  0  0  0  0  0  0  0  0
    0.8078    0.9426   -2.1576 N   0  0  0  0  0  0  0  0  0  0  0  0
    1.9161    1.7074   -1.7607 C   0  0  0  0  0  0  0  0  0  0  0  0
    1.9467    3.0401   -1.9028 N   0  0  0  0  0  0  0  0  0  0  0  0
    2.9990    3.7545   -1.5215 C   0  0  0  0  0  0  0  0  0  0  0  0
    4.0495    3.0482   -0.9747 C   0  0  0  0  0  0  0  0  0  0  0  0
    4.0714    1.6817   -0.8050 C   0  0  0  0  0  0  0  0  0  0  0  0
    2.9624    1.0263   -1.2186 N   0  0  0  0  0  0  0  0  0  0  0  0
    5.2373    1.0438   -0.2055 C   0  0  0  0  0  0  0  0  0  0  0  0
    6.3980    1.6888    0.2051 C   0  0  0  0  0  0  0  0  0  0  0  0
    7.2221    0.7608    0.7065 N   0  0  0  0  0  0  0  0  0  0  0  0
    8.5565    1.0179    1.2545 C   0  0  0  0  0  0  0  0  0  0  0  0
    6.6320   -0.4490    0.6312 C   0  0  0  0  0  0  0  0  0  0  0  0
    5.3666   -0.3030    0.0550 C   0  0  0  0  0  0  0  0  0  0  0  0
    4.5989   -1.4229   -0.1087 C   0  0  0  0  0  0  0  0  0  0  0  0
    5.0200   -2.6856    0.2700 C   0  0  0  0  0  0  0  0  0  0  0  0
    6.2745   -2.8620    0.8460 C   0  0  0  0  0  0  0  0  0  0  0  0
    7.0323   -1.7358    1.0042 C   0  0  0  0  0  0  0  0  0  0  0  0
   -0.6080    0.5558   -0.2719 C   0  0  0  0  0  0  0  0  0  0  0  0
   -1.7522    0.0135    0.2733 C   0  0  0  0  0  0  0  0  0  0  0  0
   -2.1737    0.0797    1.6292 N   0  0  0  0  0  0  0  0  0  0  0  0
   -1.7824   -0.9086    2.5935 C   0  0  0  0  0  0  0  0  0  0  0  0
   -1.0341   -1.8335    2.1309 O   0  0  0  0  0  0  0  0  0  0  0  0
   -2.1673   -0.9206    3.9978 C   0  0  0  0  0  0  0  0  0  0  0  0
   -1.7520   -1.8788    4.8075 C   0  0  0  0  0  0  0  0  0  0  0  0
   -2.6243   -0.6789   -0.5381 C   0  0  0  0  0  0  0  0  0  0  0  0
   -2.3471   -0.8250   -1.8873 C   0  0  0  0  0  0  0  0  0  0  0  0
   -3.8665   -1.3191   -0.1879 N   0  0  0  0  0  0  0  0  0  0  0  0
   -4.1459   -2.4114    0.7358 C   0  0  0  0  0  0  0  0  0  0  0  0
   -5.0771   -0.8640   -0.8101 C   0  0  0  0  0  0  0  0  0  0  0  0
   -6.0624   -0.1837    0.0727 C   0  0  0  0  0  0  0  0  0  0  0  0
   -5.6360    0.9993    0.7337 N   0  0  0  0  0  0  0  0  0  0  0  0
   -6.6133    1.6091    1.5845 C   0  0  0  0  0  0  0  0  0  0  0  0
   -4.8832    1.9164   -0.0575 C   0  0  0  0  0  0  0  0  0  0  0  0
   -2.7658   -0.7991   -4.5461 H   0  0  0  0  0  0  0  0  0  0  0  0
   -1.6439   -2.1858   -4.4664 H   0  0  0  0  0  0  0  0  0  0  0  0
   -1.4043   -1.0078   -5.7679 H   0  0  0  0  0  0  0  0  0  0  0  0
    1.0684    0.8254   -3.1763 H   0  0  0  0  0  0  0  0  0  0  0  0
    3.0316    4.8424   -1.6346 H   0  0  0  0  0  0  0  0  0  0  0  0
    4.9157    3.6388   -0.6620 H   0  0  0  0  0  0  0  0  0  0  0  0
    6.6523    2.7469    0.1574 H   0  0  0  0  0  0  0  0  0  0  0  0
    9.2950    1.0066    0.4291 H   0  0  0  0  0  0  0  0  0  0  0  0
    8.7814    0.2113    1.9763 H   0  0  0  0  0  0  0  0  0  0  0  0
    8.5153    2.0140    1.7261 H   0  0  0  0  0  0  0  0  0  0  0  0
    3.6314   -1.2864   -0.5530 H   0  0  0  0  0  0  0  0  0  0  0  0
    4.4061   -3.5780    0.1399 H   0  0  0  0  0  0  0  0  0  0  0  0
    6.6385   -3.8338    1.1552 H   0  0  0  0  0  0  0  0  0  0  0  0
    8.0062   -1.8851    1.4541 H   0  0  0  0  0  0  0  0  0  0  0  0
    0.0285    1.0828    0.4142 H   0  0  0  0  0  0  0  0  0  0  0  0
   -2.7970    0.8562    2.0067 H   0  0  0  0  0  0  0  0  0  0  0  0
   -2.7993   -0.0972    4.2855 H   0  0  0  0  0  0  0  0  0  0  0  0
   -1.1275   -2.6459    4.4113 H   0  0  0  0  0  0  0  0  0  0  0  0
   -2.0640   -1.8496    5.8472 H   0  0  0  0  0  0  0  0  0  0  0  0
   -2.9929   -1.3644   -2.6042 H   0  0  0  0  0  0  0  0  0  0  0  0
   -4.7538   -2.0309    1.5555 H   0  0  0  0  0  0  0  0  0  0  0  0
   -3.2540   -2.9950    1.0120 H   0  0  0  0  0  0  0  0  0  0  0  0
   -4.8053   -3.1764    0.2314 H   0  0  0  0  0  0  0  0  0  0  0  0
   -4.9079   -0.1862   -1.6699 H   0  0  0  0  0  0  0  0  0  0  0  0
   -5.5912   -1.7493   -1.2447 H   0  0  0  0  0  0  0  0  0  0  0  0
   -6.9038    0.1124   -0.6154 H   0  0  0  0  0  0  0  0  0  0  0  0
   -6.5783   -0.8794    0.7876 H   0  0  0  0  0  0  0  0  0  0  0  0
   -6.4599    1.4310    2.6728 H   0  0  0  0  0  0  0  0  0  0  0  0
   -6.6171    2.7018    1.4081 H   0  0  0  0  0  0  0  0  0  0  0  0
   -7.6044    1.2086    1.2980 H   0  0  0  0  0  0  0  0  0  0  0  0
   -3.8218    2.0076    0.1638 H   0  0  0  0  0  0  0  0  0  0  0  0
   -5.1332    1.7610   -1.1215 H   0  0  0  0  0  0  0  0  0  0  0  0
   -5.3140    2.9390    0.1715 H   0  0  0  0  0  0  0  0  0  0  0  0
  1  2  1  0
  2  3  1  0
  3  4  2  0
  4  5  1  0
  5  6  1  0
  6  7  2  0
  7  8  1  0
  8  9  2  0
  9 10  1  0
 10 11  2  0
 10 12  1  0
 12 13  2  0
 13 14  1  0
 14 15  1  0
 14 16  1  0
 16 17  2  0
 17 18  1  0
 18 19  2  0
 19 20  1  0
 20 21  2  0
  4 22  1  0
 22 23  2  0
 23 24  1  0
 24 25  1  0
 25 26  2  0
 25 27  1  0
 27 28  2  0
 23 29  1  0
 29 30  2  0
 29 31  1  0
 31 32  1  0
 31 33  1  0
 33 34  1  0
 34 35  1  0
 35 36  1  0
 35 37  1  0
 30  3  1  0
 11  6  1  0
 17 12  1  0
 21 16  1  0
  1 38  1  0
  1 39  1  0
  1 40  1  0
  5 41  1  0
  8 42  1  0
  9 43  1  0
 13 44  1  0
 15 45  1  0
 15 46  1  0
 15 47  1  0
 18 48  1  0
 19 49  1  0
 20 50  1  0
 21 51  1  0
 22 52  1  0
 24 53  1  0
 27 54  1  0
 28 55  1  0
 28 56  1  0
 30 57  1  0
 32 58  1  0
 32 59  1  0
 32 60  1  0
 33 61  1  0
 33 62  1  0
 34 63  1  0
 34 64  1  0
 36 65  1  0
 36 66  1  0
 36 67  1  0
 37 68  1  0
 37 69  1  0
 37 70  1  0
M  END
$$$$
