@<TRIPOS>MOLECULE
*****
 42 45 0 0 0
SMALL
GASTEIGER

@<TRIPOS>ATOM
      1 O           0.6716   -0.4503    1.1775 O.2     1  UNL1       -0.2449
      2 C           0.8377   -0.9017    0.0254 C.2     1  UNL1        0.3412
      3 O          -0.2120   -1.4424   -0.6306 O.3     1  UNL1       -0.4605
      4 C          -1.5357   -1.6215   -0.3059 C.3     1  UNL1        0.0985
      5 C          -2.3979   -0.4294   -0.0988 C.3     1  UNL1        0.0084
      6 C          -3.8127   -0.9931    0.2181 C.3     1  UNL1       -0.0313
      7 C          -4.8677    0.0493   -0.0338 C.3     1  UNL1       -0.0005
      8 N          -4.2154    1.3484    0.1973 N.3     1  UNL1       -0.3023
      9 C          -3.4110    1.1937    1.3691 C.3     1  UNL1       -0.0005
     10 C          -2.0847    0.4477    1.0680 C.3     1  UNL1       -0.0313
     11 C          -3.4254    1.5962   -0.9973 C.3     1  UNL1       -0.0005
     12 C          -2.5681    0.4021   -1.3517 C.3     1  UNL1       -0.0313
     13 C           2.1955   -0.8172   -0.5640 C.ar    1  UNL1        0.0840
     14 C           2.6029   -1.2464   -1.8044 C.ar    1  UNL1        0.0167
     15 N           3.9088   -0.9899   -1.9614 N.ar    1  UNL1       -0.3597
     16 C           4.3702   -0.3944   -0.8359 C.ar    1  UNL1        0.0509
     17 C           5.6328    0.0677   -0.4871 C.ar    1  UNL1        0.0066
     18 C           5.8724    0.6511    0.7387 C.ar    1  UNL1        0.1539
     19 O           7.1217    1.1192    1.1093 O.3     1  UNL1       -0.5038
     20 C           4.7967    0.7512    1.5966 C.ar    1  UNL1        0.1653
     21 F           5.0070    1.3291    2.8263 F       1  UNL1       -0.2016
     22 C           3.5495    0.3012    1.2670 C.ar    1  UNL1       -0.0129
     23 C           3.3025   -0.2816    0.0469 C.ar    1  UNL1        0.0166
     24 H          -1.9682   -2.2768   -1.1328 H       1  UNL1        0.0703
     25 H          -1.6576   -2.3253    0.5920 H       1  UNL1        0.0703
     26 H          -3.9419   -1.8437   -0.4794 H       1  UNL1        0.0284
     27 H          -3.7571   -1.3004    1.2806 H       1  UNL1        0.0284
     28 H          -5.7233   -0.0874    0.6662 H       1  UNL1        0.0427
     29 H          -5.2164    0.0116   -1.0740 H       1  UNL1        0.0427
     30 H          -3.1931    2.1410    1.8838 H       1  UNL1        0.0427
     31 H          -3.9902    0.5577    2.0901 H       1  UNL1        0.0427
     32 H          -1.8625   -0.2145    1.9457 H       1  UNL1        0.0284
     33 H          -1.3652    1.2478    0.8992 H       1  UNL1        0.0284
     34 H          -4.1786    1.7772   -1.8177 H       1  UNL1        0.0427
     35 H          -2.8657    2.5245   -0.8773 H       1  UNL1        0.0427
     36 H          -1.6026    0.7340   -1.7695 H       1  UNL1        0.0284
     37 H          -3.0633   -0.1974   -2.1476 H       1  UNL1        0.0284
     38 H           1.9585   -1.7117   -2.5191 H       1  UNL1        0.0815
     39 H           4.5416   -1.1815   -2.7765 H       1  UNL1        0.1654
     40 H           6.4565   -0.0197   -1.1690 H       1  UNL1        0.0676
     41 H           7.3875    2.0880    1.0026 H       1  UNL1        0.2923
     42 H           2.7031    0.3876    1.9600 H       1  UNL1        0.0654
@<TRIPOS>BOND
     1     1     2    2
     2     2     3    1
     3     3     4    1
     4     4     5    1
     5     5     6    1
     6     6     7    1
     7     7     8    1
     8     8     9    1
     9     9    10    1
    10     8    11    1
    11    11    12    1
    12     2    13    1
    13    13    14   ar
    14    14    15   ar
    15    15    16   ar
    16    16    17   ar
    17    17    18   ar
    18    18    19    1
    19    18    20   ar
    20    20    21    1
    21    20    22   ar
    22    22    23   ar
    23    10     5    1
    24    23    13   ar
    25    12     5    1
    26    23    16   ar
    27     4    24    1
    28     4    25    1
    29     6    26    1
    30     6    27    1
    31     7    28    1
    32     7    29    1
    33     9    30    1
    34     9    31    1
    35    10    32    1
    36    10    33    1
    37    11    34    1
    38    11    35    1
    39    12    36    1
    40    12    37    1
    41    14    38    1
    42    15    39    1
    43    17    40    1
    44    19    41    1
    45    22    42    1
