@<TRIPOS>MOLECULE
*****
 49 52 0 0 0
SMALL
GASTEIGER

@<TRIPOS>ATOM
      1 C           9.1894   -1.3339    1.2624 C.3     1  UNL1       -0.0224
      2 C           7.8119   -1.0120    0.8146 C.ar    1  UNL1        0.0382
      3 C           7.4724    0.2907    0.5052 C.ar    1  UNL1       -0.0400
      4 C           6.1866    0.6439    0.0740 C.ar    1  UNL1       -0.0494
      5 C           5.2243   -0.3248   -0.0495 C.ar    1  UNL1        0.0202
      6 C           3.8445   -0.0613   -0.5078 C.ar    1  UNL1        0.0949
      7 C           3.4107    1.1811   -0.8663 C.ar    1  UNL1       -0.0306
      8 C           2.0986    1.3913   -1.3080 C.ar    1  UNL1       -0.0177
      9 C           1.2531    0.3052   -1.3700 C.ar    1  UNL1        0.1475
     10 N          -0.0958    0.3802   -1.8116 N.am    1  UNL1       -0.2677
     11 C          -1.2065    0.6610   -0.9766 C.2     1  UNL1        0.2356
     12 O          -0.9689    0.8601    0.2367 O.2     1  UNL1       -0.2737
     13 C          -2.5913    0.7295   -1.4503 C.3     1  UNL1        0.0890
     14 N          -3.5443    1.0472   -0.4071 N.pl3   1  UNL1       -0.3167
     15 C          -3.6219    2.3215    0.2256 C.3     1  UNL1        0.0132
     16 C          -4.3476    2.2258    1.5356 C.3     1  UNL1       -0.0330
     17 C          -5.7430    1.6810    1.2260 C.3     1  UNL1       -0.0194
     18 C          -5.4980    0.2725    0.7709 C.2     1  UNL1        0.0410
     19 C          -4.4324    0.0149   -0.0100 C.2     1  UNL1        0.1015
     20 C          -4.4820   -1.4350   -0.2622 C.2     1  UNL1        0.2673
     21 O          -3.6643   -2.1285   -0.9577 O.2     1  UNL1       -0.2682
     22 N          -5.6035   -2.0255    0.3880 N.am    1  UNL1       -0.2364
     23 C          -5.9806   -3.4313    0.3755 C.3     1  UNL1        0.0115
     24 C          -6.2486   -0.9323    1.0453 C.2     1  UNL1        0.2508
     25 O          -7.2959   -1.0877    1.7300 O.2     1  UNL1       -0.2698
     26 N           1.7560   -0.8754   -1.0005 N.ar    1  UNL1       -0.1334
     27 N           2.9746   -1.0815   -0.5894 N.ar    1  UNL1       -0.1474
     28 C           5.5892   -1.6143    0.2658 C.ar    1  UNL1        0.0371
     29 N           6.8480   -1.9460    0.6857 N.ar    1  UNL1       -0.2595
     30 H           9.7072   -1.9406    0.4900 H       1  UNL1        0.0292
     31 H           9.2071   -1.9052    2.2095 H       1  UNL1        0.0292
     32 H           9.7257   -0.3791    1.4739 H       1  UNL1        0.0292
     33 H           8.2128    1.0680    0.5974 H       1  UNL1        0.0636
     34 H           5.9353    1.6583   -0.1638 H       1  UNL1        0.0625
     35 H           4.0787    2.0245   -0.8145 H       1  UNL1        0.0641
     36 H           1.7168    2.3471   -1.6004 H       1  UNL1        0.0653
     37 H          -0.2567    0.2104   -2.8397 H       1  UNL1        0.1563
     38 H          -2.8600   -0.2148   -1.9353 H       1  UNL1        0.0559
     39 H          -2.6901    1.5850   -2.1862 H       1  UNL1        0.0559
     40 H          -4.2090    3.0680   -0.3869 H       1  UNL1        0.0464
     41 H          -2.6363    2.7836    0.4294 H       1  UNL1        0.0464
     42 H          -4.4990    3.2310    1.9694 H       1  UNL1        0.0283
     43 H          -3.8817    1.5457    2.2616 H       1  UNL1        0.0283
     44 H          -6.2999    1.7087    2.1801 H       1  UNL1        0.0316
     45 H          -6.2229    2.2986    0.4654 H       1  UNL1        0.0316
     46 H          -5.2047   -4.0602    0.8671 H       1  UNL1        0.0434
     47 H          -6.0676   -3.7781   -0.6601 H       1  UNL1        0.0434
     48 H          -6.9145   -3.5770    0.9423 H       1  UNL1        0.0434
     49 H           4.8236   -2.3904    0.1701 H       1  UNL1        0.0836
@<TRIPOS>BOND
     1     1     2    1
     2     2     3   ar
     3     3     4   ar
     4     4     5   ar
     5     5     6    1
     6     6     7   ar
     7     7     8   ar
     8     8     9   ar
     9     9    10    1
    10    10    11   am
    11    11    12    2
    12    11    13    1
    13    13    14    1
    14    14    15    1
    15    15    16    1
    16    16    17    1
    17    17    18    1
    18    18    19    2
    19    19    20    1
    20    20    21    2
    21    20    22   am
    22    22    23    1
    23    22    24   am
    24    24    25    2
    25     9    26   ar
    26    26    27   ar
    27     5    28   ar
    28    28    29   ar
    29    29     2   ar
    30    27     6   ar
    31    19    14    1
    32    24    18    1
    33     1    30    1
    34     1    31    1
    35     1    32    1
    36     3    33    1
    37     4    34    1
    38     7    35    1
    39     8    36    1
    40    10    37    1
    41    13    38    1
    42    13    39    1
    43    15    40    1
    44    15    41    1
    45    16    42    1
    46    16    43    1
    47    17    44    1
    48    17    45    1
    49    23    46    1
    50    23    47    1
    51    23    48    1
    52    28    49    1
