
     RDKit          3D

 49 52  0  0  0  0  0  0  0  0999 V2000
    9.1894   -1.3339    1.2624 C   0  0  0  0  0  0  0  0  0  0  0  0
    7.8119   -1.0120    0.8146 C   0  0  0  0  0  0  0  0  0  0  0  0
    7.4724    0.2907    0.5052 C   0  0  0  0  0  0  0  0  0  0  0  0
    6.1866    0.6439    0.0740 C   0  0  0  0  0  0  0  0  0  0  0  0
    5.2243   -0.3248   -0.0495 C   0  0  0  0  0  0  0  0  0  0  0  0
    3.8445   -0.0613   -0.5078 C   0  0  0  0  0  0  0  0  0  0  0  0
    3.4107    1.1811   -0.8663 C   0  0  0  0  0  0  0  0  0  0  0  0
    2.0986    1.3913   -1.3080 C   0  0  0  0  0  0  0  0  0  0  0  0
    1.2531    0.3052   -1.3700 C   0  0  0  0  0  0  0  0  0  0  0  0
   -0.0958    0.3802   -1.8116 N   0  0  0  0  0  0  0  0  0  0  0  0
   -1.2065    0.6610   -0.9766 C   0  0  0  0  0  0  0  0  0  0  0  0
   -0.9689    0.8601    0.2367 O   0  0  0  0  0  0  0  0  0  0  0  0
   -2.5913    0.7295   -1.4503 C   0  0  0  0  0  0  0  0  0  0  0  0
   -3.5443    1.0472   -0.4071 N   0  0  0  0  0  0  0  0  0  0  0  0
   -3.6219    2.3215    0.2256 C   0  0  0  0  0  0  0  0  0  0  0  0
   -4.3476    2.2258    1.5356 C   0  0  0  0  0  0  0  0  0  0  0  0
   -5.7430    1.6810    1.2260 C   0  0  0  0  0  0  0  0  0  0  0  0
   -5.4980    0.2725    0.7709 C   0  0  0  0  0  0  0  0  0  0  0  0
   -4.4324    0.0149   -0.0100 C   0  0  0  0  0  0  0  0  0  0  0  0
   -4.4820   -1.4350   -0.2622 C   0  0  0  0  0  0  0  0  0  0  0  0
   -3.6643   -2.1285   -0.9577 O   0  0  0  0  0  0  0  0  0  0  0  0
   -5.6035   -2.0255    0.3880 N   0  0  0  0  0  0  0  0  0  0  0  0
   -5.9806   -3.4313    0.3755 C   0  0  0  0  0  0  0  0  0  0  0  0
   -6.2486   -0.9323    1.0453 C   0  0  0  0  0  0  0  0  0  0  0  0
   -7.2959   -1.0877    1.7300 O   0  0  0  0  0  0  0  0  0  0  0  0
    1.7560   -0.8754   -1.0005 N   0  0  0  0  0  0  0  0  0  0  0  0
    2.9746   -1.0815   -0.5894 N   0  0  0  0  0  0  0  0  0  0  0  0
    5.5892   -1.6143    0.2658 C   0  0  0  0  0  0  0  0  0  0  0  0
    6.8480   -1.9460    0.6857 N   0  0  0  0  0  0  0  0  0  0  0  0
    9.7072   -1.9406    0.4900 H   0  0  0  0  0  0  0  0  0  0  0  0
    9.2071   -1.9052    2.2095 H   0  0  0  0  0  0  0  0  0  0  0  0
    9.7257   -0.3791    1.4739 H   0  0  0  0  0  0  0  0  0  0  0  0
    8.2128    1.0680    0.5974 H   0  0  0  0  0  0  0  0  0  0  0  0
    5.9353    1.6583   -0.1638 H   0  0  0  0  0  0  0  0  0  0  0  0
    4.0787    2.0245   -0.8145 H   0  0  0  0  0  0  0  0  0  0  0  0
    1.7168    2.3471   -1.6004 H   0  0  0  0  0  0  0  0  0  0  0  0
   -0.2567    0.2104   -2.8397 H   0  0  0  0  0  0  0  0  0  0  0  0
   -2.8600   -0.2148   -1.9353 H   0  0  0  0  0  0  0  0  0  0  0  0
   -2.6901    1.5850   -2.1862 H   0  0  0  0  0  0  0  0  0  0  0  0
   -4.2090    3.0680   -0.3869 H   0  0  0  0  0  0  0  0  0  0  0  0
   -2.6363    2.7836    0.4294 H   0  0  0  0  0  0  0  0  0  0  0  0
   -4.4990    3.2310    1.9694 H   0  0  0  0  0  0  0  0  0  0  0  0
   -3.8817    1.5457    2.2616 H   0  0  0  0  0  0  0  0  0  0  0  0
   -6.2999    1.7087    2.1801 H   0  0  0  0  0  0  0  0  0  0  0  0
   -6.2229    2.2986    0.4654 H   0  0  0  0  0  0  0  0  0  0  0  0
   -5.2047   -4.0602    0.8671 H   0  0  0  0  0  0  0  0  0  0  0  0
   -6.0676   -3.7781   -0.6601 H   0  0  0  0  0  0  0  0  0  0  0  0
   -6.9145   -3.5770    0.9423 H   0  0  0  0  0  0  0  0  0  0  0  0
    4.8236   -2.3904    0.1701 H   0  0  0  0  0  0  0  0  0  0  0  0
  1  2  1  0
  2  3  2  0
  3  4  1  0
  4  5  2  0
  5  6  1  0
  6  7  2  0
  7  8  1  0
  8  9  2  0
  9 10  1  0
 10 11  1  0
 11 12  2  0
 11 13  1  0
 13 14  1  0
 14 15  1  0
 15 16  1  0
 16 17  1  0
 17 18  1  0
 18 19  2  0
 19 20  1  0
 20 21  2  0
 20 22  1  0
 22 23  1  0
 22 24  1  0
 24 25  2  0
  9 26  1  0
 26 27  2  0
  5 28  1  0
 28 29  2  0
 29  2  1  0
 27  6  1  0
 19 14  1  0
 24 18  1  0
  1 30  1  0
  1 31  1  0
  1 32  1  0
  3 33  1  0
  4 34  1  0
  7 35  1  0
  8 36  1  0
 10 37  1  0
 13 38  1  0
 13 39  1  0
 15 40  1  0
 15 41  1  0
 16 42  1  0
 16 43  1  0
 17 44  1  0
 17 45  1  0
 23 46  1  0
 23 47  1  0
 23 48  1  0
 28 49  1  0
M  END
$$$$
