@<TRIPOS>MOLECULE
*****
 52 56 0 0 0
SMALL
GASTEIGER

@<TRIPOS>ATOM
      1 C          -3.8536    4.6985    1.0038 C.3     1  UNL1       -0.0397
      2 C          -3.1874    3.4328    0.6030 C.ar    1  UNL1       -0.0504
      3 C          -2.0568    3.4523   -0.2120 C.ar    1  UNL1       -0.0586
      4 C          -1.4798    2.2612   -0.5533 C.ar    1  UNL1       -0.0580
      5 C          -1.9829    1.0466   -0.1157 C.ar    1  UNL1       -0.0434
      6 C          -1.3079   -0.2066   -0.5236 C.3     1  UNL1       -0.0017
      7 C          -2.2698   -0.9718   -1.3933 C.3     1  UNL1       -0.0297
      8 C          -1.7794   -2.3903   -1.5570 C.3     1  UNL1        0.0110
      9 C          -0.3319   -2.4567   -1.9447 C.3     1  UNL1       -0.0359
     10 C           0.3618   -2.8165   -0.6730 C.3     1  UNL1       -0.0352
     11 C          -0.6342   -2.4587    0.3730 C.3     1  UNL1        0.0223
     12 C          -0.7798   -0.9931    0.6336 C.3     1  UNL1        0.0595
     13 C           0.4882   -0.3667    1.0723 C.ar    1  UNL1        0.2228
     14 N           0.7414    0.2239    2.2514 N.ar    1  UNL1       -0.1117
     15 N           1.9811    0.6596    2.2658 N.ar    1  UNL1       -0.1073
     16 C           2.5223    0.3481    1.0954 C.ar    1  UNL1        0.2483
     17 C           3.8777    0.6400    0.6784 C.ar    1  UNL1        0.0385
     18 C           4.7224    1.3013    1.5428 C.ar    1  UNL1       -0.0494
     19 C           6.0092    1.6028    1.2041 C.ar    1  UNL1       -0.0610
     20 C           6.4516    1.2217   -0.0490 C.ar    1  UNL1       -0.0617
     21 C           5.6130    0.5588   -0.9219 C.ar    1  UNL1       -0.0610
     22 C           4.3183    0.2514   -0.5906 C.ar    1  UNL1       -0.0494
     23 O           1.6033   -0.2706    0.3913 O.2     1  UNL1       -0.4199
     24 N          -1.8597   -2.9698   -0.2064 N.3     1  UNL1       -0.2987
     25 C          -1.8787   -4.4132   -0.2560 C.3     1  UNL1       -0.0122
     26 C          -3.1170    1.0059    0.7031 C.ar    1  UNL1       -0.0580
     27 C          -3.6739    2.2176    1.0287 C.ar    1  UNL1       -0.0586
     28 H          -4.9184    4.5273    1.2509 H       1  UNL1        0.0278
     29 H          -3.7630    5.4351    0.1602 H       1  UNL1        0.0278
     30 H          -3.3755    5.1535    1.8935 H       1  UNL1        0.0278
     31 H          -1.6686    4.4038   -0.5505 H       1  UNL1        0.0620
     32 H          -0.6061    2.2670   -1.1825 H       1  UNL1        0.0620
     33 H          -0.4460    0.0693   -1.1611 H       1  UNL1        0.0357
     34 H          -2.2838   -0.5213   -2.4228 H       1  UNL1        0.0286
     35 H          -3.2928   -1.0289   -0.9652 H       1  UNL1        0.0286
     36 H          -2.3569   -2.9652   -2.2848 H       1  UNL1        0.0463
     37 H          -0.1326   -3.2322   -2.7174 H       1  UNL1        0.0281
     38 H           0.0833   -1.5187   -2.3258 H       1  UNL1        0.0281
     39 H           0.4567   -3.9380   -0.6592 H       1  UNL1        0.0281
     40 H           1.3581   -2.3929   -0.5502 H       1  UNL1        0.0281
     41 H          -0.3861   -2.9481    1.3372 H       1  UNL1        0.0470
     42 H          -1.5102   -0.8835    1.4651 H       1  UNL1        0.0417
     43 H           4.3489    1.5928    2.5297 H       1  UNL1        0.0625
     44 H           6.6303    2.1244    1.9224 H       1  UNL1        0.0618
     45 H           7.4720    1.4611   -0.3166 H       1  UNL1        0.0618
     46 H           6.0072    0.2815   -1.8922 H       1  UNL1        0.0618
     47 H           3.6558   -0.2673   -1.2685 H       1  UNL1        0.0625
     48 H          -1.4569   -4.8164   -1.1979 H       1  UNL1        0.0391
     49 H          -1.3610   -4.8718    0.6188 H       1  UNL1        0.0391
     50 H          -2.9365   -4.7790   -0.2077 H       1  UNL1        0.0391
     51 H          -3.4635    0.0392    1.0126 H       1  UNL1        0.0620
     52 H          -4.5517    2.1997    1.6616 H       1  UNL1        0.0620
@<TRIPOS>BOND
     1     1     2    1
     2     2     3   ar
     3     3     4   ar
     4     4     5   ar
     5     5     6    1
     6     6     7    1
     7     7     8    1
     8     8     9    1
     9     9    10    1
    10    10    11    1
    11    11    12    1
    12    12    13    1
    13    13    14   ar
    14    14    15   ar
    15    15    16   ar
    16    16    17    1
    17    17    18   ar
    18    18    19   ar
    19    19    20   ar
    20    20    21   ar
    21    21    22   ar
    22    16    23   ar
    23    11    24    1
    24    24    25    1
    25     5    26   ar
    26    26    27   ar
    27    27     2   ar
    28    12     6    1
    29    23    13   ar
    30    24     8    1
    31    22    17   ar
    32     1    28    1
    33     1    29    1
    34     1    30    1
    35     3    31    1
    36     4    32    1
    37     6    33    1
    38     7    34    1
    39     7    35    1
    40     8    36    1
    41     9    37    1
    42     9    38    1
    43    10    39    1
    44    10    40    1
    45    11    41    1
    46    12    42    1
    47    18    43    1
    48    19    44    1
    49    20    45    1
    50    21    46    1
    51    22    47    1
    52    25    48    1
    53    25    49    1
    54    25    50    1
    55    26    51    1
    56    27    52    1
