
     RDKit          3D

 66 68  0  0  0  0  0  0  0  0999 V2000
    1.5176    0.2384   -1.1870 C   0  0  1  0  0  0  0  0  0  0  0  0
    0.1065    0.0215   -0.7611 C   0  0  2  0  0  0  0  0  0  0  0  0
   -0.6162   -0.6807   -1.7453 O   0  0  0  0  0  0  0  0  0  0  0  0
   -1.0604   -1.9100   -1.2331 C   0  0  0  0  0  0  0  0  0  0  0  0
   -0.6719    1.2469   -0.4075 C   0  0  1  0  0  0  0  0  0  0  0  0
   -0.3295    2.4712   -1.1885 C   0  0  0  0  0  0  0  0  0  0  0  0
    0.5079    2.2156   -2.3940 C   0  0  0  0  0  0  0  0  0  0  0  0
    1.7180    1.3670   -2.1272 C   0  0  2  0  0  0  0  0  0  0  0  0
    2.4920    1.0572   -3.3902 C   0  0  0  0  0  0  0  0  0  0  0  0
    2.9818    1.8618   -2.3907 O   0  0  0  0  0  0  0  0  0  0  0  0
   -2.0552    0.8887   -0.5631 O   0  0  0  0  0  0  0  0  0  0  0  0
   -2.9509    0.8969    0.4870 C   0  0  0  0  0  0  0  0  0  0  0  0
   -2.7378    1.1961    1.6784 O   0  0  0  0  0  0  0  0  0  0  0  0
   -4.2267    0.4959    0.0080 N   0  0  0  0  0  0  0  0  0  0  0  0
   -5.4833    0.3466    0.7143 C   0  0  2  0  0  0  0  0  0  0  0  0
   -5.9474   -1.1107    0.6748 C   0  0  0  0  0  0  0  0  0  0  0  0
   -4.8743   -1.9665    1.3377 C   0  0  0  0  0  0  0  0  0  0  0  0
   -7.1747   -1.2336    1.5479 C   0  0  0  0  0  0  0  0  0  0  0  0
   -6.5244    1.2371    0.1759 C   0  0  0  0  0  0  0  0  0  0  0  0
   -7.7736    1.1743    0.8273 N   0  0  0  0  0  0  0  0  0  0  0  0
   -6.8605    2.1056   -0.6635 O   0  0  0  0  0  0  0  0  0  0  0  0
    2.4937    0.3518   -0.0380 C   0  0  1  0  0  0  0  0  0  0  0  0
    2.3309    1.4425    0.9887 C   0  0  0  0  0  0  0  0  0  0  0  0
    2.7241   -0.9262    0.6562 O   0  0  0  0  0  0  0  0  0  0  0  0
    3.8083   -0.2575   -0.1469 C   0  0  2  0  0  0  0  0  0  0  0  0
    4.9571    0.2368    0.7005 C   0  0  0  0  0  0  0  0  0  0  0  0
    6.1980   -0.5197    0.4298 C   0  0  0  0  0  0  0  0  0  0  0  0
    6.9624   -1.2442    1.2034 C   0  0  0  0  0  0  0  0  0  0  0  0
    6.6487   -1.4303    2.6447 C   0  0  0  0  0  0  0  0  0  0  0  0
    8.1618   -1.8879    0.6234 C   0  0  0  0  0  0  0  0  0  0  0  0
    1.8205   -0.7154   -1.7162 H   0  0  0  0  0  0  0  0  0  0  0  0
    0.1124   -0.6252    0.1585 H   0  0  0  0  0  0  0  0  0  0  0  0
   -0.1594   -2.5078   -0.9228 H   0  0  0  0  0  0  0  0  0  0  0  0
   -1.7154   -1.7705   -0.3547 H   0  0  0  0  0  0  0  0  0  0  0  0
   -1.5747   -2.4411   -2.0448 H   0  0  0  0  0  0  0  0  0  0  0  0
   -0.5933    1.4931    0.6901 H   0  0  0  0  0  0  0  0  0  0  0  0
   -1.2739    2.9498   -1.5801 H   0  0  0  0  0  0  0  0  0  0  0  0
    0.1503    3.2214   -0.5295 H   0  0  0  0  0  0  0  0  0  0  0  0
    0.8764    3.2001   -2.7774 H   0  0  0  0  0  0  0  0  0  0  0  0
   -0.0619    1.7685   -3.2371 H   0  0  0  0  0  0  0  0  0  0  0  0
    2.2686    1.6134   -4.3327 H   0  0  0  0  0  0  0  0  0  0  0  0
    2.8520    0.0250   -3.5570 H   0  0  0  0  0  0  0  0  0  0  0  0
   -4.5231    0.2247   -0.9539 H   0  0  0  0  0  0  0  0  0  0  0  0
   -5.3342    0.5955    1.7811 H   0  0  0  0  0  0  0  0  0  0  0  0
   -6.1474   -1.4541   -0.3579 H   0  0  0  0  0  0  0  0  0  0  0  0
   -5.0916   -3.0183    1.0601 H   0  0  0  0  0  0  0  0  0  0  0  0
   -3.8602   -1.6378    1.0284 H   0  0  0  0  0  0  0  0  0  0  0  0
   -5.0210   -1.8865    2.4347 H   0  0  0  0  0  0  0  0  0  0  0  0
   -7.2329   -2.2494    2.0248 H   0  0  0  0  0  0  0  0  0  0  0  0
   -8.1142   -1.1725    0.9480 H   0  0  0  0  0  0  0  0  0  0  0  0
   -7.2063   -0.5116    2.3823 H   0  0  0  0  0  0  0  0  0  0  0  0
   -8.6920    1.1184    1.2973 H   0  0  0  0  0  0  0  0  0  0  0  0
   -8.3057    1.6657    1.5753 H   0  0  0  0  0  0  0  0  0  0  0  0
    2.1407    2.4234    0.5397 H   0  0  0  0  0  0  0  0  0  0  0  0
    1.5449    1.1842    1.7326 H   0  0  0  0  0  0  0  0  0  0  0  0
    3.2607    1.5555    1.5841 H   0  0  0  0  0  0  0  0  0  0  0  0
    4.0917   -0.9900   -0.9260 H   0  0  0  0  0  0  0  0  0  0  0  0
    4.7146    0.0785    1.7888 H   0  0  0  0  0  0  0  0  0  0  0  0
    5.1730    1.3135    0.5301 H   0  0  0  0  0  0  0  0  0  0  0  0
    6.4144   -0.3754   -0.6279 H   0  0  0  0  0  0  0  0  0  0  0  0
    5.5554   -1.4848    2.7864 H   0  0  0  0  0  0  0  0  0  0  0  0
    7.0523   -2.4000    3.0237 H   0  0  0  0  0  0  0  0  0  0  0  0
    7.1088   -0.6141    3.2592 H   0  0  0  0  0  0  0  0  0  0  0  0
    9.1110   -1.5135    1.0761 H   0  0  0  0  0  0  0  0  0  0  0  0
    8.1453   -2.9728    0.8594 H   0  0  0  0  0  0  0  0  0  0  0  0
    8.1920   -1.7743   -0.4760 H   0  0  0  0  0  0  0  0  0  0  0  0
  1  2  1  0
  2  3  1  0
  3  4  1  0
  2  5  1  0
  5  6  1  0
  6  7  1  0
  7  8  1  0
  8  9  1  0
  9 10  1  0
  5 11  1  0
 11 12  1  0
 12 13  2  0
 12 14  1  0
 14 15  1  0
 15 16  1  0
 16 17  1  0
 16 18  1  0
 15 19  1  0
 19 20  1  0
 19 21  2  0
  1 22  1  0
 22 23  1  1
 22 24  1  0
 24 25  1  0
 25 26  1  0
 26 27  1  0
 27 28  2  3
 28 29  1  0
 28 30  1  0
  8  1  1  0
  8 10  1  1
 25 22  1  0
  1 31  1  6
  2 32  1  1
  4 33  1  0
  4 34  1  0
  4 35  1  0
  5 36  1  1
  6 37  1  0
  6 38  1  0
  7 39  1  0
  7 40  1  0
  9 41  1  0
  9 42  1  0
 14 43  1  0
 15 44  1  1
 16 45  1  0
 17 46  1  0
 17 47  1  0
 17 48  1  0
 18 49  1  0
 18 50  1  0
 18 51  1  0
 20 52  1  0
 20 53  1  0
 23 54  1  0
 23 55  1  0
 23 56  1  0
 25 57  1  6
 26 58  1  0
 26 59  1  0
 27 60  1  0
 29 61  1  0
 29 62  1  0
 29 63  1  0
 30 64  1  0
 30 65  1  0
 30 66  1  0
M  END
$$$$
