@<TRIPOS>MOLECULE
*****
 41 44 0 0 0
SMALL
GASTEIGER

@<TRIPOS>ATOM
      1 C           7.4867    0.5598   -0.0370 C.3     1  UNL1        0.0596
      2 S           6.6140   -0.6008   -1.0830 S.O2    1  UNL1       -0.0059
      3 O           6.9102   -0.2421   -2.5151 O.2     1  UNL1       -0.1696
      4 O           7.0786   -2.0064   -0.8772 O.2     1  UNL1       -0.1696
      5 C           4.8862   -0.5307   -0.8268 C.ar    1  UNL1        0.0879
      6 C           4.2432   -1.2640    0.1475 C.ar    1  UNL1       -0.0363
      7 C           2.8761   -1.1676    0.2866 C.ar    1  UNL1       -0.0521
      8 C           2.1151   -0.3446   -0.5351 C.ar    1  UNL1       -0.0128
      9 C           0.6653   -0.2522   -0.3845 C.ar    1  UNL1        0.0449
     10 C          -0.1615   -0.4010   -1.4929 C.ar    1  UNL1        0.0424
     11 N          -1.5012   -0.3453   -1.4130 N.ar    1  UNL1       -0.2233
     12 C          -2.0896   -0.1389   -0.2281 C.ar    1  UNL1        0.2028
     13 N          -3.5009   -0.0882   -0.0875 N.pl3   1  UNL1       -0.3074
     14 C          -4.3218    1.0473   -0.3455 C.3     1  UNL1        0.0699
     15 C          -5.7349    0.6974   -0.0159 C.ar    1  UNL1        0.1218
     16 C          -6.6281    0.1267   -0.9220 C.ar    1  UNL1       -0.0192
     17 C          -7.8057   -0.0324   -0.2264 C.ar    1  UNL1       -0.0236
     18 C          -7.6091    0.4333    1.0565 C.ar    1  UNL1        0.0921
     19 O          -6.3740    0.8456    1.1086 O.2     1  UNL1       -0.4662
     20 N          -1.3148    0.0105    0.8680 N.ar    1  UNL1       -0.2530
     21 C          -1.6594    0.2269    2.1624 C.ar    1  UNL1        0.1267
     22 N          -0.5187    0.3025    2.8780 N.ar    1  UNL1       -0.1371
     23 N           0.5064    0.1394    2.0596 N.ar    1  UNL1       -0.1289
     24 C           0.0249   -0.0411    0.8164 C.ar    1  UNL1        0.1726
     25 C           2.7895    0.3735   -1.4968 C.ar    1  UNL1       -0.0521
     26 C           4.1453    0.2806   -1.6371 C.ar    1  UNL1       -0.0363
     27 H           8.4135    0.8323   -0.5754 H       1  UNL1        0.0468
     28 H           7.7084    0.0224    0.9087 H       1  UNL1        0.0468
     29 H           6.8052    1.3894    0.1446 H       1  UNL1        0.0468
     30 H           4.8381   -1.9008    0.7807 H       1  UNL1        0.0637
     31 H           2.3591   -1.7401    1.0502 H       1  UNL1        0.0624
     32 H           0.3376   -0.5658   -2.4452 H       1  UNL1        0.0838
     33 H          -3.9614   -0.9845    0.2420 H       1  UNL1        0.1493
     34 H          -3.9910    1.9766    0.1414 H       1  UNL1        0.0543
     35 H          -4.2628    1.2698   -1.4544 H       1  UNL1        0.0543
     36 H          -6.3959   -0.1213   -1.9487 H       1  UNL1        0.0652
     37 H          -8.7243   -0.4469   -0.6069 H       1  UNL1        0.0649
     38 H          -8.3672    0.4389    1.8496 H       1  UNL1        0.1029
     39 H          -2.6534    0.3236    2.5788 H       1  UNL1        0.1052
     40 H           2.1856    1.0253   -2.1430 H       1  UNL1        0.0624
     41 H           4.5866    0.8929   -2.4316 H       1  UNL1        0.0637
@<TRIPOS>BOND
     1     1     2    1
     2     2     3    2
     3     2     4    2
     4     2     5    1
     5     5     6   ar
     6     6     7   ar
     7     7     8   ar
     8     8     9    1
     9     9    10   ar
    10    10    11   ar
    11    11    12   ar
    12    12    13    1
    13    13    14    1
    14    14    15    1
    15    15    16   ar
    16    16    17   ar
    17    17    18   ar
    18    18    19   ar
    19    12    20   ar
    20    20    21   ar
    21    21    22   ar
    22    22    23   ar
    23    23    24   ar
    24     8    25   ar
    25    25    26   ar
    26    26     5   ar
    27    24     9   ar
    28    19    15   ar
    29    24    20   ar
    30     1    27    1
    31     1    28    1
    32     1    29    1
    33     6    30    1
    34     7    31    1
    35    10    32    1
    36    13    33    1
    37    14    34    1
    38    14    35    1
    39    16    36    1
    40    17    37    1
    41    18    38    1
    42    21    39    1
    43    25    40    1
    44    26    41    1
