
     RDKit          3D

 41 44  0  0  0  0  0  0  0  0999 V2000
    7.4867    0.5598   -0.0370 C   0  0  0  0  0  0  0  0  0  0  0  0
    6.6140   -0.6008   -1.0830 S   0  0  0  0  0  6  0  0  0  0  0  0
    6.9102   -0.2421   -2.5151 O   0  0  0  0  0  0  0  0  0  0  0  0
    7.0786   -2.0064   -0.8772 O   0  0  0  0  0  0  0  0  0  0  0  0
    4.8862   -0.5307   -0.8268 C   0  0  0  0  0  0  0  0  0  0  0  0
    4.2432   -1.2640    0.1475 C   0  0  0  0  0  0  0  0  0  0  0  0
    2.8761   -1.1676    0.2866 C   0  0  0  0  0  0  0  0  0  0  0  0
    2.1151   -0.3446   -0.5351 C   0  0  0  0  0  0  0  0  0  0  0  0
    0.6653   -0.2522   -0.3845 C   0  0  0  0  0  0  0  0  0  0  0  0
   -0.1615   -0.4010   -1.4929 C   0  0  0  0  0  0  0  0  0  0  0  0
   -1.5012   -0.3453   -1.4130 N   0  0  0  0  0  0  0  0  0  0  0  0
   -2.0896   -0.1389   -0.2281 C   0  0  0  0  0  0  0  0  0  0  0  0
   -3.5009   -0.0882   -0.0875 N   0  0  0  0  0  0  0  0  0  0  0  0
   -4.3218    1.0473   -0.3455 C   0  0  0  0  0  0  0  0  0  0  0  0
   -5.7349    0.6974   -0.0159 C   0  0  0  0  0  0  0  0  0  0  0  0
   -6.6281    0.1267   -0.9220 C   0  0  0  0  0  0  0  0  0  0  0  0
   -7.8057   -0.0324   -0.2264 C   0  0  0  0  0  0  0  0  0  0  0  0
   -7.6091    0.4333    1.0565 C   0  0  0  0  0  0  0  0  0  0  0  0
   -6.3740    0.8456    1.1086 O   0  0  0  0  0  0  0  0  0  0  0  0
   -1.3148    0.0105    0.8680 N   0  0  0  0  0  0  0  0  0  0  0  0
   -1.6594    0.2269    2.1624 C   0  0  0  0  0  0  0  0  0  0  0  0
   -0.5187    0.3025    2.8780 N   0  0  0  0  0  0  0  0  0  0  0  0
    0.5064    0.1394    2.0596 N   0  0  0  0  0  0  0  0  0  0  0  0
    0.0249   -0.0411    0.8164 C   0  0  0  0  0  0  0  0  0  0  0  0
    2.7895    0.3735   -1.4968 C   0  0  0  0  0  0  0  0  0  0  0  0
    4.1453    0.2806   -1.6371 C   0  0  0  0  0  0  0  0  0  0  0  0
    8.4135    0.8323   -0.5754 H   0  0  0  0  0  0  0  0  0  0  0  0
    7.7084    0.0224    0.9087 H   0  0  0  0  0  0  0  0  0  0  0  0
    6.8052    1.3894    0.1446 H   0  0  0  0  0  0  0  0  0  0  0  0
    4.8381   -1.9008    0.7807 H   0  0  0  0  0  0  0  0  0  0  0  0
    2.3591   -1.7401    1.0502 H   0  0  0  0  0  0  0  0  0  0  0  0
    0.3376   -0.5658   -2.4452 H   0  0  0  0  0  0  0  0  0  0  0  0
   -3.9614   -0.9845    0.2420 H   0  0  0  0  0  0  0  0  0  0  0  0
   -3.9910    1.9766    0.1414 H   0  0  0  0  0  0  0  0  0  0  0  0
   -4.2628    1.2698   -1.4544 H   0  0  0  0  0  0  0  0  0  0  0  0
   -6.3959   -0.1213   -1.9487 H   0  0  0  0  0  0  0  0  0  0  0  0
   -8.7243   -0.4469   -0.6069 H   0  0  0  0  0  0  0  0  0  0  0  0
   -8.3672    0.4389    1.8496 H   0  0  0  0  0  0  0  0  0  0  0  0
   -2.6534    0.3236    2.5788 H   0  0  0  0  0  0  0  0  0  0  0  0
    2.1856    1.0253   -2.1430 H   0  0  0  0  0  0  0  0  0  0  0  0
    4.5866    0.8929   -2.4316 H   0  0  0  0  0  0  0  0  0  0  0  0
  1  2  1  0
  2  3  2  0
  2  4  2  0
  2  5  1  0
  5  6  2  0
  6  7  1  0
  7  8  2  0
  8  9  1  0
  9 10  2  0
 10 11  1  0
 11 12  2  0
 12 13  1  0
 13 14  1  0
 14 15  1  0
 15 16  2  0
 16 17  1  0
 17 18  2  0
 18 19  1  0
 12 20  1  0
 20 21  1  0
 21 22  2  0
 22 23  1  0
 23 24  2  0
  8 25  1  0
 25 26  2  0
 26  5  1  0
 24  9  1  0
 19 15  1  0
 24 20  1  0
  1 27  1  0
  1 28  1  0
  1 29  1  0
  6 30  1  0
  7 31  1  0
 10 32  1  0
 13 33  1  0
 14 34  1  0
 14 35  1  0
 16 36  1  0
 17 37  1  0
 18 38  1  0
 21 39  1  0
 25 40  1  0
 26 41  1  0
M  END
$$$$
