
     RDKit          3D

 57 61  0  0  0  0  0  0  0  0999 V2000
   -6.7907   -2.0672   -2.6732 C   0  0  0  0  0  0  0  0  0  0  0  0
   -6.2317   -1.4343   -1.4988 N   0  0  0  0  0  0  0  0  0  0  0  0
   -7.1450   -0.8975   -0.5099 C   0  0  0  0  0  0  0  0  0  0  0  0
   -4.8278   -1.3527   -1.3314 C   0  0  0  0  0  0  0  0  0  0  0  0
   -4.0849   -1.8563   -2.2366 O   0  0  0  0  0  0  0  0  0  0  0  0
   -4.1671   -0.7287   -0.1877 C   0  0  2  0  0  0  0  0  0  0  0  0
   -4.4115    0.7486    0.0326 C   0  0  0  0  0  0  0  0  0  0  0  0
   -3.0800    0.2320   -0.2588 C   0  0  1  0  0  0  0  0  0  0  0  0
   -1.9736    0.0727    0.7489 C   0  0  1  0  0  0  0  0  0  0  0  0
   -1.2335   -1.1963    0.3841 C   0  0  0  0  0  0  0  0  0  0  0  0
   -1.0156    1.2010    0.6614 C   0  0  0  0  0  0  0  0  0  0  0  0
    0.2828    0.9483    0.2784 C   0  0  0  0  0  0  0  0  0  0  0  0
    1.2423    1.9630    0.1732 C   0  0  0  0  0  0  0  0  0  0  0  0
    2.6209    1.6814   -0.2200 C   0  0  0  0  0  0  0  0  0  0  0  0
    3.2675    0.6332    0.2392 C   0  0  0  0  0  0  0  0  0  0  0  0
    2.6578   -0.2109    1.0947 F   0  0  0  0  0  0  0  0  0  0  0  0
    4.6624    0.3740   -0.1800 C   0  0  0  0  0  0  0  0  0  0  0  0
    5.2714    1.1926   -1.0385 N   0  0  0  0  0  0  0  0  0  0  0  0
    6.5400    0.9952   -1.4440 C   0  0  0  0  0  0  0  0  0  0  0  0
    7.2435   -0.0846   -0.9635 C   0  0  0  0  0  0  0  0  0  0  0  0
    6.6349   -0.9293   -0.0861 C   0  0  0  0  0  0  0  0  0  0  0  0
    5.3500   -0.6767    0.2861 N   0  0  0  0  0  0  0  0  0  0  0  0
    7.3333   -2.0137    0.4001 O   0  0  0  0  0  0  0  0  0  0  0  0
    8.5968   -2.3511   -0.1057 C   0  0  0  0  0  0  0  0  0  0  0  0
    9.3573   -1.0785   -0.4265 C   0  0  0  0  0  0  0  0  0  0  0  0
    8.5547   -0.3300   -1.3528 O   0  0  0  0  0  0  0  0  0  0  0  0
    0.8354    3.2397    0.4698 C   0  0  0  0  0  0  0  0  0  0  0  0
   -0.4637    3.4925    0.8529 C   0  0  0  0  0  0  0  0  0  0  0  0
   -1.3960    2.4979    0.9544 C   0  0  0  0  0  0  0  0  0  0  0  0
   -2.6364    2.7585    1.3262 F   0  0  0  0  0  0  0  0  0  0  0  0
   -2.4243    0.0404    2.1268 N   0  0  0  0  0  0  0  0  0  0  0  0
   -3.3781   -0.6602    2.5590 C   0  0  0  0  0  0  0  0  0  0  0  0
   -3.7764   -0.6598    3.8974 N   0  0  0  0  0  0  0  0  0  0  0  0
   -4.2398   -1.6726    1.3649 S   0  0  0  0  0  0  0  0  0  0  0  0
   -6.9243   -1.2507   -3.4383 H   0  0  0  0  0  0  0  0  0  0  0  0
   -6.1293   -2.8510   -3.0982 H   0  0  0  0  0  0  0  0  0  0  0  0
   -7.7829   -2.5325   -2.4697 H   0  0  0  0  0  0  0  0  0  0  0  0
   -6.7670   -0.0058    0.0073 H   0  0  0  0  0  0  0  0  0  0  0  0
   -8.1394   -0.6599   -0.9243 H   0  0  0  0  0  0  0  0  0  0  0  0
   -7.3394   -1.6539    0.2996 H   0  0  0  0  0  0  0  0  0  0  0  0
   -4.7043    1.1102    1.0196 H   0  0  0  0  0  0  0  0  0  0  0  0
   -4.9245    1.2739   -0.8266 H   0  0  0  0  0  0  0  0  0  0  0  0
   -2.6504    0.4058   -1.2904 H   0  0  0  0  0  0  0  0  0  0  0  0
   -0.8649   -1.1010   -0.6549 H   0  0  0  0  0  0  0  0  0  0  0  0
   -0.3705   -1.3694    1.0584 H   0  0  0  0  0  0  0  0  0  0  0  0
   -1.8943   -2.0937    0.4941 H   0  0  0  0  0  0  0  0  0  0  0  0
    0.6691   -0.0444    0.0238 H   0  0  0  0  0  0  0  0  0  0  0  0
    3.1440    2.3446   -0.9108 H   0  0  0  0  0  0  0  0  0  0  0  0
    7.0357    1.6584   -2.1425 H   0  0  0  0  0  0  0  0  0  0  0  0
    9.2293   -2.8970    0.6456 H   0  0  0  0  0  0  0  0  0  0  0  0
    8.5380   -2.9492   -1.0448 H   0  0  0  0  0  0  0  0  0  0  0  0
   10.3454   -1.2928   -0.8787 H   0  0  0  0  0  0  0  0  0  0  0  0
    9.4490   -0.4520    0.4908 H   0  0  0  0  0  0  0  0  0  0  0  0
    1.5267    4.0507    0.4058 H   0  0  0  0  0  0  0  0  0  0  0  0
   -0.7344    4.5249    1.0779 H   0  0  0  0  0  0  0  0  0  0  0  0
   -4.7870   -0.5887    4.1384 H   0  0  0  0  0  0  0  0  0  0  0  0
   -3.0994   -0.7284    4.6812 H   0  0  0  0  0  0  0  0  0  0  0  0
  1  2  1  0
  2  3  1  0
  2  4  1  0
  4  5  2  0
  6  4  1  6
  6  7  1  0
  7  8  1  0
  8  9  1  0
  9 10  1  6
  9 11  1  0
 11 12  2  0
 12 13  1  0
 13 14  1  0
 14 15  2  0
 15 16  1  0
 15 17  1  0
 17 18  2  0
 18 19  1  0
 19 20  2  0
 20 21  1  0
 21 22  2  0
 21 23  1  0
 23 24  1  0
 24 25  1  0
 25 26  1  0
 13 27  2  0
 27 28  1  0
 28 29  2  0
 29 30  1  0
  9 31  1  0
 31 32  2  0
 32 33  1  0
 32 34  1  0
  8  6  1  0
 29 11  1  0
 34  6  1  0
 22 17  1  0
 26 20  1  0
  1 35  1  0
  1 36  1  0
  1 37  1  0
  3 38  1  0
  3 39  1  0
  3 40  1  0
  7 41  1  0
  7 42  1  0
  8 43  1  6
 10 44  1  0
 10 45  1  0
 10 46  1  0
 12 47  1  0
 14 48  1  0
 19 49  1  0
 24 50  1  0
 24 51  1  0
 25 52  1  0
 25 53  1  0
 27 54  1  0
 28 55  1  0
 33 56  1  0
 33 57  1  0
M  END
$$$$
