@<TRIPOS>MOLECULE
*****
 57 61 0 0 0
SMALL
GASTEIGER

@<TRIPOS>ATOM
      1 C          -6.7907   -2.0672   -2.6732 C.3     1  UNL1        0.0029
      2 N          -6.2317   -1.4343   -1.4988 N.am    1  UNL1       -0.3064
      3 C          -7.1450   -0.8975   -0.5099 C.3     1  UNL1        0.0029
      4 C          -4.8278   -1.3527   -1.3314 C.2     1  UNL1        0.2319
      5 O          -4.0849   -1.8563   -2.2366 O.2     1  UNL1       -0.2741
      6 C          -4.1671   -0.7287   -0.1877 C.3     1  UNL1        0.1054
      7 C          -4.4115    0.7486    0.0326 C.3     1  UNL1       -0.0220
      8 C          -3.0800    0.2320   -0.2588 C.3     1  UNL1        0.0134
      9 C          -1.9736    0.0727    0.7489 C.3     1  UNL1        0.0935
     10 C          -1.2335   -1.1963    0.3841 C.3     1  UNL1       -0.0351
     11 C          -1.0156    1.2010    0.6614 C.ar    1  UNL1        0.0158
     12 C           0.2828    0.9483    0.2784 C.ar    1  UNL1       -0.0463
     13 C           1.2423    1.9630    0.1732 C.ar    1  UNL1       -0.0217
     14 C           2.6209    1.6814   -0.2200 C.2     1  UNL1       -0.0156
     15 C           3.2675    0.6332    0.2392 C.2     1  UNL1        0.1679
     16 F           2.6578   -0.2109    1.0947 F       1  UNL1       -0.2016
     17 C           4.6624    0.3740   -0.1800 C.ar    1  UNL1        0.1920
     18 N           5.2714    1.1926   -1.0385 N.ar    1  UNL1       -0.2299
     19 C           6.5400    0.9952   -1.4440 C.ar    1  UNL1        0.0770
     20 C           7.2435   -0.0846   -0.9635 C.ar    1  UNL1        0.2002
     21 C           6.6349   -0.9293   -0.0861 C.ar    1  UNL1        0.2616
     22 N           5.3500   -0.6767    0.2861 N.ar    1  UNL1       -0.1877
     23 O           7.3333   -2.0137    0.4001 O.3     1  UNL1       -0.4704
     24 C           8.5968   -2.3511   -0.1057 C.3     1  UNL1        0.1252
     25 C           9.3573   -1.0785   -0.4265 C.3     1  UNL1        0.1239
     26 O           8.5547   -0.3300   -1.3528 O.3     1  UNL1       -0.4821
     27 C           0.8354    3.2397    0.4698 C.ar    1  UNL1       -0.0518
     28 C          -0.4637    3.4925    0.8529 C.ar    1  UNL1       -0.0255
     29 C          -1.3960    2.4979    0.9544 C.ar    1  UNL1        0.1289
     30 F          -2.6364    2.7585    1.3262 F       1  UNL1       -0.2051
     31 N          -2.4243    0.0404    2.1268 N.2     1  UNL1       -0.2521
     32 C          -3.3781   -0.6602    2.5590 C.2     1  UNL1        0.1485
     33 N          -3.7764   -0.6598    3.8974 N.pl3   1  UNL1       -0.3380
     34 S          -4.2398   -1.6726    1.3649 S.3     1  UNL1       -0.0746
     35 H          -6.9243   -1.2507   -3.4383 H       1  UNL1        0.0428
     36 H          -6.1293   -2.8510   -3.0982 H       1  UNL1        0.0428
     37 H          -7.7829   -2.5325   -2.4697 H       1  UNL1        0.0428
     38 H          -6.7670   -0.0058    0.0073 H       1  UNL1        0.0428
     39 H          -8.1394   -0.6599   -0.9243 H       1  UNL1        0.0428
     40 H          -7.3394   -1.6539    0.2996 H       1  UNL1        0.0428
     41 H          -4.7043    1.1102    1.0196 H       1  UNL1        0.0287
     42 H          -4.9245    1.2739   -0.8266 H       1  UNL1        0.0287
     43 H          -2.6504    0.4058   -1.2904 H       1  UNL1        0.0346
     44 H          -0.8649   -1.1010   -0.6549 H       1  UNL1        0.0256
     45 H          -0.3705   -1.3694    1.0584 H       1  UNL1        0.0256
     46 H          -1.8943   -2.0937    0.4941 H       1  UNL1        0.0256
     47 H           0.6691   -0.0444    0.0238 H       1  UNL1        0.0628
     48 H           3.1440    2.3446   -0.9108 H       1  UNL1        0.0653
     49 H           7.0357    1.6584   -2.1425 H       1  UNL1        0.0869
     50 H           9.2293   -2.8970    0.6456 H       1  UNL1        0.0731
     51 H           8.5380   -2.9492   -1.0448 H       1  UNL1        0.0731
     52 H          10.3454   -1.2928   -0.8787 H       1  UNL1        0.0731
     53 H           9.4490   -0.4520    0.4908 H       1  UNL1        0.0731
     54 H           1.5267    4.0507    0.4058 H       1  UNL1        0.0624
     55 H          -0.7344    4.5249    1.0779 H       1  UNL1        0.0646
     56 H          -4.7870   -0.5887    4.1384 H       1  UNL1        0.1442
     57 H          -3.0994   -0.7284    4.6812 H       1  UNL1        0.1442
@<TRIPOS>BOND
     1     1     2    1
     2     2     3    1
     3     2     4   am
     4     4     5    2
     5     6     4    1
     6     6     7    1
     7     7     8    1
     8     8     9    1
     9     9    10    1
    10     9    11    1
    11    11    12   ar
    12    12    13   ar
    13    13    14    1
    14    14    15    2
    15    15    16    1
    16    15    17    1
    17    17    18   ar
    18    18    19   ar
    19    19    20   ar
    20    20    21   ar
    21    21    22   ar
    22    21    23    1
    23    23    24    1
    24    24    25    1
    25    25    26    1
    26    13    27   ar
    27    27    28   ar
    28    28    29   ar
    29    29    30    1
    30     9    31    1
    31    31    32    2
    32    32    33    1
    33    32    34    1
    34     8     6    1
    35    29    11   ar
    36    34     6    1
    37    22    17   ar
    38    26    20    1
    39     1    35    1
    40     1    36    1
    41     1    37    1
    42     3    38    1
    43     3    39    1
    44     3    40    1
    45     7    41    1
    46     7    42    1
    47     8    43    1
    48    10    44    1
    49    10    45    1
    50    10    46    1
    51    12    47    1
    52    14    48    1
    53    19    49    1
    54    24    50    1
    55    24    51    1
    56    25    52    1
    57    25    53    1
    58    27    54    1
    59    28    55    1
    60    33    56    1
    61    33    57    1
