@<TRIPOS>MOLECULE
*****
 39 40 0 0 0
SMALL
GASTEIGER

@<TRIPOS>ATOM
      1 C          -4.0344    0.1721    2.2661 C.3     1  UNL1       -0.0613
      2 C          -3.6822   -0.0845    0.8149 C.3     1  UNL1       -0.0303
      3 C          -2.3233    0.3813    0.4867 C.ar    1  UNL1       -0.0444
      4 C          -1.5168    0.9659    1.4361 C.ar    1  UNL1       -0.0581
      5 C          -0.2468    1.4109    1.1378 C.ar    1  UNL1       -0.0580
      6 C           0.2792    1.2890   -0.1403 C.ar    1  UNL1       -0.0426
      7 C           1.6493    1.7876   -0.4555 C.3     1  UNL1        0.0023
      8 C           2.7128    0.8698   -0.0709 C.ar    1  UNL1        0.0146
      9 C           3.4232    1.1432    1.0797 C.ar    1  UNL1        0.0379
     10 N           4.4103    0.3234    1.4757 N.ar    1  UNL1       -0.2227
     11 C           4.7188   -0.7759    0.7549 C.ar    1  UNL1        0.2142
     12 N           5.7548   -1.6616    1.1424 N.pl3   1  UNL1       -0.3274
     13 N           4.0221   -1.0198   -0.3490 N.ar    1  UNL1       -0.1999
     14 C           3.0129   -0.2435   -0.8164 C.ar    1  UNL1        0.1247
     15 N           2.3351   -0.5896   -2.0104 N.pl3   1  UNL1       -0.3428
     16 C          -0.5079    0.7134   -1.0859 C.ar    1  UNL1       -0.0548
     17 C          -1.7990    0.2619   -0.7779 C.ar    1  UNL1       -0.0442
     18 C          -2.5926   -0.3583   -1.8548 C.3     1  UNL1       -0.0303
     19 C          -2.6494   -1.8688   -1.7703 C.3     1  UNL1       -0.0613
     20 H          -5.0425   -0.2242    2.4945 H       1  UNL1        0.0233
     21 H          -4.0896    1.2717    2.3928 H       1  UNL1        0.0233
     22 H          -3.3119   -0.2602    2.9585 H       1  UNL1        0.0233
     23 H          -4.3803    0.4849    0.1375 H       1  UNL1        0.0311
     24 H          -3.8262   -1.1436    0.6272 H       1  UNL1        0.0311
     25 H          -1.8807    1.0895    2.4654 H       1  UNL1        0.0620
     26 H           0.4092    1.8780    1.8776 H       1  UNL1        0.0620
     27 H           1.6435    2.0138   -1.5566 H       1  UNL1        0.0363
     28 H           1.7618    2.7984    0.0265 H       1  UNL1        0.0363
     29 H           3.2344    2.0021    1.7085 H       1  UNL1        0.0834
     30 H           6.6267   -1.6922    0.5840 H       1  UNL1        0.1452
     31 H           5.6419   -2.2676    1.9695 H       1  UNL1        0.1452
     32 H           1.8630   -1.4956   -2.0951 H       1  UNL1        0.1437
     33 H           2.3126    0.0726   -2.8066 H       1  UNL1        0.1437
     34 H          -0.1305    0.6092   -2.1036 H       1  UNL1        0.0623
     35 H          -3.6664   -0.0123   -1.8097 H       1  UNL1        0.0311
     36 H          -2.1623   -0.1140   -2.8436 H       1  UNL1        0.0311
     37 H          -2.0124   -2.3482   -2.5456 H       1  UNL1        0.0233
     38 H          -2.2719   -2.2440   -0.7984 H       1  UNL1        0.0233
     39 H          -3.6846   -2.2627   -1.9458 H       1  UNL1        0.0233
@<TRIPOS>BOND
     1     1     2    1
     2     2     3    1
     3     3     4   ar
     4     4     5   ar
     5     5     6   ar
     6     6     7    1
     7     7     8    1
     8     8     9   ar
     9     9    10   ar
    10    10    11   ar
    11    11    12    1
    12    11    13   ar
    13    13    14   ar
    14    14    15    1
    15     6    16   ar
    16    16    17   ar
    17    17    18    1
    18    18    19    1
    19    17     3   ar
    20    14     8   ar
    21     1    20    1
    22     1    21    1
    23     1    22    1
    24     2    23    1
    25     2    24    1
    26     4    25    1
    27     5    26    1
    28     7    27    1
    29     7    28    1
    30     9    29    1
    31    12    30    1
    32    12    31    1
    33    15    32    1
    34    15    33    1
    35    16    34    1
    36    18    35    1
    37    18    36    1
    38    19    37    1
    39    19    38    1
    40    19    39    1
