@<TRIPOS>MOLECULE
*****
 58 62 0 0 0
SMALL
GASTEIGER

@<TRIPOS>ATOM
      1 C           9.3022    2.8016    1.5397 C.3     1  UNL1        0.0788
      2 O           7.9340    2.5784    1.2031 O.3     1  UNL1       -0.4951
      3 C           7.5942    1.3493    0.6484 C.ar    1  UNL1        0.1204
      4 C           8.5177    0.3634    0.4194 C.ar    1  UNL1       -0.0199
      5 C           8.1659   -0.8382   -0.1264 C.ar    1  UNL1       -0.0580
      6 C           6.8325   -1.0705   -0.4603 C.ar    1  UNL1       -0.0579
      7 C           5.8776   -0.0990   -0.2427 C.ar    1  UNL1       -0.0352
      8 C           4.4501   -0.3206   -0.5894 C.3     1  UNL1        0.0494
      9 C           3.6966   -0.9123    0.5542 C.2     1  UNL1        0.2205
     10 O           4.2603   -1.1687    1.6523 O.2     1  UNL1       -0.2752
     11 N           2.3253   -1.1828    0.3817 N.am    1  UNL1       -0.2925
     12 C           1.4642   -1.7537    1.3945 C.3     1  UNL1        0.0404
     13 C           0.1695   -2.0059    0.6917 C.ar    1  UNL1       -0.0253
     14 C          -0.9643   -2.6060    1.1568 C.ar    1  UNL1       -0.0549
     15 C          -2.0590   -2.7344    0.3206 C.ar    1  UNL1       -0.0348
     16 C          -2.0213   -2.2653   -0.9731 C.ar    1  UNL1        0.1089
     17 S          -3.3654   -2.3913   -2.0583 S.O2    1  UNL1        0.0736
     18 O          -4.2906   -3.4664   -1.5057 O.2     1  UNL1       -0.1499
     19 O          -2.9155   -2.8551   -3.4321 O.2     1  UNL1       -0.1499
     20 N          -4.2879   -0.9720   -2.2335 N.pl3   1  UNL1       -0.1968
     21 C          -4.9866   -0.3623   -1.1571 C.ar    1  UNL1        0.1798
     22 C          -5.1066   -0.7389    0.1534 C.ar    1  UNL1        0.0924
     23 N          -5.8924    0.1744    0.7676 N.ar    1  UNL1       -0.1583
     24 N          -6.2641    1.0919   -0.0874 N.ar    1  UNL1       -0.1785
     25 C          -7.1139    2.2416    0.1940 C.3     1  UNL1        0.0722
     26 C          -8.3871    2.1408   -0.6554 C.3     1  UNL1       -0.0288
     27 C          -8.9128    1.1877    0.4269 C.3     1  UNL1       -0.0491
     28 C          -7.9935    1.9446    1.3958 C.3     1  UNL1       -0.0288
     29 N          -5.7267    0.7809   -1.2472 N.ar    1  UNL1       -0.1355
     30 C          -0.8438   -1.6589   -1.4085 C.ar    1  UNL1       -0.0301
     31 C           0.2360   -1.5281   -0.5963 C.ar    1  UNL1       -0.0236
     32 C           1.5687   -0.9353   -0.8223 C.3     1  UNL1        0.0404
     33 C           6.2744    1.1017    0.3108 C.ar    1  UNL1       -0.0163
     34 H           9.6700    2.0083    2.2227 H       1  UNL1        0.0660
     35 H           9.8602    2.6675    0.5700 H       1  UNL1        0.0660
     36 H           9.4609    3.8077    1.9464 H       1  UNL1        0.0660
     37 H           9.5626    0.5382    0.6782 H       1  UNL1        0.0654
     38 H           8.8624   -1.6400   -0.3225 H       1  UNL1        0.0619
     39 H           6.5047   -2.0070   -0.8954 H       1  UNL1        0.0620
     40 H           4.3278   -0.9219   -1.5180 H       1  UNL1        0.0407
     41 H           3.9394    0.6613   -0.8118 H       1  UNL1        0.0407
     42 H           1.8974   -2.7142    1.7893 H       1  UNL1        0.0514
     43 H           1.3155   -1.0817    2.2615 H       1  UNL1        0.0514
     44 H          -1.0065   -2.9803    2.1763 H       1  UNL1        0.0621
     45 H          -2.9390   -3.2188    0.7142 H       1  UNL1        0.0637
     46 H          -4.3622   -0.4965   -3.1861 H       1  UNL1        0.1753
     47 H          -4.6607   -1.6043    0.6007 H       1  UNL1        0.0884
     48 H          -6.6251    3.2126    0.1834 H       1  UNL1        0.0562
     49 H          -8.9618    3.0887   -0.6371 H       1  UNL1        0.0286
     50 H          -8.2216    1.6781   -1.6298 H       1  UNL1        0.0286
     51 H          -9.9770    1.2746    0.6385 H       1  UNL1        0.0267
     52 H          -8.4906    0.1888    0.2609 H       1  UNL1        0.0267
     53 H          -8.4879    2.8468    1.8195 H       1  UNL1        0.0286
     54 H          -7.5473    1.2618    2.1350 H       1  UNL1        0.0286
     55 H          -0.8009   -1.2880   -2.4179 H       1  UNL1        0.0640
     56 H           1.5131    0.1529   -1.0290 H       1  UNL1        0.0514
     57 H           2.0745   -1.4627   -1.6675 H       1  UNL1        0.0514
     58 H           5.5549    1.9045    0.5032 H       1  UNL1        0.0657
@<TRIPOS>BOND
     1     1     2    1
     2     2     3    1
     3     3     4   ar
     4     4     5   ar
     5     5     6   ar
     6     6     7   ar
     7     7     8    1
     8     8     9    1
     9     9    10    2
    10     9    11   am
    11    11    12    1
    12    12    13    1
    13    13    14   ar
    14    14    15   ar
    15    15    16   ar
    16    16    17    1
    17    17    18    2
    18    17    19    2
    19    17    20    1
    20    20    21    1
    21    21    22   ar
    22    22    23   ar
    23    23    24   ar
    24    24    25    1
    25    25    26    1
    26    26    27    1
    27    27    28    1
    28    24    29   ar
    29    16    30   ar
    30    30    31   ar
    31    31    32    1
    32     7    33   ar
    33    33     3   ar
    34    32    11    1
    35    31    13   ar
    36    29    21   ar
    37    28    25    1
    38     1    34    1
    39     1    35    1
    40     1    36    1
    41     4    37    1
    42     5    38    1
    43     6    39    1
    44     8    40    1
    45     8    41    1
    46    12    42    1
    47    12    43    1
    48    14    44    1
    49    15    45    1
    50    20    46    1
    51    22    47    1
    52    25    48    1
    53    26    49    1
    54    26    50    1
    55    27    51    1
    56    27    52    1
    57    28    53    1
    58    28    54    1
    59    30    55    1
    60    32    56    1
    61    32    57    1
    62    33    58    1
