
     RDKit          3D

 58 62  0  0  0  0  0  0  0  0999 V2000
    9.3022    2.8016    1.5397 C   0  0  0  0  0  0  0  0  0  0  0  0
    7.9340    2.5784    1.2031 O   0  0  0  0  0  0  0  0  0  0  0  0
    7.5942    1.3493    0.6484 C   0  0  0  0  0  0  0  0  0  0  0  0
    8.5177    0.3634    0.4194 C   0  0  0  0  0  0  0  0  0  0  0  0
    8.1659   -0.8382   -0.1264 C   0  0  0  0  0  0  0  0  0  0  0  0
    6.8325   -1.0705   -0.4603 C   0  0  0  0  0  0  0  0  0  0  0  0
    5.8776   -0.0990   -0.2427 C   0  0  0  0  0  0  0  0  0  0  0  0
    4.4501   -0.3206   -0.5894 C   0  0  0  0  0  0  0  0  0  0  0  0
    3.6966   -0.9123    0.5542 C   0  0  0  0  0  0  0  0  0  0  0  0
    4.2603   -1.1687    1.6523 O   0  0  0  0  0  0  0  0  0  0  0  0
    2.3253   -1.1828    0.3817 N   0  0  0  0  0  0  0  0  0  0  0  0
    1.4642   -1.7537    1.3945 C   0  0  0  0  0  0  0  0  0  0  0  0
    0.1695   -2.0059    0.6917 C   0  0  0  0  0  0  0  0  0  0  0  0
   -0.9643   -2.6060    1.1568 C   0  0  0  0  0  0  0  0  0  0  0  0
   -2.0590   -2.7344    0.3206 C   0  0  0  0  0  0  0  0  0  0  0  0
   -2.0213   -2.2653   -0.9731 C   0  0  0  0  0  0  0  0  0  0  0  0
   -3.3654   -2.3913   -2.0583 S   0  0  0  0  0  6  0  0  0  0  0  0
   -4.2906   -3.4664   -1.5057 O   0  0  0  0  0  0  0  0  0  0  0  0
   -2.9155   -2.8551   -3.4321 O   0  0  0  0  0  0  0  0  0  0  0  0
   -4.2879   -0.9720   -2.2335 N   0  0  0  0  0  0  0  0  0  0  0  0
   -4.9866   -0.3623   -1.1571 C   0  0  0  0  0  0  0  0  0  0  0  0
   -5.1066   -0.7389    0.1534 C   0  0  0  0  0  0  0  0  0  0  0  0
   -5.8924    0.1744    0.7676 N   0  0  0  0  0  0  0  0  0  0  0  0
   -6.2641    1.0919   -0.0874 N   0  0  0  0  0  0  0  0  0  0  0  0
   -7.1139    2.2416    0.1940 C   0  0  0  0  0  0  0  0  0  0  0  0
   -8.3871    2.1408   -0.6554 C   0  0  0  0  0  0  0  0  0  0  0  0
   -8.9128    1.1877    0.4269 C   0  0  0  0  0  0  0  0  0  0  0  0
   -7.9935    1.9446    1.3958 C   0  0  0  0  0  0  0  0  0  0  0  0
   -5.7267    0.7809   -1.2472 N   0  0  0  0  0  0  0  0  0  0  0  0
   -0.8438   -1.6589   -1.4085 C   0  0  0  0  0  0  0  0  0  0  0  0
    0.2360   -1.5281   -0.5963 C   0  0  0  0  0  0  0  0  0  0  0  0
    1.5687   -0.9353   -0.8223 C   0  0  0  0  0  0  0  0  0  0  0  0
    6.2744    1.1017    0.3108 C   0  0  0  0  0  0  0  0  0  0  0  0
    9.6700    2.0083    2.2227 H   0  0  0  0  0  0  0  0  0  0  0  0
    9.8602    2.6675    0.5700 H   0  0  0  0  0  0  0  0  0  0  0  0
    9.4609    3.8077    1.9464 H   0  0  0  0  0  0  0  0  0  0  0  0
    9.5626    0.5382    0.6782 H   0  0  0  0  0  0  0  0  0  0  0  0
    8.8624   -1.6400   -0.3225 H   0  0  0  0  0  0  0  0  0  0  0  0
    6.5047   -2.0070   -0.8954 H   0  0  0  0  0  0  0  0  0  0  0  0
    4.3278   -0.9219   -1.5180 H   0  0  0  0  0  0  0  0  0  0  0  0
    3.9394    0.6613   -0.8118 H   0  0  0  0  0  0  0  0  0  0  0  0
    1.8974   -2.7142    1.7893 H   0  0  0  0  0  0  0  0  0  0  0  0
    1.3155   -1.0817    2.2615 H   0  0  0  0  0  0  0  0  0  0  0  0
   -1.0065   -2.9803    2.1763 H   0  0  0  0  0  0  0  0  0  0  0  0
   -2.9390   -3.2188    0.7142 H   0  0  0  0  0  0  0  0  0  0  0  0
   -4.3622   -0.4965   -3.1861 H   0  0  0  0  0  0  0  0  0  0  0  0
   -4.6607   -1.6043    0.6007 H   0  0  0  0  0  0  0  0  0  0  0  0
   -6.6251    3.2126    0.1834 H   0  0  0  0  0  0  0  0  0  0  0  0
   -8.9618    3.0887   -0.6371 H   0  0  0  0  0  0  0  0  0  0  0  0
   -8.2216    1.6781   -1.6298 H   0  0  0  0  0  0  0  0  0  0  0  0
   -9.9770    1.2746    0.6385 H   0  0  0  0  0  0  0  0  0  0  0  0
   -8.4906    0.1888    0.2609 H   0  0  0  0  0  0  0  0  0  0  0  0
   -8.4879    2.8468    1.8195 H   0  0  0  0  0  0  0  0  0  0  0  0
   -7.5473    1.2618    2.1350 H   0  0  0  0  0  0  0  0  0  0  0  0
   -0.8009   -1.2880   -2.4179 H   0  0  0  0  0  0  0  0  0  0  0  0
    1.5131    0.1529   -1.0290 H   0  0  0  0  0  0  0  0  0  0  0  0
    2.0745   -1.4627   -1.6675 H   0  0  0  0  0  0  0  0  0  0  0  0
    5.5549    1.9045    0.5032 H   0  0  0  0  0  0  0  0  0  0  0  0
  1  2  1  0
  2  3  1  0
  3  4  2  0
  4  5  1  0
  5  6  2  0
  6  7  1  0
  7  8  1  0
  8  9  1  0
  9 10  2  0
  9 11  1  0
 11 12  1  0
 12 13  1  0
 13 14  2  0
 14 15  1  0
 15 16  2  0
 16 17  1  0
 17 18  2  0
 17 19  2  0
 17 20  1  0
 20 21  1  0
 21 22  1  0
 22 23  2  0
 23 24  1  0
 24 25  1  0
 25 26  1  0
 26 27  1  0
 27 28  1  0
 24 29  1  0
 16 30  1  0
 30 31  2  0
 31 32  1  0
  7 33  2  0
 33  3  1  0
 32 11  1  0
 31 13  1  0
 29 21  2  0
 28 25  1  0
  1 34  1  0
  1 35  1  0
  1 36  1  0
  4 37  1  0
  5 38  1  0
  6 39  1  0
  8 40  1  0
  8 41  1  0
 12 42  1  0
 12 43  1  0
 14 44  1  0
 15 45  1  0
 20 46  1  0
 22 47  1  0
 25 48  1  0
 26 49  1  0
 26 50  1  0
 27 51  1  0
 27 52  1  0
 28 53  1  0
 28 54  1  0
 30 55  1  0
 32 56  1  0
 32 57  1  0
 33 58  1  0
M  END
$$$$
