
     RDKit          3D

 64 67  0  0  0  0  0  0  0  0999 V2000
   -3.7609   -0.8436   -2.2139 C   0  0  0  0  0  0  0  0  0  0  0  0
   -2.8085   -1.9270   -1.8626 C   0  0  0  0  0  0  0  0  0  0  0  0
   -1.5555   -1.4319   -1.1779 C   0  0  0  0  0  0  0  0  0  0  0  0
   -1.8797   -0.6612    0.0340 C   0  0  0  0  0  0  0  0  0  0  0  0
   -2.9215   -1.0443    0.8440 C   0  0  0  0  0  0  0  0  0  0  0  0
   -3.2989   -0.2975    1.9585 C   0  0  0  0  0  0  0  0  0  0  0  0
   -4.3912   -0.7844    2.7069 O   0  0  0  0  0  0  0  0  0  0  0  0
   -5.6705   -0.6351    2.1439 C   0  0  0  0  0  0  0  0  0  0  0  0
   -6.8084   -1.0754    2.7690 C   0  0  0  0  0  0  0  0  0  0  0  0
   -8.0393   -0.9223    2.1954 C   0  0  0  0  0  0  0  0  0  0  0  0
   -8.1878   -0.3105    0.9537 C   0  0  0  0  0  0  0  0  0  0  0  0
   -9.7444   -0.1066    0.1756 Cl  0  0  0  0  0  0  0  0  0  0  0  0
   -7.0535    0.1410    0.3154 C   0  0  0  0  0  0  0  0  0  0  0  0
   -7.1645    0.8061   -1.0227 C   0  0  0  0  0  0  0  0  0  0  0  0
   -5.8195   -0.0176    0.8984 C   0  0  0  0  0  0  0  0  0  0  0  0
   -2.6098    0.8333    2.2471 C   0  0  0  0  0  0  0  0  0  0  0  0
   -1.5495    1.2205    1.4242 C   0  0  0  0  0  0  0  0  0  0  0  0
   -1.1762    0.4850    0.3178 C   0  0  0  0  0  0  0  0  0  0  0  0
   -0.1256    0.9118   -0.4680 O   0  0  0  0  0  0  0  0  0  0  0  0
    0.6761    2.0314   -0.2541 C   0  0  0  0  0  0  0  0  0  0  0  0
    1.6717    2.2692   -1.3516 C   0  0  0  0  0  0  0  0  0  0  0  0
    2.5859    1.1361   -1.6584 C   0  0  0  0  0  0  0  0  0  0  0  0
    3.4282    0.6146   -0.8158 O   0  0  0  0  0  0  0  0  0  0  0  0
    4.2464    0.0973    0.0242 C   0  0  0  0  0  0  0  0  0  0  0  0
    3.8354   -0.4317    1.2399 C   0  0  0  0  0  0  0  0  0  0  0  0
    4.7832   -0.9738    2.0767 C   0  0  0  0  0  0  0  0  0  0  0  0
    6.1361   -1.0001    1.7245 C   0  0  0  0  0  0  0  0  0  0  0  0
    6.5592   -0.4780    0.5177 C   0  0  0  0  0  0  0  0  0  0  0  0
    7.9555   -0.5253    0.1732 C   0  0  0  0  0  0  0  0  0  0  0  0
    9.1921   -1.2163    1.2236 S   0  0  0  0  0  0  0  0  0  0  0  0
   10.5867   -0.9171    0.1208 C   0  0  0  0  0  0  0  0  0  0  0  0
   11.8021   -1.2046    0.3198 O   0  0  0  0  0  0  0  0  0  0  0  0
    9.9617   -0.3188   -0.9373 N   0  0  0  0  0  0  0  0  0  0  0  0
    8.6751   -0.1424   -0.8834 C   0  0  0  0  0  0  0  0  0  0  0  0
    8.0039    0.4866   -2.0003 O   0  0  0  0  0  0  0  0  0  0  0  0
    5.6273    0.0509   -0.2941 C   0  0  0  0  0  0  0  0  0  0  0  0
   -4.0705   -0.8169   -3.2783 H   0  0  0  0  0  0  0  0  0  0  0  0
   -4.7372   -1.0882   -1.6700 H   0  0  0  0  0  0  0  0  0  0  0  0
   -3.3857    0.1709   -1.9132 H   0  0  0  0  0  0  0  0  0  0  0  0
   -3.2640   -2.7774   -1.3305 H   0  0  0  0  0  0  0  0  0  0  0  0
   -2.4424   -2.3473   -2.8525 H   0  0  0  0  0  0  0  0  0  0  0  0
   -1.0189   -0.7472   -1.8885 H   0  0  0  0  0  0  0  0  0  0  0  0
   -0.9291   -2.2936   -0.9261 H   0  0  0  0  0  0  0  0  0  0  0  0
   -3.5016   -1.9425    0.6505 H   0  0  0  0  0  0  0  0  0  0  0  0
   -6.7205   -1.5623    3.7499 H   0  0  0  0  0  0  0  0  0  0  0  0
   -8.9476   -1.2584    2.6771 H   0  0  0  0  0  0  0  0  0  0  0  0
   -6.5803    1.7368   -1.0825 H   0  0  0  0  0  0  0  0  0  0  0  0
   -6.7881    0.1063   -1.7784 H   0  0  0  0  0  0  0  0  0  0  0  0
   -8.2254    1.0350   -1.2032 H   0  0  0  0  0  0  0  0  0  0  0  0
   -4.9223    0.3317    0.4079 H   0  0  0  0  0  0  0  0  0  0  0  0
   -2.9115    1.4171    3.1197 H   0  0  0  0  0  0  0  0  0  0  0  0
   -1.0415    2.1419    1.7126 H   0  0  0  0  0  0  0  0  0  0  0  0
   -0.0348    2.9075   -0.1755 H   0  0  0  0  0  0  0  0  0  0  0  0
    1.1976    2.0382    0.7456 H   0  0  0  0  0  0  0  0  0  0  0  0
    1.0805    2.4757   -2.2923 H   0  0  0  0  0  0  0  0  0  0  0  0
    2.2513    3.2126   -1.1915 H   0  0  0  0  0  0  0  0  0  0  0  0
    1.9476    0.3318   -2.1787 H   0  0  0  0  0  0  0  0  0  0  0  0
    3.1678    1.5133   -2.6044 H   0  0  0  0  0  0  0  0  0  0  0  0
    2.7924   -0.4279    1.5373 H   0  0  0  0  0  0  0  0  0  0  0  0
    4.4492   -1.3857    3.0294 H   0  0  0  0  0  0  0  0  0  0  0  0
    6.8348   -1.4386    2.4317 H   0  0  0  0  0  0  0  0  0  0  0  0
   10.5819   -0.0098   -1.8019 H   0  0  0  0  0  0  0  0  0  0  0  0
    8.1451    1.4861   -2.1116 H   0  0  0  0  0  0  0  0  0  0  0  0
    5.9123    0.4712   -1.2468 H   0  0  0  0  0  0  0  0  0  0  0  0
  1  2  1  0
  2  3  1  0
  3  4  1  0
  4  5  2  0
  5  6  1  0
  6  7  1  0
  7  8  1  0
  8  9  2  0
  9 10  1  0
 10 11  2  0
 11 12  1  0
 11 13  1  0
 13 14  1  0
 13 15  2  0
  6 16  2  0
 16 17  1  0
 17 18  2  0
 18 19  1  0
 19 20  1  0
 20 21  1  0
 21 22  1  0
 22 23  1  0
 23 24  1  0
 24 25  2  0
 25 26  1  0
 26 27  2  0
 27 28  1  0
 28 29  1  0
 29 30  1  0
 30 31  1  0
 31 32  2  0
 31 33  1  0
 33 34  1  0
 34 35  1  0
 28 36  2  0
 18  4  1  0
 36 24  1  0
 15  8  1  0
 34 29  2  0
  1 37  1  0
  1 38  1  0
  1 39  1  0
  2 40  1  0
  2 41  1  0
  3 42  1  0
  3 43  1  0
  5 44  1  0
  9 45  1  0
 10 46  1  0
 14 47  1  0
 14 48  1  0
 14 49  1  0
 15 50  1  0
 16 51  1  0
 17 52  1  0
 20 53  1  0
 20 54  1  0
 21 55  1  0
 21 56  1  0
 22 57  1  0
 22 58  1  0
 25 59  1  0
 26 60  1  0
 27 61  1  0
 33 62  1  0
 35 63  1  0
 36 64  1  0
M  END
$$$$
