@<TRIPOS>MOLECULE
*****
 64 67 0 0 0
SMALL
GASTEIGER

@<TRIPOS>ATOM
      1 C          -3.7609   -0.8436   -2.2139 C.3     1  UNL1       -0.0650
      2 C          -2.8085   -1.9270   -1.8626 C.3     1  UNL1       -0.0518
      3 C          -1.5555   -1.4319   -1.1779 C.3     1  UNL1       -0.0244
      4 C          -1.8797   -0.6612    0.0340 C.ar    1  UNL1       -0.0022
      5 C          -2.9215   -1.0443    0.8440 C.ar    1  UNL1       -0.0127
      6 C          -3.2989   -0.2975    1.9585 C.ar    1  UNL1        0.1289
      7 O          -4.3912   -0.7844    2.7069 O.3     1  UNL1       -0.4560
      8 C          -5.6705   -0.6351    2.1439 C.ar    1  UNL1        0.1288
      9 C          -6.8084   -1.0754    2.7690 C.ar    1  UNL1       -0.0179
     10 C          -8.0393   -0.9223    2.1954 C.ar    1  UNL1       -0.0397
     11 C          -8.1878   -0.3105    0.9537 C.ar    1  UNL1        0.0441
     12 CL         -9.7444   -0.1066    0.1756 Cl      1  UNL1       -0.0833
     13 C          -7.0535    0.1410    0.3154 C.ar    1  UNL1       -0.0287
     14 C          -7.1645    0.8061   -1.0227 C.3     1  UNL1       -0.0382
     15 C          -5.8195   -0.0176    0.8984 C.ar    1  UNL1       -0.0150
     16 C          -2.6098    0.8333    2.2471 C.ar    1  UNL1       -0.0159
     17 C          -1.5495    1.2205    1.4242 C.ar    1  UNL1       -0.0162
     18 C          -1.1762    0.4850    0.3178 C.ar    1  UNL1        0.1239
     19 O          -0.1256    0.9118   -0.4680 O.3     1  UNL1       -0.4916
     20 C           0.6761    2.0314   -0.2541 C.3     1  UNL1        0.0927
     21 C           1.6717    2.2692   -1.3516 C.3     1  UNL1        0.0157
     22 C           2.5859    1.1361   -1.6584 C.3     1  UNL1        0.0927
     23 O           3.4282    0.6146   -0.8158 O.3     1  UNL1       -0.4918
     24 C           4.2464    0.0973    0.0242 C.ar    1  UNL1        0.1211
     25 C           3.8354   -0.4317    1.2399 C.ar    1  UNL1       -0.0199
     26 C           4.7832   -0.9738    2.0767 C.ar    1  UNL1       -0.0577
     27 C           6.1361   -1.0001    1.7245 C.ar    1  UNL1       -0.0531
     28 C           6.5592   -0.4780    0.5177 C.ar    1  UNL1       -0.0026
     29 C           7.9555   -0.5253    0.1732 C.ar    1  UNL1        0.0838
     30 S           9.1921   -1.2163    1.2236 S.2     1  UNL1       -0.0230
     31 C          10.5867   -0.9171    0.1208 C.ar    1  UNL1        0.2913
     32 O          11.8021   -1.2046    0.3198 O.2     1  UNL1       -0.2596
     33 N           9.9617   -0.3188   -0.9373 N.ar    1  UNL1       -0.2870
     34 C           8.6751   -0.1424   -0.8834 C.ar    1  UNL1        0.2081
     35 O           8.0039    0.4866   -2.0003 O.3     1  UNL1       -0.4928
     36 C           5.6273    0.0509   -0.2941 C.ar    1  UNL1       -0.0116
     37 H          -4.0705   -0.8169   -3.2783 H       1  UNL1        0.0230
     38 H          -4.7372   -1.0882   -1.6700 H       1  UNL1        0.0230
     39 H          -3.3857    0.1709   -1.9132 H       1  UNL1        0.0230
     40 H          -3.2640   -2.7774   -1.3305 H       1  UNL1        0.0266
     41 H          -2.4424   -2.3473   -2.8525 H       1  UNL1        0.0266
     42 H          -1.0189   -0.7472   -1.8885 H       1  UNL1        0.0314
     43 H          -0.9291   -2.2936   -0.9261 H       1  UNL1        0.0314
     44 H          -3.5016   -1.9425    0.6505 H       1  UNL1        0.0658
     45 H          -6.7205   -1.5623    3.7499 H       1  UNL1        0.0655
     46 H          -8.9476   -1.2584    2.6771 H       1  UNL1        0.0633
     47 H          -6.5803    1.7368   -1.0825 H       1  UNL1        0.0278
     48 H          -6.7881    0.1063   -1.7784 H       1  UNL1        0.0278
     49 H          -8.2254    1.0350   -1.2032 H       1  UNL1        0.0278
     50 H          -4.9223    0.3317    0.4079 H       1  UNL1        0.0657
     51 H          -2.9115    1.4171    3.1197 H       1  UNL1        0.0655
     52 H          -1.0415    2.1419    1.7126 H       1  UNL1        0.0655
     53 H          -0.0348    2.9075   -0.1755 H       1  UNL1        0.0697
     54 H           1.1976    2.0382    0.7456 H       1  UNL1        0.0697
     55 H           1.0805    2.4757   -2.2923 H       1  UNL1        0.0331
     56 H           2.2513    3.2126   -1.1915 H       1  UNL1        0.0331
     57 H           1.9476    0.3318   -2.1787 H       1  UNL1        0.0697
     58 H           3.1678    1.5133   -2.6044 H       1  UNL1        0.0697
     59 H           2.7924   -0.4279    1.5373 H       1  UNL1        0.0654
     60 H           4.4492   -1.3857    3.0294 H       1  UNL1        0.0619
     61 H           6.8348   -1.4386    2.4317 H       1  UNL1        0.0624
     62 H          10.5819   -0.0098   -1.8019 H       1  UNL1        0.1723
     63 H           8.1451    1.4861   -2.1116 H       1  UNL1        0.2937
     64 H           5.9123    0.4712   -1.2468 H       1  UNL1        0.0660
@<TRIPOS>BOND
     1     1     2    1
     2     2     3    1
     3     3     4    1
     4     4     5   ar
     5     5     6   ar
     6     6     7    1
     7     7     8    1
     8     8     9   ar
     9     9    10   ar
    10    10    11   ar
    11    11    12    1
    12    11    13   ar
    13    13    14    1
    14    13    15   ar
    15     6    16   ar
    16    16    17   ar
    17    17    18   ar
    18    18    19    1
    19    19    20    1
    20    20    21    1
    21    21    22    1
    22    22    23    1
    23    23    24    1
    24    24    25   ar
    25    25    26   ar
    26    26    27   ar
    27    27    28   ar
    28    28    29    1
    29    29    30   ar
    30    30    31   ar
    31    31    32    2
    32    31    33   ar
    33    33    34   ar
    34    34    35    1
    35    28    36   ar
    36    18     4   ar
    37    36    24   ar
    38    15     8   ar
    39    34    29   ar
    40     1    37    1
    41     1    38    1
    42     1    39    1
    43     2    40    1
    44     2    41    1
    45     3    42    1
    46     3    43    1
    47     5    44    1
    48     9    45    1
    49    10    46    1
    50    14    47    1
    51    14    48    1
    52    14    49    1
    53    15    50    1
    54    16    51    1
    55    17    52    1
    56    20    53    1
    57    20    54    1
    58    21    55    1
    59    21    56    1
    60    22    57    1
    61    22    58    1
    62    25    59    1
    63    26    60    1
    64    27    61    1
    65    33    62    1
    66    35    63    1
    67    36    64    1
