
     RDKit          3D

 17 16  0  0  0  0  0  0  0  0999 V2000
   -0.8562   -1.6688    0.2764 N   0  0  0  0  0  0  0  0  0  0  0  0
   -0.7223   -0.2289    0.4896 C   0  0  1  0  0  0  0  0  0  0  0  0
    0.4640    0.2974   -0.3059 C   0  0  0  0  0  0  0  0  0  0  0  0
    1.7197   -0.3682    0.1232 C   0  0  0  0  0  0  0  0  0  0  0  0
    2.9344   -0.0234   -0.4895 N   0  0  0  0  0  0  0  0  0  0  0  0
    1.7129   -1.2339    1.0244 O   0  0  0  0  0  0  0  0  0  0  0  0
   -1.9795    0.3804    0.0196 C   0  0  0  0  0  0  0  0  0  0  0  0
   -2.0724    1.7608    0.1295 O   0  0  0  0  0  0  0  0  0  0  0  0
   -2.9771   -0.1986   -0.4686 O   0  0  0  0  0  0  0  0  0  0  0  0
   -1.5614   -1.8627   -0.4640 H   0  0  0  0  0  0  0  0  0  0  0  0
   -0.9497   -2.2100    1.1397 H   0  0  0  0  0  0  0  0  0  0  0  0
   -0.5281   -0.0598    1.5555 H   0  0  0  0  0  0  0  0  0  0  0  0
    0.3315    0.1327   -1.3900 H   0  0  0  0  0  0  0  0  0  0  0  0
    0.5107    1.3838   -0.1052 H   0  0  0  0  0  0  0  0  0  0  0  0
    3.1091    1.0071   -0.4326 H   0  0  0  0  0  0  0  0  0  0  0  0
    3.6717    0.6205   -0.7971 H   0  0  0  0  0  0  0  0  0  0  0  0
   -2.8075    2.2717   -0.3050 H   0  0  0  0  0  0  0  0  0  0  0  0
  1  2  1  0
  2  3  1  0
  3  4  1  0
  4  5  1  0
  4  6  2  0
  2  7  1  0
  7  8  1  0
  7  9  2  0
  1 10  1  0
  1 11  1  0
  2 12  1  1
  3 13  1  0
  3 14  1  0
  5 15  1  0
  5 16  1  0
  8 17  1  0
M  END
$$$$
