@<TRIPOS>MOLECULE
*****
 37 40 0 0 0
SMALL
GASTEIGER

@<TRIPOS>ATOM
      1 C          -2.7054   -2.2260    0.4785 C.3     1  UNL1       -0.0122
      2 N          -2.2132   -0.8610    0.4699 N.3     1  UNL1       -0.2978
      3 C          -3.2805    0.1009    0.3669 C.3     1  UNL1        0.0032
      4 C          -3.0419    1.1719   -0.6682 C.3     1  UNL1       -0.0145
      5 C          -1.6625    1.6928   -0.4424 C.ar    1  UNL1       -0.0409
      6 C          -1.3360    3.0019   -0.3161 C.ar    1  UNL1       -0.0582
      7 C          -0.0400    3.3715   -0.1091 C.ar    1  UNL1       -0.0609
      8 C           0.9825    2.4098   -0.0219 C.ar    1  UNL1       -0.0536
      9 C           0.6382    1.0837   -0.1516 C.ar    1  UNL1       -0.0091
     10 C          -0.6744    0.7043   -0.3620 C.ar    1  UNL1       -0.0189
     11 C          -1.1815   -0.6660   -0.5278 C.3     1  UNL1        0.0401
     12 C          -0.1759   -1.7374   -0.3975 C.3     1  UNL1       -0.0072
     13 C           1.2076   -1.2856   -0.1894 C.ar    1  UNL1       -0.0341
     14 C           2.1541   -2.2863   -0.1114 C.ar    1  UNL1       -0.0543
     15 C           3.4912   -2.0285    0.0871 C.ar    1  UNL1       -0.0162
     16 C           3.8851   -0.7201    0.2107 C.ar    1  UNL1        0.1589
     17 O           5.2135   -0.3685    0.4132 O.3     1  UNL1       -0.5033
     18 C           2.9535    0.3264    0.1371 C.ar    1  UNL1        0.1664
     19 O           3.4324    1.5928    0.2702 O.3     1  UNL1       -0.5029
     20 C           1.6458    0.0270   -0.0596 C.ar    1  UNL1        0.0308
     21 H          -2.6795   -2.6903   -0.5211 H       1  UNL1        0.0391
     22 H          -2.2305   -2.8058    1.2713 H       1  UNL1        0.0391
     23 H          -3.8003   -2.1568    0.7435 H       1  UNL1        0.0391
     24 H          -4.2682   -0.3478    0.1667 H       1  UNL1        0.0430
     25 H          -3.3450    0.6247    1.3576 H       1  UNL1        0.0430
     26 H          -3.7596    1.9906   -0.4800 H       1  UNL1        0.0326
     27 H          -3.1909    0.8106   -1.7025 H       1  UNL1        0.0326
     28 H          -2.1193    3.7472   -0.3822 H       1  UNL1        0.0620
     29 H           0.2667    4.3940   -0.0033 H       1  UNL1        0.0618
     30 H           1.9822    2.7495    0.1416 H       1  UNL1        0.0624
     31 H          -1.6390   -0.6922   -1.5654 H       1  UNL1        0.0515
     32 H          -0.3890   -2.4421    0.4606 H       1  UNL1        0.0332
     33 H          -0.1493   -2.3393   -1.3595 H       1  UNL1        0.0332
     34 H           1.8904   -3.3377   -0.2035 H       1  UNL1        0.0622
     35 H           4.2309   -2.8198    0.1475 H       1  UNL1        0.0655
     36 H           5.7235    0.2197   -0.2297 H       1  UNL1        0.2923
     37 H           4.1841    1.7917    0.9047 H       1  UNL1        0.2923
@<TRIPOS>BOND
     1     1     2    1
     2     2     3    1
     3     3     4    1
     4     4     5    1
     5     5     6   ar
     6     6     7   ar
     7     7     8   ar
     8     8     9   ar
     9     9    10   ar
    10    10    11    1
    11    11    12    1
    12    12    13    1
    13    13    14   ar
    14    14    15   ar
    15    15    16   ar
    16    16    17    1
    17    16    18   ar
    18    18    19    1
    19    18    20   ar
    20    11     2    1
    21    20    13   ar
    22    10     5   ar
    23    20     9    1
    24     1    21    1
    25     1    22    1
    26     1    23    1
    27     3    24    1
    28     3    25    1
    29     4    26    1
    30     4    27    1
    31     6    28    1
    32     7    29    1
    33     8    30    1
    34    11    31    1
    35    12    32    1
    36    12    33    1
    37    14    34    1
    38    15    35    1
    39    17    36    1
    40    19    37    1
