@<TRIPOS>MOLECULE
*****
 52 57 0 0 0
SMALL
GASTEIGER

@<TRIPOS>ATOM
      1 C           1.5401   -5.0133   -0.5900 C.ar    1  UNL1        0.0465
      2 C           2.6947   -4.3479   -0.9346 C.ar    1  UNL1        0.0294
      3 N           2.6184   -3.1179   -0.3954 N.ar    1  UNL1       -0.3018
      4 C           3.4574   -2.0520   -0.4099 C.ar    1  UNL1        0.0373
      5 C           3.1553   -0.8748    0.2280 C.ar    1  UNL1        0.0897
      6 C           4.0494    0.2724    0.1959 C.ar    1  UNL1        0.0039
      7 C           3.6979    1.4531    0.8326 C.ar    1  UNL1       -0.0518
      8 C           4.5510    2.5587    0.8054 C.ar    1  UNL1       -0.0505
      9 C           5.7499    2.4996    0.1514 C.ar    1  UNL1        0.0195
     10 C           6.7525    3.3919   -0.0353 C.ar    1  UNL1        0.0569
     11 N           7.7152    2.7743   -0.7777 N.ar    1  UNL1       -0.1812
     12 N           7.3174    1.5320   -1.0431 N.ar    1  UNL1       -0.2769
     13 C           6.1099    1.3370   -0.4821 C.ar    1  UNL1        0.0663
     14 C           5.2597    0.2449   -0.4517 C.ar    1  UNL1       -0.0271
     15 N           1.9686   -0.8160    0.8845 N.ar    1  UNL1       -0.2267
     16 C           1.1123   -1.8220    0.9318 C.ar    1  UNL1        0.1669
     17 N          -0.1404   -1.8029    1.6187 N.pl3   1  UNL1       -0.2965
     18 C          -1.2833   -1.1261    1.0987 C.ar    1  UNL1        0.0326
     19 C          -2.5165   -1.4389    1.6225 C.ar    1  UNL1       -0.0388
     20 C          -3.6263   -0.7747    1.1401 C.ar    1  UNL1       -0.0389
     21 C          -3.4937    0.1844    0.1508 C.ar    1  UNL1        0.0299
     22 N          -4.6724    0.8268   -0.3073 N.pl3   1  UNL1       -0.3255
     23 C          -4.5176    2.0809   -1.0468 C.3     1  UNL1        0.0357
     24 C          -5.7870    2.8789   -0.7120 C.3     1  UNL1        0.0634
     25 O          -6.8134    2.1963   -1.3280 O.3     1  UNL1       -0.3767
     26 C          -7.1128    1.0322   -0.6737 C.3     1  UNL1        0.0634
     27 C          -5.9767    0.2827   -0.0796 C.3     1  UNL1        0.0357
     28 C          -2.2414    0.4733   -0.3526 C.ar    1  UNL1       -0.0389
     29 C          -1.1135   -0.1644    0.0997 C.ar    1  UNL1       -0.0388
     30 C           1.4577   -3.0046    0.2678 C.ar    1  UNL1        0.1784
     31 N           0.7902   -4.1719    0.1498 N.ar    1  UNL1       -0.2330
     32 H           1.2280   -6.0293   -0.8357 H       1  UNL1        0.0845
     33 H           3.4840   -4.7783   -1.5290 H       1  UNL1        0.0829
     34 H           4.3737   -2.2014   -0.9580 H       1  UNL1        0.0835
     35 H           2.7635    1.5342    1.3540 H       1  UNL1        0.0624
     36 H           4.2783    3.4746    1.2997 H       1  UNL1        0.0625
     37 H           6.7619    4.3982    0.3439 H       1  UNL1        0.0854
     38 H           7.8925    0.8678   -1.5993 H       1  UNL1        0.1889
     39 H           5.6127   -0.6316   -0.9710 H       1  UNL1        0.0645
     40 H          -0.2314   -2.2935    2.5248 H       1  UNL1        0.1537
     41 H          -2.6282   -2.2007    2.4105 H       1  UNL1        0.0637
     42 H          -4.6120   -1.0284    1.5584 H       1  UNL1        0.0637
     43 H          -4.4874    1.8291   -2.1247 H       1  UNL1        0.0486
     44 H          -3.6277    2.6341   -0.7333 H       1  UNL1        0.0486
     45 H          -5.6883    3.9320   -0.9685 H       1  UNL1        0.0575
     46 H          -5.9439    2.7199    0.3939 H       1  UNL1        0.0575
     47 H          -7.6024    0.3468   -1.4295 H       1  UNL1        0.0575
     48 H          -7.9234    1.2337    0.0644 H       1  UNL1        0.0575
     49 H          -5.9599   -0.7786   -0.4211 H       1  UNL1        0.0486
     50 H          -6.1605    0.2046    1.0342 H       1  UNL1        0.0486
     51 H          -2.1171    1.2146   -1.1267 H       1  UNL1        0.0637
     52 H          -0.1150    0.0602   -0.2968 H       1  UNL1        0.0637
@<TRIPOS>BOND
     1     1     2   ar
     2     2     3   ar
     3     3     4   ar
     4     4     5   ar
     5     5     6    1
     6     6     7   ar
     7     7     8   ar
     8     8     9   ar
     9     9    10   ar
    10    10    11   ar
    11    11    12   ar
    12    12    13   ar
    13    13    14   ar
    14     5    15   ar
    15    15    16   ar
    16    16    17    1
    17    17    18    1
    18    18    19   ar
    19    19    20   ar
    20    20    21   ar
    21    21    22    1
    22    22    23    1
    23    23    24    1
    24    24    25    1
    25    25    26    1
    26    26    27    1
    27    21    28   ar
    28    28    29   ar
    29    16    30   ar
    30    30    31   ar
    31    31     1   ar
    32    30     3   ar
    33    14     6   ar
    34    29    18   ar
    35    13     9   ar
    36    27    22    1
    37     1    32    1
    38     2    33    1
    39     4    34    1
    40     7    35    1
    41     8    36    1
    42    10    37    1
    43    12    38    1
    44    14    39    1
    45    17    40    1
    46    19    41    1
    47    20    42    1
    48    23    43    1
    49    23    44    1
    50    24    45    1
    51    24    46    1
    52    26    47    1
    53    26    48    1
    54    27    49    1
    55    27    50    1
    56    28    51    1
    57    29    52    1
