@<TRIPOS>MOLECULE
*****
 40 43 0 0 0
SMALL
GASTEIGER

@<TRIPOS>ATOM
      1 C          -2.8032   -0.8603    0.9550 C.3     1  UNL1        0.0138
      2 C          -3.3550   -1.8705   -0.0271 C.3     1  UNL1       -0.0358
      3 C          -3.1405   -1.1857   -1.3496 C.3     1  UNL1       -0.0358
      4 C          -2.9544    0.2662   -0.9720 C.3     1  UNL1        0.0138
      5 C          -1.4758    0.5692   -1.1558 C.3     1  UNL1        0.0000
      6 C          -0.7822    0.3177    0.1445 C.3     1  UNL1        0.1063
      7 C          -1.2992   -0.9077    0.8593 C.3     1  UNL1        0.0000
      8 O           0.6074    0.2815    0.0110 O.3     1  UNL1       -0.4577
      9 C           1.3466    1.2477    0.6891 C.2     1  UNL1        0.3415
     10 O           0.7790    2.1375    1.4089 O.2     1  UNL1       -0.2449
     11 C           2.7968    1.2429    0.5747 C.ar    1  UNL1        0.0855
     12 C           3.6679    2.1290    1.1819 C.ar    1  UNL1        0.0181
     13 N           4.9393    1.8492    0.8721 N.ar    1  UNL1       -0.3450
     14 C           4.9239    0.7895    0.0677 C.ar    1  UNL1        0.1389
     15 C           3.6141    0.3885   -0.1372 C.ar    1  UNL1        0.0326
     16 C           3.3292   -0.6984   -0.9417 C.ar    1  UNL1       -0.0488
     17 C           4.3666   -1.3970   -1.5519 C.ar    1  UNL1       -0.0429
     18 C           5.6694   -0.9498   -1.3114 C.ar    1  UNL1        0.0299
     19 N           5.9266    0.1112   -0.5244 N.ar    1  UNL1       -0.2375
     20 N          -3.2704    0.3847    0.4189 N.3     1  UNL1       -0.2992
     21 C          -4.6224    0.7225    0.7227 C.3     1  UNL1       -0.0122
     22 H          -3.1659   -1.0593    1.9832 H       1  UNL1        0.0464
     23 H          -2.7056   -2.7786    0.0636 H       1  UNL1        0.0281
     24 H          -4.4154   -2.1107    0.1768 H       1  UNL1        0.0281
     25 H          -3.9904   -1.3077   -2.0511 H       1  UNL1        0.0281
     26 H          -2.2355   -1.6291   -1.8240 H       1  UNL1        0.0281
     27 H          -3.5548    0.9268   -1.6224 H       1  UNL1        0.0464
     28 H          -1.4116    1.6643   -1.3812 H       1  UNL1        0.0316
     29 H          -1.0289   -0.0035   -1.9930 H       1  UNL1        0.0316
     30 H          -1.0557    1.1799    0.8209 H       1  UNL1        0.0735
     31 H          -0.8727   -0.8655    1.8898 H       1  UNL1        0.0316
     32 H          -0.9067   -1.7856    0.3221 H       1  UNL1        0.0316
     33 H           3.3264    2.9312    1.8177 H       1  UNL1        0.0816
     34 H           5.7438    2.4022    1.2312 H       1  UNL1        0.1668
     35 H           2.3041   -0.9963   -1.0900 H       1  UNL1        0.0625
     36 H           4.1522   -2.2471   -2.1817 H       1  UNL1        0.0633
     37 H           6.4621   -1.5035   -1.7928 H       1  UNL1        0.0830
     38 H          -4.5701    1.5370    1.5044 H       1  UNL1        0.0391
     39 H          -5.1909    1.1865   -0.1051 H       1  UNL1        0.0391
     40 H          -5.1482   -0.1086    1.2335 H       1  UNL1        0.0391
@<TRIPOS>BOND
     1     1     2    1
     2     2     3    1
     3     3     4    1
     4     4     5    1
     5     5     6    1
     6     6     7    1
     7     6     8    1
     8     8     9    1
     9     9    10    2
    10     9    11    1
    11    11    12   ar
    12    12    13   ar
    13    13    14   ar
    14    14    15   ar
    15    15    16   ar
    16    16    17   ar
    17    17    18   ar
    18    18    19   ar
    19     4    20    1
    20    20    21    1
    21     7     1    1
    22    15    11   ar
    23    20     1    1
    24    19    14   ar
    25     1    22    1
    26     2    23    1
    27     2    24    1
    28     3    25    1
    29     3    26    1
    30     4    27    1
    31     5    28    1
    32     5    29    1
    33     6    30    1
    34     7    31    1
    35     7    32    1
    36    12    33    1
    37    13    34    1
    38    16    35    1
    39    17    36    1
    40    18    37    1
    41    21    38    1
    42    21    39    1
    43    21    40    1
