
     RDKit          3D

 40 43  0  0  0  0  0  0  0  0999 V2000
   -2.8032   -0.8603    0.9550 C   0  0  1  0  0  0  0  0  0  0  0  0
   -3.3550   -1.8705   -0.0271 C   0  0  0  0  0  0  0  0  0  0  0  0
   -3.1405   -1.1857   -1.3496 C   0  0  0  0  0  0  0  0  0  0  0  0
   -2.9544    0.2662   -0.9720 C   0  0  2  0  0  0  0  0  0  0  0  0
   -1.4758    0.5692   -1.1558 C   0  0  0  0  0  0  0  0  0  0  0  0
   -0.7822    0.3177    0.1445 C   0  0  1  0  0  0  0  0  0  0  0  0
   -1.2992   -0.9077    0.8593 C   0  0  0  0  0  0  0  0  0  0  0  0
    0.6074    0.2815    0.0110 O   0  0  0  0  0  0  0  0  0  0  0  0
    1.3466    1.2477    0.6891 C   0  0  0  0  0  0  0  0  0  0  0  0
    0.7790    2.1375    1.4089 O   0  0  0  0  0  0  0  0  0  0  0  0
    2.7968    1.2429    0.5747 C   0  0  0  0  0  0  0  0  0  0  0  0
    3.6679    2.1290    1.1819 C   0  0  0  0  0  0  0  0  0  0  0  0
    4.9393    1.8492    0.8721 N   0  0  0  0  0  0  0  0  0  0  0  0
    4.9239    0.7895    0.0677 C   0  0  0  0  0  0  0  0  0  0  0  0
    3.6141    0.3885   -0.1372 C   0  0  0  0  0  0  0  0  0  0  0  0
    3.3292   -0.6984   -0.9417 C   0  0  0  0  0  0  0  0  0  0  0  0
    4.3666   -1.3970   -1.5519 C   0  0  0  0  0  0  0  0  0  0  0  0
    5.6694   -0.9498   -1.3114 C   0  0  0  0  0  0  0  0  0  0  0  0
    5.9266    0.1112   -0.5244 N   0  0  0  0  0  0  0  0  0  0  0  0
   -3.2704    0.3847    0.4189 N   0  0  0  0  0  0  0  0  0  0  0  0
   -4.6224    0.7225    0.7227 C   0  0  0  0  0  0  0  0  0  0  0  0
   -3.1659   -1.0593    1.9832 H   0  0  0  0  0  0  0  0  0  0  0  0
   -2.7056   -2.7786    0.0636 H   0  0  0  0  0  0  0  0  0  0  0  0
   -4.4154   -2.1107    0.1768 H   0  0  0  0  0  0  0  0  0  0  0  0
   -3.9904   -1.3077   -2.0511 H   0  0  0  0  0  0  0  0  0  0  0  0
   -2.2355   -1.6291   -1.8240 H   0  0  0  0  0  0  0  0  0  0  0  0
   -3.5548    0.9268   -1.6224 H   0  0  0  0  0  0  0  0  0  0  0  0
   -1.4116    1.6643   -1.3812 H   0  0  0  0  0  0  0  0  0  0  0  0
   -1.0289   -0.0035   -1.9930 H   0  0  0  0  0  0  0  0  0  0  0  0
   -1.0557    1.1799    0.8209 H   0  0  0  0  0  0  0  0  0  0  0  0
   -0.8727   -0.8655    1.8898 H   0  0  0  0  0  0  0  0  0  0  0  0
   -0.9067   -1.7856    0.3221 H   0  0  0  0  0  0  0  0  0  0  0  0
    3.3264    2.9312    1.8177 H   0  0  0  0  0  0  0  0  0  0  0  0
    5.7438    2.4022    1.2312 H   0  0  0  0  0  0  0  0  0  0  0  0
    2.3041   -0.9963   -1.0900 H   0  0  0  0  0  0  0  0  0  0  0  0
    4.1522   -2.2471   -2.1817 H   0  0  0  0  0  0  0  0  0  0  0  0
    6.4621   -1.5035   -1.7928 H   0  0  0  0  0  0  0  0  0  0  0  0
   -4.5701    1.5370    1.5044 H   0  0  0  0  0  0  0  0  0  0  0  0
   -5.1909    1.1865   -0.1051 H   0  0  0  0  0  0  0  0  0  0  0  0
   -5.1482   -0.1086    1.2335 H   0  0  0  0  0  0  0  0  0  0  0  0
  1  2  1  0
  2  3  1  0
  3  4  1  0
  4  5  1  0
  5  6  1  0
  6  7  1  0
  6  8  1  0
  8  9  1  0
  9 10  2  0
  9 11  1  0
 11 12  2  0
 12 13  1  0
 13 14  1  0
 14 15  2  0
 15 16  1  0
 16 17  2  0
 17 18  1  0
 18 19  2  0
  4 20  1  0
 20 21  1  0
  7  1  1  0
 15 11  1  0
 20  1  1  0
 19 14  1  0
  1 22  1  1
  2 23  1  0
  2 24  1  0
  3 25  1  0
  3 26  1  0
  4 27  1  6
  5 28  1  0
  5 29  1  0
  6 30  1  1
  7 31  1  0
  7 32  1  0
 12 33  1  0
 13 34  1  0
 16 35  1  0
 17 36  1  0
 18 37  1  0
 21 38  1  0
 21 39  1  0
 21 40  1  0
M  END
$$$$
