@<TRIPOS>MOLECULE
*****
 70 76 0 0 0
SMALL
GASTEIGER

@<TRIPOS>ATOM
      1 O           1.1159   -1.3894   -2.4911 O.2     1  UNL1       -0.2702
      2 C           0.8967   -0.8179   -1.3965 C.2     1  UNL1        0.2448
      3 N           1.9948   -0.3777   -0.6536 N.am    1  UNL1       -0.2981
      4 CA          3.4012   -0.5385   -1.0698 C.3     1  UNL1        0.1245
      5 C           4.0153    0.7769   -1.3643 C.3     1  UNL1        0.0032
      6 C           5.4286    0.6889   -1.7525 C.ar    1  UNL1       -0.0201
      7 C           5.9196    0.5889   -3.0561 C.ar    1  UNL1        0.0060
      8 N           7.2571    0.4946   -3.0477 N.ar    1  UNL1       -0.3604
      9 C           7.6593    0.5323   -1.7401 C.ar    1  UNL1        0.0468
     10 C           8.9166    0.4876   -1.1835 C.ar    1  UNL1       -0.0371
     11 C           9.0987    0.5595    0.1570 C.ar    1  UNL1       -0.0490
     12 C           8.0000    0.6810    0.9902 C.ar    1  UNL1        0.0212
     13 C           8.2188    0.7576    2.4179 C.ar    1  UNL1        0.1794
     14 N           7.2586    0.8743    3.3431 N.ar    1  UNL1       -0.1084
     15 N           7.8403    0.9149    4.5511 N.ar    1  UNL1       -0.0229
     16 N           9.1451    0.8250    4.3867 N.ar    1  UNL1       -0.0464
     17 N           9.3779    0.7281    3.0709 N.ar    1  UNL1       -0.2388
     18 C           6.7188    0.7274    0.4472 C.ar    1  UNL1       -0.0416
     19 C           6.5508    0.6524   -0.9140 C.ar    1  UNL1        0.0036
     20 C           4.1183   -1.4636   -0.2087 C.2     1  UNL1        0.3256
     21 O           5.2825   -1.8489   -0.4810 O.2     1  UNL1       -0.2489
     22 OXT         3.5815   -1.9914    0.9725 O.3     1  UNL1       -0.4793
     23 C          -0.5071   -0.6559   -0.9811 C.ar    1  UNL1        0.0388
     24 C          -0.8593   -0.0552    0.1844 C.ar    1  UNL1       -0.0476
     25 C          -2.1559    0.1060    0.5858 C.ar    1  UNL1       -0.0353
     26 C          -3.1740   -0.3568   -0.2167 C.ar    1  UNL1        0.0694
     27 C          -2.8230   -0.9790   -1.4223 C.ar    1  UNL1        0.0904
     28 C          -1.5048   -1.1255   -1.7976 C.ar    1  UNL1       -0.0221
     29 N          -3.9994   -1.3179   -1.9793 N.ar    1  UNL1       -0.2274
     30 C          -4.9946   -0.9454   -1.1999 C.ar    1  UNL1        0.1451
     31 C          -6.3964   -1.1789   -1.5388 C.ar    1  UNL1        0.0551
     32 C          -7.0396   -0.6613   -2.6372 C.ar    1  UNL1       -0.0132
     33 C          -8.3541   -1.1043   -2.6190 C.ar    1  UNL1        0.0924
     34 O          -8.4716   -1.8474   -1.5566 O.2     1  UNL1       -0.4703
     35 C          -7.3513   -1.9255   -0.8853 C.ar    1  UNL1        0.1023
     36 N          -4.5044   -0.3361   -0.0800 N.ar    1  UNL1       -0.3204
     37 C          -5.3569    0.1565    0.9128 C.3     1  UNL1        0.0365
     38 C          -6.1892    1.3282    0.3555 C.3     1  UNL1       -0.0320
     39 C          -7.5133    1.3392    1.0380 C.3     1  UNL1       -0.0512
     40 C          -7.4221    0.6095    2.3556 C.3     1  UNL1       -0.0529
     41 C          -6.1425    0.8204    3.0936 C.3     1  UNL1       -0.0512
     42 C          -4.8953    0.5846    2.2198 C.3     1  UNL1       -0.0320
     43 H           1.8430    0.0989    0.2584 H       1  UNL1        0.1498
     44 HA          3.2961   -1.0751   -2.0725 H       1  UNL1        0.0618
     45 H           3.9212    1.4486   -0.4581 H       1  UNL1        0.0337
     46 H           3.3990    1.3058   -2.1370 H       1  UNL1        0.0337
     47 H           5.2812    0.5908   -3.9251 H       1  UNL1        0.0810
     48 H           7.8767    0.4092   -3.8681 H       1  UNL1        0.1653
     49 H           9.7725    0.3926   -1.8379 H       1  UNL1        0.0638
     50 H          10.0871    0.5268    0.6329 H       1  UNL1        0.0625
     51 H          10.3414    0.6421    2.6345 H       1  UNL1        0.1923
     52 H           5.8661    0.8203    1.0767 H       1  UNL1        0.0631
     53 HXT         4.1796   -2.4216    1.6516 H       1  UNL1        0.2951
     54 H          -0.0865    0.3210    0.8414 H       1  UNL1        0.0626
     55 H          -2.4323    0.5856    1.5150 H       1  UNL1        0.0639
     56 H          -1.2773   -1.6214   -2.7547 H       1  UNL1        0.0647
     57 H          -6.6260   -0.0204   -3.3991 H       1  UNL1        0.0656
     58 H          -9.1216   -0.8800   -3.3364 H       1  UNL1        0.1029
     59 H          -7.2332   -2.4908    0.0253 H       1  UNL1        0.1036
     60 H          -6.1462   -0.6432    1.0967 H       1  UNL1        0.0528
     61 H          -5.6551    2.2742    0.6684 H       1  UNL1        0.0285
     62 H          -6.2054    1.3462   -0.7285 H       1  UNL1        0.0285
     63 H          -8.2514    0.7551    0.4157 H       1  UNL1        0.0266
     64 H          -7.9205    2.3786    1.1727 H       1  UNL1        0.0266
     65 H          -8.2186    1.0947    3.0013 H       1  UNL1        0.0265
     66 H          -7.7561   -0.4480    2.3053 H       1  UNL1        0.0265
     67 H          -6.1631    0.1516    3.9774 H       1  UNL1        0.0266
     68 H          -6.1673    1.8540    3.5141 H       1  UNL1        0.0266
     69 H          -4.2936   -0.1319    2.7863 H       1  UNL1        0.0285
     70 H          -4.4513    1.6108    2.1345 H       1  UNL1        0.0285
@<TRIPOS>BOND
     1     1     2    2
     2     2     3   am
     3     3     4    1
     4     4     5    1
     5     5     6    1
     6     6     7   ar
     7     7     8   ar
     8     8     9   ar
     9     9    10   ar
    10    10    11   ar
    11    11    12   ar
    12    12    13    1
    13    13    14   ar
    14    14    15   ar
    15    15    16   ar
    16    16    17   ar
    17    12    18   ar
    18    18    19   ar
    19     4    20    1
    20    20    21    2
    21    20    22    1
    22     2    23    1
    23    23    24   ar
    24    24    25   ar
    25    25    26   ar
    26    26    27   ar
    27    27    28   ar
    28    27    29   ar
    29    29    30   ar
    30    30    31    1
    31    31    32   ar
    32    32    33   ar
    33    33    34   ar
    34    34    35   ar
    35    30    36   ar
    36    36    37    1
    37    37    38    1
    38    38    39    1
    39    39    40    1
    40    40    41    1
    41    41    42    1
    42    19     6   ar
    43    28    23   ar
    44    35    31   ar
    45    42    37    1
    46    19     9   ar
    47    36    26   ar
    48    17    13   ar
    49     3    43    1
    50     4    44    1
    51     5    45    1
    52     5    46    1
    53     7    47    1
    54     8    48    1
    55    10    49    1
    56    11    50    1
    57    17    51    1
    58    18    52    1
    59    22    53    1
    60    24    54    1
    61    25    55    1
    62    28    56    1
    63    32    57    1
    64    33    58    1
    65    35    59    1
    66    37    60    1
    67    38    61    1
    68    38    62    1
    69    39    63    1
    70    39    64    1
    71    40    65    1
    72    40    66    1
    73    41    67    1
    74    41    68    1
    75    42    69    1
    76    42    70    1
