
     RDKit          3D

 70 76  0  0  0  0  0  0  0  0999 V2000
    1.1159   -1.3894   -2.4911 O   0  0  0  0  0  0  0  0  0  0  0  0
    0.8967   -0.8179   -1.3965 C   0  0  0  0  0  0  0  0  0  0  0  0
    1.9948   -0.3777   -0.6536 N   0  0  0  0  0  0  0  0  0  0  0  0
    3.4012   -0.5385   -1.0698 C   0  0  1  0  0  0  0  0  0  0  0  0
    4.0153    0.7769   -1.3643 C   0  0  0  0  0  0  0  0  0  0  0  0
    5.4286    0.6889   -1.7525 C   0  0  0  0  0  0  0  0  0  0  0  0
    5.9196    0.5889   -3.0561 C   0  0  0  0  0  0  0  0  0  0  0  0
    7.2571    0.4946   -3.0477 N   0  0  0  0  0  0  0  0  0  0  0  0
    7.6593    0.5323   -1.7401 C   0  0  0  0  0  0  0  0  0  0  0  0
    8.9166    0.4876   -1.1835 C   0  0  0  0  0  0  0  0  0  0  0  0
    9.0987    0.5595    0.1570 C   0  0  0  0  0  0  0  0  0  0  0  0
    8.0000    0.6810    0.9902 C   0  0  0  0  0  0  0  0  0  0  0  0
    8.2188    0.7576    2.4179 C   0  0  0  0  0  0  0  0  0  0  0  0
    7.2586    0.8743    3.3431 N   0  0  0  0  0  0  0  0  0  0  0  0
    7.8403    0.9149    4.5511 N   0  0  0  0  0  0  0  0  0  0  0  0
    9.1451    0.8250    4.3867 N   0  0  0  0  0  0  0  0  0  0  0  0
    9.3779    0.7281    3.0709 N   0  0  0  0  0  0  0  0  0  0  0  0
    6.7188    0.7274    0.4472 C   0  0  0  0  0  0  0  0  0  0  0  0
    6.5508    0.6524   -0.9140 C   0  0  0  0  0  0  0  0  0  0  0  0
    4.1183   -1.4636   -0.2087 C   0  0  0  0  0  0  0  0  0  0  0  0
    5.2825   -1.8489   -0.4810 O   0  0  0  0  0  0  0  0  0  0  0  0
    3.5815   -1.9914    0.9725 O   0  0  0  0  0  0  0  0  0  0  0  0
   -0.5071   -0.6559   -0.9811 C   0  0  0  0  0  0  0  0  0  0  0  0
   -0.8593   -0.0552    0.1844 C   0  0  0  0  0  0  0  0  0  0  0  0
   -2.1559    0.1060    0.5858 C   0  0  0  0  0  0  0  0  0  0  0  0
   -3.1740   -0.3568   -0.2167 C   0  0  0  0  0  0  0  0  0  0  0  0
   -2.8230   -0.9790   -1.4223 C   0  0  0  0  0  0  0  0  0  0  0  0
   -1.5048   -1.1255   -1.7976 C   0  0  0  0  0  0  0  0  0  0  0  0
   -3.9994   -1.3179   -1.9793 N   0  0  0  0  0  0  0  0  0  0  0  0
   -4.9946   -0.9454   -1.1999 C   0  0  0  0  0  0  0  0  0  0  0  0
   -6.3964   -1.1789   -1.5388 C   0  0  0  0  0  0  0  0  0  0  0  0
   -7.0396   -0.6613   -2.6372 C   0  0  0  0  0  0  0  0  0  0  0  0
   -8.3541   -1.1043   -2.6190 C   0  0  0  0  0  0  0  0  0  0  0  0
   -8.4716   -1.8474   -1.5566 O   0  0  0  0  0  0  0  0  0  0  0  0
   -7.3513   -1.9255   -0.8853 C   0  0  0  0  0  0  0  0  0  0  0  0
   -4.5044   -0.3361   -0.0800 N   0  0  0  0  0  0  0  0  0  0  0  0
   -5.3569    0.1565    0.9128 C   0  0  0  0  0  0  0  0  0  0  0  0
   -6.1892    1.3282    0.3555 C   0  0  0  0  0  0  0  0  0  0  0  0
   -7.5133    1.3392    1.0380 C   0  0  0  0  0  0  0  0  0  0  0  0
   -7.4221    0.6095    2.3556 C   0  0  0  0  0  0  0  0  0  0  0  0
   -6.1425    0.8204    3.0936 C   0  0  0  0  0  0  0  0  0  0  0  0
   -4.8953    0.5846    2.2198 C   0  0  0  0  0  0  0  0  0  0  0  0
    1.8430    0.0989    0.2584 H   0  0  0  0  0  0  0  0  0  0  0  0
    3.2961   -1.0751   -2.0725 H   0  0  0  0  0  0  0  0  0  0  0  0
    3.9212    1.4486   -0.4581 H   0  0  0  0  0  0  0  0  0  0  0  0
    3.3990    1.3058   -2.1370 H   0  0  0  0  0  0  0  0  0  0  0  0
    5.2812    0.5908   -3.9251 H   0  0  0  0  0  0  0  0  0  0  0  0
    7.8767    0.4092   -3.8681 H   0  0  0  0  0  0  0  0  0  0  0  0
    9.7725    0.3926   -1.8379 H   0  0  0  0  0  0  0  0  0  0  0  0
   10.0871    0.5268    0.6329 H   0  0  0  0  0  0  0  0  0  0  0  0
   10.3414    0.6421    2.6345 H   0  0  0  0  0  0  0  0  0  0  0  0
    5.8661    0.8203    1.0767 H   0  0  0  0  0  0  0  0  0  0  0  0
    4.1796   -2.4216    1.6516 H   0  0  0  0  0  0  0  0  0  0  0  0
   -0.0865    0.3210    0.8414 H   0  0  0  0  0  0  0  0  0  0  0  0
   -2.4323    0.5856    1.5150 H   0  0  0  0  0  0  0  0  0  0  0  0
   -1.2773   -1.6214   -2.7547 H   0  0  0  0  0  0  0  0  0  0  0  0
   -6.6260   -0.0204   -3.3991 H   0  0  0  0  0  0  0  0  0  0  0  0
   -9.1216   -0.8800   -3.3364 H   0  0  0  0  0  0  0  0  0  0  0  0
   -7.2332   -2.4908    0.0253 H   0  0  0  0  0  0  0  0  0  0  0  0
   -6.1462   -0.6432    1.0967 H   0  0  0  0  0  0  0  0  0  0  0  0
   -5.6551    2.2742    0.6684 H   0  0  0  0  0  0  0  0  0  0  0  0
   -6.2054    1.3462   -0.7285 H   0  0  0  0  0  0  0  0  0  0  0  0
   -8.2514    0.7551    0.4157 H   0  0  0  0  0  0  0  0  0  0  0  0
   -7.9205    2.3786    1.1727 H   0  0  0  0  0  0  0  0  0  0  0  0
   -8.2186    1.0947    3.0013 H   0  0  0  0  0  0  0  0  0  0  0  0
   -7.7561   -0.4480    2.3053 H   0  0  0  0  0  0  0  0  0  0  0  0
   -6.1631    0.1516    3.9774 H   0  0  0  0  0  0  0  0  0  0  0  0
   -6.1673    1.8540    3.5141 H   0  0  0  0  0  0  0  0  0  0  0  0
   -4.2936   -0.1319    2.7863 H   0  0  0  0  0  0  0  0  0  0  0  0
   -4.4513    1.6108    2.1345 H   0  0  0  0  0  0  0  0  0  0  0  0
  1  2  2  0
  2  3  1  0
  3  4  1  0
  4  5  1  0
  5  6  1  0
  6  7  2  0
  7  8  1  0
  8  9  1  0
  9 10  2  0
 10 11  1  0
 11 12  2  0
 12 13  1  0
 13 14  2  0
 14 15  1  0
 15 16  2  0
 16 17  1  0
 12 18  1  0
 18 19  2  0
  4 20  1  0
 20 21  2  0
 20 22  1  0
  2 23  1  0
 23 24  2  0
 24 25  1  0
 25 26  2  0
 26 27  1  0
 27 28  2  0
 27 29  1  0
 29 30  2  0
 30 31  1  0
 31 32  1  0
 32 33  2  0
 33 34  1  0
 34 35  1  0
 30 36  1  0
 36 37  1  0
 37 38  1  0
 38 39  1  0
 39 40  1  0
 40 41  1  0
 41 42  1  0
 19  6  1  0
 28 23  1  0
 35 31  2  0
 42 37  1  0
 19  9  1  0
 36 26  1  0
 17 13  1  0
  3 43  1  0
  4 44  1  6
  5 45  1  0
  5 46  1  0
  7 47  1  0
  8 48  1  0
 10 49  1  0
 11 50  1  0
 17 51  1  0
 18 52  1  0
 22 53  1  0
 24 54  1  0
 25 55  1  0
 28 56  1  0
 32 57  1  0
 33 58  1  0
 35 59  1  0
 37 60  1  0
 38 61  1  0
 38 62  1  0
 39 63  1  0
 39 64  1  0
 40 65  1  0
 40 66  1  0
 41 67  1  0
 41 68  1  0
 42 69  1  0
 42 70  1  0
M  END
$$$$
