@<TRIPOS>MOLECULE
*****
 43 45 0 0 0
SMALL
GASTEIGER

@<TRIPOS>ATOM
      1 O           0.7039    0.3821    0.3353 O.2     1  UNL1       -0.2698
      2 C           0.7847   -0.7616   -0.1765 C.2     1  UNL1        0.2500
      3 N           2.0131   -1.4528    0.1460 N.am    1  UNL1       -0.2814
      4 C           2.9960   -0.8220    0.9839 C.ar    1  UNL1        0.0342
      5 C           2.8989   -1.0268    2.3412 C.ar    1  UNL1       -0.0404
      6 C           3.8136   -0.4476    3.2006 C.ar    1  UNL1       -0.0595
      7 C           4.8442    0.3509    2.6944 C.ar    1  UNL1       -0.0500
      8 C           4.9436    0.5570    1.3425 C.ar    1  UNL1        0.0566
      9 C           6.0201    1.3949    0.7750 C.3     1  UNL1        0.4175
     10 F           5.6526    1.8597   -0.4857 F       1  UNL1       -0.1659
     11 F           7.1357    0.6056    0.5922 F       1  UNL1       -0.1659
     12 F           6.2913    2.5104    1.5440 F       1  UNL1       -0.1659
     13 C           4.0163   -0.0332    0.5005 C.ar    1  UNL1       -0.0288
     14 C          -0.2557   -1.3538   -1.0234 C.ar    1  UNL1        0.0578
     15 C          -0.1543   -2.7246   -1.3290 C.ar    1  UNL1       -0.0478
     16 C          -1.1288   -3.3586   -2.0691 C.ar    1  UNL1       -0.0609
     17 C          -2.2068   -2.6244   -2.5058 C.ar    1  UNL1       -0.0600
     18 C          -2.3401   -1.2922   -2.2305 C.ar    1  UNL1       -0.0401
     19 C          -1.3366   -0.6620   -1.4744 C.ar    1  UNL1        0.0396
     20 N          -1.4337    0.7479   -1.2686 N.pl3   1  UNL1       -0.3391
     21 C          -2.6143    1.5176   -1.6811 C.3     1  UNL1        0.0345
     22 C          -3.6578    1.5063   -0.5997 C.ar    1  UNL1       -0.0276
     23 C          -4.7162    0.6470   -0.5471 C.ar    1  UNL1       -0.0389
     24 C          -5.6646    0.6506    0.4865 C.ar    1  UNL1        0.0279
     25 N          -5.4894    1.5603    1.4554 N.ar    1  UNL1       -0.2632
     26 C          -4.4481    2.4282    1.4312 C.ar    1  UNL1        0.0279
     27 C          -3.5247    2.4423    0.4478 C.ar    1  UNL1       -0.0389
     28 H           2.1549   -2.3925   -0.2463 H       1  UNL1        0.1551
     29 H           2.1012   -1.6443    2.7265 H       1  UNL1        0.0636
     30 H           3.7763   -0.5809    4.2733 H       1  UNL1        0.0618
     31 H           5.5692    0.8125    3.3508 H       1  UNL1        0.0623
     32 H           4.0819    0.1212   -0.5770 H       1  UNL1        0.0642
     33 H           0.6848   -3.2766   -0.9776 H       1  UNL1        0.0626
     34 H          -1.0393   -4.4084   -2.2960 H       1  UNL1        0.0618
     35 H          -2.9547   -3.1811   -3.0915 H       1  UNL1        0.0618
     36 H          -3.1761   -0.7291   -2.5996 H       1  UNL1        0.0636
     37 H          -0.6508    1.2438   -0.8374 H       1  UNL1        0.1464
     38 H          -2.2877    2.5873   -1.7487 H       1  UNL1        0.0511
     39 H          -3.0201    1.2303   -2.6426 H       1  UNL1        0.0511
     40 H          -4.8784   -0.0866   -1.3309 H       1  UNL1        0.0636
     41 H          -6.4840   -0.0573    0.4737 H       1  UNL1        0.0829
     42 H          -4.3434    3.1543    2.2423 H       1  UNL1        0.0829
     43 H          -2.6767    3.1234    0.3955 H       1  UNL1        0.0636
@<TRIPOS>BOND
     1     1     2    2
     2     2     3   am
     3     3     4    1
     4     4     5   ar
     5     5     6   ar
     6     6     7   ar
     7     7     8   ar
     8     8     9    1
     9     9    10    1
    10     9    11    1
    11     9    12    1
    12     8    13   ar
    13     2    14    1
    14    14    15   ar
    15    15    16   ar
    16    16    17   ar
    17    17    18   ar
    18    18    19   ar
    19    19    20    1
    20    20    21    1
    21    21    22    1
    22    22    23   ar
    23    23    24   ar
    24    24    25   ar
    25    25    26   ar
    26    26    27   ar
    27    13     4   ar
    28    19    14   ar
    29    27    22   ar
    30     3    28    1
    31     5    29    1
    32     6    30    1
    33     7    31    1
    34    13    32    1
    35    15    33    1
    36    16    34    1
    37    17    35    1
    38    18    36    1
    39    20    37    1
    40    21    38    1
    41    21    39    1
    42    23    40    1
    43    24    41    1
    44    26    42    1
    45    27    43    1
