@<TRIPOS>MOLECULE
*****
 45 52 0 0 0
SMALL
GASTEIGER

@<TRIPOS>ATOM
      1 C          -1.1349   -2.5143    0.3631 C.3     1  UNL1        0.1384
      2 C          -0.6585   -3.0733   -0.9621 C.3     1  UNL1       -0.0032
      3 C           0.8408   -3.1199   -0.8444 C.3     1  UNL1       -0.0032
      4 C           1.1158   -2.4954    0.4803 C.3     1  UNL1        0.1384
      5 O          -0.0555   -2.6082    1.2262 O.3     1  UNL1       -0.3334
      6 N           1.5223   -1.0982    0.3657 N.ar    1  UNL1       -0.3115
      7 C           2.7368   -0.5215    0.3705 C.ar    1  UNL1        0.0524
      8 C           2.6449    0.8466    0.2386 C.ar    1  UNL1        0.0085
      9 C           3.8452    1.4691    0.2385 C.ar    1  UNL1       -0.0520
     10 C           5.0678    0.8633    0.3539 C.ar    1  UNL1       -0.0611
     11 C           5.1196   -0.5175    0.4850 C.ar    1  UNL1       -0.0598
     12 C           3.9361   -1.2121    0.4927 C.ar    1  UNL1       -0.0375
     13 C           1.3370    1.1605    0.1462 C.ar    1  UNL1        0.0226
     14 C           0.6602    2.3323    0.0055 C.ar    1  UNL1        0.0596
     15 C           1.1177    3.7028   -0.0997 C.2     1  UNL1        0.2519
     16 O           2.2336    4.2599   -0.0983 O.2     1  UNL1       -0.2697
     17 N          -0.0330    4.5300   -0.2310 N.am    1  UNL1       -0.2483
     18 C          -1.1908    3.7063   -0.2097 C.2     1  UNL1        0.2519
     19 O          -2.3079    4.2255   -0.3109 O.2     1  UNL1       -0.2697
     20 C          -0.7085    2.3535   -0.0615 C.ar    1  UNL1        0.0596
     21 C          -1.3498    1.1584    0.0185 C.ar    1  UNL1        0.0226
     22 C          -2.6672    0.7985   -0.0120 C.ar    1  UNL1        0.0085
     23 C          -2.7482   -0.5703    0.1100 C.ar    1  UNL1        0.0524
     24 C          -3.9449   -1.2758    0.1171 C.ar    1  UNL1       -0.0375
     25 C          -5.1375   -0.5984   -0.0028 C.ar    1  UNL1       -0.0598
     26 C          -5.1145    0.7886   -0.1293 C.ar    1  UNL1       -0.0611
     27 C          -3.8830    1.4010   -0.1262 C.ar    1  UNL1       -0.0520
     28 N          -1.5193   -1.1077    0.2188 N.ar    1  UNL1       -0.3115
     29 C          -0.6987   -0.0417    0.1606 C.ar    1  UNL1        0.0774
     30 C           0.6811   -0.0293    0.2254 C.ar    1  UNL1        0.0774
     31 H          -1.9701   -3.0859    0.7690 H       1  UNL1        0.0839
     32 H          -0.9895   -2.4335   -1.8203 H       1  UNL1        0.0310
     33 H          -1.0556   -4.1001   -1.0824 H       1  UNL1        0.0310
     34 H           1.3231   -2.5454   -1.6709 H       1  UNL1        0.0310
     35 H           1.2117   -4.1659   -0.8740 H       1  UNL1        0.0310
     36 H           1.9030   -3.0346    1.0534 H       1  UNL1        0.0839
     37 H           3.8701    2.5141    0.1423 H       1  UNL1        0.0624
     38 H           5.9939    1.4130    0.3473 H       1  UNL1        0.0618
     39 H           6.0726   -1.0141    0.5773 H       1  UNL1        0.0618
     40 H           4.0032   -2.2774    0.5952 H       1  UNL1        0.0638
     41 H          -0.0413    5.5963   -0.3301 H       1  UNL1        0.1581
     42 H          -3.9799   -2.3507    0.2143 H       1  UNL1        0.0638
     43 H          -6.0903   -1.1095   -0.0018 H       1  UNL1        0.0618
     44 H          -6.0385    1.3235   -0.2232 H       1  UNL1        0.0618
     45 H          -3.9193    2.4575   -0.2251 H       1  UNL1        0.0624
@<TRIPOS>BOND
     1     1     2    1
     2     2     3    1
     3     3     4    1
     4     4     5    1
     5     4     6    1
     6     6     7   ar
     7     7     8   ar
     8     8     9   ar
     9     9    10   ar
    10    10    11   ar
    11    11    12   ar
    12     8    13   ar
    13    13    14   ar
    14    14    15    1
    15    15    16    2
    16    15    17   am
    17    17    18   am
    18    18    19    2
    19    18    20    1
    20    20    21   ar
    21    21    22   ar
    22    22    23   ar
    23    23    24   ar
    24    24    25   ar
    25    25    26   ar
    26    26    27   ar
    27    23    28   ar
    28    28    29   ar
    29    29    30   ar
    30     5     1    1
    31    30     6   ar
    32    28     1    1
    33    12     7   ar
    34    30    13   ar
    35    20    14   ar
    36    29    21   ar
    37    27    22   ar
    38     1    31    1
    39     2    32    1
    40     2    33    1
    41     3    34    1
    42     3    35    1
    43     4    36    1
    44     9    37    1
    45    10    38    1
    46    11    39    1
    47    12    40    1
    48    17    41    1
    49    24    42    1
    50    25    43    1
    51    26    44    1
    52    27    45    1
