@<TRIPOS>MOLECULE
*****
 62 66 0 0 0
SMALL
GASTEIGER

@<TRIPOS>ATOM
      1 C           1.0735    2.5817   -0.2224 C.3     1  UNL1       -0.0376
      2 C           1.8274    1.2908   -0.1598 C.ar    1  UNL1       -0.0222
      3 C           3.1946    1.2561   -0.0067 C.ar    1  UNL1       -0.0418
      4 C           3.9328    0.0895    0.0565 C.ar    1  UNL1        0.0673
      5 C           5.3704    0.0791    0.2193 C.2     1  UNL1        0.3136
      6 N           6.1335    1.0981    0.3280 N.2     1  UNL1       -0.0730
      7 C           7.5205    0.7705    0.4787 C.3     1  UNL1        0.1819
      8 C           8.3748    1.6516   -0.4004 C.3     1  UNL1       -0.0138
      9 C           7.9759    0.8770    1.9283 C.3     1  UNL1       -0.0138
     10 C           7.5879   -0.6820    0.1009 C.3     1  UNL1        0.1248
     11 N           6.1814   -1.0772    0.2842 N.pl3   1  UNL1       -0.2290
     12 C           3.2192   -1.1036   -0.0440 C.ar    1  UNL1       -0.0214
     13 C           1.8490   -1.1013   -0.1979 C.ar    1  UNL1        0.0675
     14 N           0.9042   -2.0915   -0.3207 N.ar    1  UNL1       -0.3377
     15 C          -0.3302   -1.5451   -0.4499 C.ar    1  UNL1        0.1463
     16 C          -1.5601   -2.3248   -0.6015 C.ar    1  UNL1        0.1022
     17 C          -2.7842   -1.7129   -0.7313 C.ar    1  UNL1        0.0446
     18 N          -2.9057   -0.3128   -0.7836 N.pl3   1  UNL1       -0.3403
     19 C          -4.2222    0.3293   -0.8798 C.3     1  UNL1        0.0393
     20 C          -4.8851    0.2974    0.4660 C.3     1  UNL1        0.0956
     21 O          -4.0077    1.0293    1.3204 O.3     1  UNL1       -0.3856
     22 C          -6.1724    1.0212    0.4860 C.ar    1  UNL1       -0.0163
     23 C          -6.7038    1.4629    1.6799 C.ar    1  UNL1       -0.0560
     24 C          -7.8852    2.1377    1.7771 C.ar    1  UNL1       -0.0600
     25 C          -8.5948    2.3964    0.6164 C.ar    1  UNL1       -0.0434
     26 C          -8.1102    1.9776   -0.6052 C.ar    1  UNL1        0.0413
     27 CL         -9.0214    2.3114   -2.0856 Cl      1  UNL1       -0.0835
     28 C          -6.8958    1.2895   -0.6590 C.ar    1  UNL1       -0.0377
     29 C          -3.9618   -2.4901   -0.8624 C.ar    1  UNL1       -0.0239
     30 C          -3.8580   -3.8488   -0.8564 C.ar    1  UNL1        0.0067
     31 N          -2.6654   -4.4548   -0.7301 N.ar    1  UNL1       -0.3284
     32 C          -1.5338   -3.7033   -0.6048 C.ar    1  UNL1        0.2612
     33 O          -0.4739   -4.3454   -0.4934 O.2     1  UNL1       -0.2671
     34 N          -0.1477   -0.2239   -0.4071 N.ar    1  UNL1       -0.2272
     35 C           1.1448    0.0774   -0.2570 C.ar    1  UNL1        0.0924
     36 H           0.6976    2.8954    0.7692 H       1  UNL1        0.0278
     37 H           1.7766    3.3504   -0.6153 H       1  UNL1        0.0278
     38 H           0.2521    2.5207   -0.9907 H       1  UNL1        0.0278
     39 H           3.7204    2.1782    0.0679 H       1  UNL1        0.0629
     40 H           8.7889    2.4584    0.2600 H       1  UNL1        0.0276
     41 H           9.2031    1.0432   -0.8496 H       1  UNL1        0.0276
     42 H           7.7302    2.0493   -1.1984 H       1  UNL1        0.0276
     43 H           8.9108    0.2538    1.9951 H       1  UNL1        0.0276
     44 H           7.2309    0.3578    2.5746 H       1  UNL1        0.0276
     45 H           8.1462    1.9091    2.2519 H       1  UNL1        0.0276
     46 H           7.8648   -0.8519   -0.9474 H       1  UNL1        0.0771
     47 H           8.2215   -1.2663    0.7986 H       1  UNL1        0.0771
     48 H           5.9303   -2.0761    0.4315 H       1  UNL1        0.2915
     49 H           3.7549   -2.0623    0.0001 H       1  UNL1        0.0647
     50 H           1.2164   -3.0794   -0.3025 H       1  UNL1        0.1674
     51 H          -2.1049    0.3194   -0.7641 H       1  UNL1        0.1462
     52 H          -4.8456   -0.1082   -1.6557 H       1  UNL1        0.0490
     53 H          -4.1018    1.4197   -1.1342 H       1  UNL1        0.0490
     54 H          -5.0527   -0.6912    0.8718 H       1  UNL1        0.0659
     55 H          -4.1580    0.6506    2.2336 H       1  UNL1        0.2103
     56 H          -6.1659    1.2739    2.6193 H       1  UNL1        0.0621
     57 H          -8.2511    2.4591    2.7423 H       1  UNL1        0.0618
     58 H          -9.5429    2.9403    0.7134 H       1  UNL1        0.0632
     59 H          -6.5560    0.9815   -1.6335 H       1  UNL1        0.0636
     60 H          -4.9185   -1.9794   -0.9831 H       1  UNL1        0.0651
     61 H          -4.7562   -4.4639   -0.9557 H       1  UNL1        0.0808
     62 H          -2.5615   -5.4888   -0.7233 H       1  UNL1        0.1683
@<TRIPOS>BOND
     1     1     2    1
     2     2     3   ar
     3     3     4   ar
     4     4     5    1
     5     5     6    2
     6     6     7    1
     7     7     8    1
     8     7     9    1
     9     7    10    1
    10    10    11    1
    11     4    12   ar
    12    12    13   ar
    13    13    14   ar
    14    14    15   ar
    15    15    16    1
    16    16    17   ar
    17    17    18    1
    18    18    19    1
    19    19    20    1
    20    20    21    1
    21    20    22    1
    22    22    23   ar
    23    23    24   ar
    24    24    25   ar
    25    25    26   ar
    26    26    27    1
    27    26    28   ar
    28    17    29   ar
    29    29    30   ar
    30    30    31   ar
    31    31    32   ar
    32    32    33    2
    33    15    34   ar
    34    34    35   ar
    35    35     2   ar
    36    11     5    1
    37    35    13   ar
    38    32    16   ar
    39    28    22   ar
    40     1    36    1
    41     1    37    1
    42     1    38    1
    43     3    39    1
    44     8    40    1
    45     8    41    1
    46     8    42    1
    47     9    43    1
    48     9    44    1
    49     9    45    1
    50    10    46    1
    51    10    47    1
    52    11    48    1
    53    12    49    1
    54    14    50    1
    55    18    51    1
    56    19    52    1
    57    19    53    1
    58    20    54    1
    59    21    55    1
    60    23    56    1
    61    24    57    1
    62    25    58    1
    63    28    59    1
    64    29    60    1
    65    30    61    1
    66    31    62    1
