
     RDKit          3D

 21 22  0  0  0  0  0  0  0  0999 V2000
   -4.8091    0.8229   -0.4784 O   0  0  0  0  0  1  0  0  0  0  0  0
   -3.9681    0.0041    0.2371 N   0  0  0  0  0  4  0  0  0  0  0  0
   -4.5644   -0.7772    1.0047 O   0  0  0  0  0  0  0  0  0  0  0  0
   -2.5459    0.0374    0.1196 C   0  0  0  0  0  0  0  0  0  0  0  0
   -1.8290   -0.8368    0.8945 C   0  0  0  0  0  0  0  0  0  0  0  0
   -0.4552   -0.8184    0.7939 C   0  0  0  0  0  0  0  0  0  0  0  0
    0.1640    0.0754   -0.0805 C   0  0  0  0  0  0  0  0  0  0  0  0
   -0.6238    0.9280   -0.8310 C   0  0  0  0  0  0  0  0  0  0  0  0
   -2.0030    0.9450   -0.7631 C   0  0  0  0  0  0  0  0  0  0  0  0
    1.6168    0.1300   -0.2199 C   0  0  0  0  0  0  0  0  0  0  0  0
    2.4212    0.9012   -0.9908 N   0  0  0  0  0  0  0  0  0  0  0  0
    3.6913    0.5875   -0.7742 N   0  0  0  0  0  0  0  0  0  0  0  0
    3.7855   -0.3963    0.1412 C   0  0  0  0  0  0  0  0  0  0  0  0
    2.4860   -0.6881    0.4933 C   0  0  0  0  0  0  0  0  0  0  0  0
   -2.2902   -1.5287    1.5703 H   0  0  0  0  0  0  0  0  0  0  0  0
    0.1820   -1.4735    1.3685 H   0  0  0  0  0  0  0  0  0  0  0  0
   -0.1311    1.6305   -1.5187 H   0  0  0  0  0  0  0  0  0  0  0  0
   -2.6018    1.6137   -1.3529 H   0  0  0  0  0  0  0  0  0  0  0  0
    4.4885    1.0709   -1.2751 H   0  0  0  0  0  0  0  0  0  0  0  0
    4.7475   -0.7885    0.4500 H   0  0  0  0  0  0  0  0  0  0  0  0
    2.2388   -1.4394    1.2117 H   0  0  0  0  0  0  0  0  0  0  0  0
  1  2  1  0
  2  3  2  0
  2  4  1  0
  4  5  2  0
  5  6  1  0
  6  7  2  0
  7  8  1  0
  8  9  2  0
  7 10  1  0
 10 11  2  0
 11 12  1  0
 12 13  1  0
 13 14  2  0
  9  4  1  0
 14 10  1  0
  5 15  1  0
  6 16  1  0
  8 17  1  0
  9 18  1  0
 12 19  1  0
 13 20  1  0
 14 21  1  0
M  CHG  2   1  -1   2   1
M  END
$$$$
