@<TRIPOS>MOLECULE
*****
 37 40 0 0 0
SMALL
GASTEIGER

@<TRIPOS>ATOM
      1 C           4.4668   -1.0565   -0.7038 C.3     1  UNL1        0.0790
      2 O           3.7397   -0.6695    0.4301 O.3     1  UNL1       -0.4908
      3 C           2.7292    0.2634    0.4710 C.ar    1  UNL1        0.1691
      4 C           3.0709    1.5773    0.7161 C.ar    1  UNL1        0.1591
      5 O           4.4194    1.9065    0.9113 O.3     1  UNL1       -0.5033
      6 C           2.0809    2.5402    0.7642 C.ar    1  UNL1       -0.0159
      7 C           0.7680    2.1644    0.5652 C.ar    1  UNL1       -0.0496
      8 C           0.3749    0.8712    0.3177 C.ar    1  UNL1       -0.0024
      9 C           1.3964   -0.0528    0.2792 C.ar    1  UNL1        0.0345
     10 C           1.0815   -1.3768    0.0341 C.ar    1  UNL1        0.0276
     11 C          -0.2491   -1.6757   -0.1560 C.ar    1  UNL1        0.2824
     12 C          -1.2435   -0.7263   -0.1101 C.ar    1  UNL1        0.0775
     13 C          -0.9379    0.5952    0.1334 C.ar    1  UNL1        0.0427
     14 C          -1.9609    1.5115    0.1708 C.ar    1  UNL1        0.1747
     15 C          -3.2762    1.1584   -0.0254 C.ar    1  UNL1        0.1677
     16 O          -4.0446    2.3386    0.0804 O.3     1  UNL1       -0.4526
     17 C          -3.1195    3.4029   -0.2101 C.3     1  UNL1        0.2333
     18 O          -1.9623    2.8698    0.3881 O.3     1  UNL1       -0.4520
     19 C          -3.5962   -0.1326   -0.2647 C.ar    1  UNL1       -0.0013
     20 C          -2.5692   -1.0496   -0.3018 C.ar    1  UNL1        0.0767
     21 C          -2.9876   -2.4154   -0.5485 C.2     1  UNL1        0.3377
     22 O          -3.0538   -3.7617   -0.7513 O.3     1  UNL1       -0.4771
     23 O          -4.2243   -2.7134   -0.7351 O.2     1  UNL1       -0.2451
     24 N          -0.5424   -3.0363   -0.4131 N.pl3   1  UNL1        0.0803
     25 O           0.2339   -4.0012    0.1544 O.co2   1  UNL1       -0.5760
     26 O          -0.0004   -4.0882   -0.0253 O.2     1  UNL1        0.0415
     27 H           5.4831   -1.4145   -0.3814 H       1  UNL1        0.0660
     28 H           4.6365   -0.2399   -1.4227 H       1  UNL1        0.0660
     29 H           3.9782   -1.8799   -1.2482 H       1  UNL1        0.0660
     30 H           4.8790    1.7609    1.8050 H       1  UNL1        0.2923
     31 H           2.4274    3.5473    0.9619 H       1  UNL1        0.0655
     32 H           0.1145    3.0103    0.6313 H       1  UNL1        0.0625
     33 H           1.8572   -2.1180   -0.0015 H       1  UNL1        0.0693
     34 H          -3.4685    4.3379    0.2636 H       1  UNL1        0.1166
     35 H          -3.0502    3.4372   -1.3054 H       1  UNL1        0.1166
     36 H          -4.6228   -0.3885   -0.4145 H       1  UNL1        0.0664
     37 H          -2.8280   -4.4961   -0.0589 H       1  UNL1        0.2954
@<TRIPOS>UNITY_ATOM_ATTR
24 1
charge 1
25 1
charge -1
@<TRIPOS>BOND
     1     1     2    1
     2     2     3    1
     3     3     4   ar
     4     4     5    1
     5     4     6   ar
     6     6     7   ar
     7     7     8   ar
     8     8     9   ar
     9     9    10   ar
    10    10    11   ar
    11    11    12   ar
    12    12    13   ar
    13    13    14   ar
    14    14    15   ar
    15    15    16    1
    16    16    17    1
    17    17    18    1
    18    15    19   ar
    19    19    20   ar
    20    20    21    1
    21    21    22    1
    22    21    23    2
    23    11    24    1
    24    24    25    1
    25    24    26    2
    26     9     3   ar
    27    20    12   ar
    28    13     8   ar
    29    18    14    1
    30     1    27    1
    31     1    28    1
    32     1    29    1
    33     5    30    1
    34     6    31    1
    35     7    32    1
    36    10    33    1
    37    17    34    1
    38    17    35    1
    39    19    36    1
    40    22    37    1
