
     RDKit          3D

 42 44  0  0  0  0  0  0  0  0999 V2000
    8.7906   -0.2837   -0.0435 C   0  0  0  0  0  0  0  0  0  0  0  0
    7.5537   -0.9454    0.1206 O   0  0  0  0  0  0  0  0  0  0  0  0
    6.3842   -0.1651    0.0120 C   0  0  0  0  0  0  0  0  0  0  0  0
    6.4569    1.1853   -0.2437 C   0  0  0  0  0  0  0  0  0  0  0  0
    5.3187    1.9426   -0.3490 C   0  0  0  0  0  0  0  0  0  0  0  0
    4.0946    1.3314   -0.1947 C   0  0  0  0  0  0  0  0  0  0  0  0
    2.8051    1.7527   -0.2321 N   0  0  0  0  0  0  0  0  0  0  0  0
    1.9901    0.7080   -0.0096 C   0  0  0  0  0  0  0  0  0  0  0  0
    0.2134    0.8549    0.0204 S   0  0  0  0  0  0  0  0  0  0  0  0
   -0.5716   -0.7493    0.3468 C   0  0  0  0  0  0  0  0  0  0  0  0
   -2.0299   -0.5364    0.3540 C   0  0  0  0  0  0  0  0  0  0  0  0
   -2.7477   -0.6557   -0.8085 C   0  0  0  0  0  0  0  0  0  0  0  0
   -4.1326   -0.4496   -0.7815 C   0  0  0  0  0  0  0  0  0  0  0  0
   -4.7939   -0.1251    0.4074 C   0  0  0  0  0  0  0  0  0  0  0  0
   -6.2602    0.0907    0.4225 C   0  0  0  0  0  0  0  0  0  0  0  0
   -6.6767    1.1757   -0.5490 C   0  0  0  0  0  0  0  0  0  0  0  0
   -6.9127   -1.2001   -0.0618 C   0  0  0  0  0  0  0  0  0  0  0  0
   -4.0544   -0.0111    1.5587 C   0  0  0  0  0  0  0  0  0  0  0  0
   -2.6761   -0.2192    1.5166 C   0  0  0  0  0  0  0  0  0  0  0  0
    2.7345   -0.3867    0.1717 N   0  0  0  0  0  0  0  0  0  0  0  0
    4.0193   -0.0356    0.0642 C   0  0  0  0  0  0  0  0  0  0  0  0
    5.1518   -0.7763    0.1666 C   0  0  0  0  0  0  0  0  0  0  0  0
    9.6270   -0.9969    0.1025 H   0  0  0  0  0  0  0  0  0  0  0  0
    8.9357    0.5284    0.7194 H   0  0  0  0  0  0  0  0  0  0  0  0
    8.8611    0.2351   -1.0300 H   0  0  0  0  0  0  0  0  0  0  0  0
    7.4334    1.6488   -0.3623 H   0  0  0  0  0  0  0  0  0  0  0  0
    5.3200    3.0072   -0.5489 H   0  0  0  0  0  0  0  0  0  0  0  0
   -0.2555   -1.5058   -0.4098 H   0  0  0  0  0  0  0  0  0  0  0  0
   -0.2870   -1.1005    1.3812 H   0  0  0  0  0  0  0  0  0  0  0  0
   -2.2777   -0.9057   -1.7544 H   0  0  0  0  0  0  0  0  0  0  0  0
   -4.6777   -0.5464   -1.6964 H   0  0  0  0  0  0  0  0  0  0  0  0
   -6.5724    0.3355    1.4581 H   0  0  0  0  0  0  0  0  0  0  0  0
   -6.0457    1.2069   -1.4437 H   0  0  0  0  0  0  0  0  0  0  0  0
   -6.6140    2.1434   -0.0016 H   0  0  0  0  0  0  0  0  0  0  0  0
   -7.7340    1.0519   -0.8615 H   0  0  0  0  0  0  0  0  0  0  0  0
   -7.0418   -1.8679    0.8211 H   0  0  0  0  0  0  0  0  0  0  0  0
   -7.8965   -0.9895   -0.5511 H   0  0  0  0  0  0  0  0  0  0  0  0
   -6.2760   -1.6730   -0.8513 H   0  0  0  0  0  0  0  0  0  0  0  0
   -4.5112    0.2357    2.4981 H   0  0  0  0  0  0  0  0  0  0  0  0
   -2.1122   -0.1229    2.4432 H   0  0  0  0  0  0  0  0  0  0  0  0
    2.3322   -1.3298    0.3616 H   0  0  0  0  0  0  0  0  0  0  0  0
    5.1353   -1.8565    0.3698 H   0  0  0  0  0  0  0  0  0  0  0  0
  1  2  1  0
  2  3  1  0
  3  4  2  0
  4  5  1  0
  5  6  2  0
  6  7  1  0
  7  8  2  0
  8  9  1  0
  9 10  1  0
 10 11  1  0
 11 12  2  0
 12 13  1  0
 13 14  2  0
 14 15  1  0
 15 16  1  0
 15 17  1  0
 14 18  1  0
 18 19  2  0
  8 20  1  0
 20 21  1  0
 21 22  2  0
 22  3  1  0
 21  6  1  0
 19 11  1  0
  1 23  1  0
  1 24  1  0
  1 25  1  0
  4 26  1  0
  5 27  1  0
 10 28  1  0
 10 29  1  0
 12 30  1  0
 13 31  1  0
 15 32  1  0
 16 33  1  0
 16 34  1  0
 16 35  1  0
 17 36  1  0
 17 37  1  0
 17 38  1  0
 18 39  1  0
 19 40  1  0
 20 41  1  0
 22 42  1  0
M  END
$$$$
