@<TRIPOS>MOLECULE
*****
 42 44 0 0 0
SMALL
GASTEIGER

@<TRIPOS>ATOM
      1 C           8.7906   -0.2837   -0.0435 C.3     1  UNL1        0.0788
      2 O           7.5537   -0.9454    0.1206 O.3     1  UNL1       -0.4950
      3 C           6.3842   -0.1651    0.0120 C.ar    1  UNL1        0.1222
      4 C           6.4569    1.1853   -0.2437 C.ar    1  UNL1       -0.0178
      5 C           5.3187    1.9426   -0.3490 C.ar    1  UNL1       -0.0308
      6 C           4.0946    1.3314   -0.1947 C.ar    1  UNL1        0.0902
      7 N           2.8051    1.7527   -0.2321 N.ar    1  UNL1       -0.2220
      8 C           1.9901    0.7080   -0.0096 C.ar    1  UNL1        0.1676
      9 S           0.2134    0.8549    0.0204 S.3     1  UNL1       -0.0832
     10 C          -0.5716   -0.7493    0.3468 C.3     1  UNL1        0.0262
     11 C          -2.0299   -0.5364    0.3540 C.ar    1  UNL1       -0.0371
     12 C          -2.7477   -0.6557   -0.8085 C.ar    1  UNL1       -0.0575
     13 C          -4.1326   -0.4496   -0.7815 C.ar    1  UNL1       -0.0580
     14 C          -4.7939   -0.1251    0.4074 C.ar    1  UNL1       -0.0448
     15 C          -6.2602    0.0907    0.4225 C.3     1  UNL1       -0.0215
     16 C          -6.6767    1.1757   -0.5490 C.3     1  UNL1       -0.0587
     17 C          -6.9127   -1.2001   -0.0618 C.3     1  UNL1       -0.0587
     18 C          -4.0544   -0.0111    1.5587 C.ar    1  UNL1       -0.0580
     19 C          -2.6761   -0.2192    1.5166 C.ar    1  UNL1       -0.0575
     20 N           2.7345   -0.3867    0.1717 N.ar    1  UNL1       -0.3328
     21 C           4.0193   -0.0356    0.0642 C.ar    1  UNL1        0.0703
     22 C           5.1518   -0.7763    0.1666 C.ar    1  UNL1        0.0055
     23 H           9.6270   -0.9969    0.1025 H       1  UNL1        0.0660
     24 H           8.9357    0.5284    0.7194 H       1  UNL1        0.0660
     25 H           8.8611    0.2351   -1.0300 H       1  UNL1        0.0660
     26 H           7.4334    1.6488   -0.3623 H       1  UNL1        0.0655
     27 H           5.3200    3.0072   -0.5489 H       1  UNL1        0.0641
     28 H          -0.2555   -1.5058   -0.4098 H       1  UNL1        0.0429
     29 H          -0.2870   -1.1005    1.3812 H       1  UNL1        0.0429
     30 H          -2.2777   -0.9057   -1.7544 H       1  UNL1        0.0621
     31 H          -4.6777   -0.5464   -1.6964 H       1  UNL1        0.0620
     32 H          -6.5724    0.3355    1.4581 H       1  UNL1        0.0343
     33 H          -6.0457    1.2069   -1.4437 H       1  UNL1        0.0235
     34 H          -6.6140    2.1434   -0.0016 H       1  UNL1        0.0235
     35 H          -7.7340    1.0519   -0.8615 H       1  UNL1        0.0235
     36 H          -7.0418   -1.8679    0.8211 H       1  UNL1        0.0235
     37 H          -7.8965   -0.9895   -0.5511 H       1  UNL1        0.0235
     38 H          -6.2760   -1.6730   -0.8513 H       1  UNL1        0.0235
     39 H          -4.5112    0.2357    2.4981 H       1  UNL1        0.0620
     40 H          -2.1122   -0.1229    2.4432 H       1  UNL1        0.0621
     41 H           2.3322   -1.3298    0.3616 H       1  UNL1        0.1679
     42 H           5.1353   -1.8565    0.3698 H       1  UNL1        0.0675
@<TRIPOS>BOND
     1     1     2    1
     2     2     3    1
     3     3     4   ar
     4     4     5   ar
     5     5     6   ar
     6     6     7   ar
     7     7     8   ar
     8     8     9    1
     9     9    10    1
    10    10    11    1
    11    11    12   ar
    12    12    13   ar
    13    13    14   ar
    14    14    15    1
    15    15    16    1
    16    15    17    1
    17    14    18   ar
    18    18    19   ar
    19     8    20   ar
    20    20    21   ar
    21    21    22   ar
    22    22     3   ar
    23    21     6   ar
    24    19    11   ar
    25     1    23    1
    26     1    24    1
    27     1    25    1
    28     4    26    1
    29     5    27    1
    30    10    28    1
    31    10    29    1
    32    12    30    1
    33    13    31    1
    34    15    32    1
    35    16    33    1
    36    16    34    1
    37    16    35    1
    38    17    36    1
    39    17    37    1
    40    17    38    1
    41    18    39    1
    42    19    40    1
    43    20    41    1
    44    22    42    1
