@<TRIPOS>MOLECULE
*****
 56 58 0 0 0
SMALL
GASTEIGER

@<TRIPOS>ATOM
      1 C          -5.1185    6.1868   -1.0677 C.3     1  UNL1       -0.0319
      2 C          -4.0266    5.2741   -0.7649 C.ar    1  UNL1        0.0068
      3 C          -2.6699    5.4551   -0.5775 C.ar    1  UNL1        0.0383
      4 N          -1.9237    4.4505   -0.3167 N.ar    1  UNL1       -0.2471
      5 C          -2.4382    3.2201   -0.2219 C.ar    1  UNL1        0.1086
      6 C          -1.7249    1.9746    0.0680 C.ar    1  UNL1        0.0113
      7 C          -2.3610    0.7730    0.1395 C.ar    1  UNL1       -0.0102
      8 C          -1.6329   -0.3655    0.4166 C.ar    1  UNL1        0.1224
      9 O          -2.2180   -1.6086    0.5020 O.3     1  UNL1       -0.4865
     10 C          -3.5553   -1.9179    0.3358 C.3     1  UNL1        0.1228
     11 C          -4.0437   -2.5884    1.6277 C.3     1  UNL1       -0.0253
     12 C          -3.7496   -2.9653   -0.7470 C.3     1  UNL1        0.0889
     13 C          -5.2091   -3.3273   -0.8981 C.3     1  UNL1       -0.0355
     14 O          -3.0694   -4.1473   -0.4156 O.3     1  UNL1       -0.3884
     15 C          -0.2465   -0.2908    0.6240 C.ar    1  UNL1       -0.0078
     16 C           0.3932    0.9226    0.5514 C.ar    1  UNL1        0.0408
     17 C           1.8436    1.0512    0.7613 C.2     1  UNL1        0.2447
     18 O           2.3369    2.2012    0.6746 O.2     1  UNL1       -0.2702
     19 N           2.7025   -0.0146    1.0488 N.am    1  UNL1       -0.3047
     20 C           4.1330    0.1110    1.2559 C.3     1  UNL1        0.0487
     21 C           4.5447   -0.2548    2.6503 C.3     1  UNL1       -0.0423
     22 C           4.9200   -0.6067    0.2549 C.ar    1  UNL1        0.0087
     23 C           6.0168   -0.0164   -0.3358 C.ar    1  UNL1        0.0363
     24 N           6.7357   -0.6841   -1.2563 N.ar    1  UNL1       -0.2321
     25 C           6.4087   -1.9462   -1.6292 C.ar    1  UNL1        0.2339
     26 C           7.2206   -2.6602   -2.6485 C.3     1  UNL1        0.4522
     27 F           7.0225   -4.0183   -2.5169 F       1  UNL1       -0.1632
     28 F           6.7765   -2.2377   -3.8853 F       1  UNL1       -0.1632
     29 F           8.5546   -2.3642   -2.4555 F       1  UNL1       -0.1632
     30 N           5.3410   -2.5226   -1.0550 N.ar    1  UNL1       -0.2321
     31 C           4.5902   -1.8902   -0.1266 C.ar    1  UNL1        0.0363
     32 C          -0.3741    2.0325    0.2723 C.ar    1  UNL1       -0.0397
     33 S          -4.1097    3.4777   -0.5215 S.2     1  UNL1       -0.0725
     34 H          -4.7990    6.9103   -1.8739 H       1  UNL1        0.0283
     35 H          -5.3292    6.8147   -0.1777 H       1  UNL1        0.0283
     36 H          -6.0208    5.6571   -1.4013 H       1  UNL1        0.0283
     37 H          -2.2940    6.5162   -0.6699 H       1  UNL1        0.0838
     38 H          -3.4277    0.7816   -0.0295 H       1  UNL1        0.0661
     39 H          -4.1699   -1.0493    0.1150 H       1  UNL1        0.0756
     40 H          -3.9582   -1.8885    2.4747 H       1  UNL1        0.0266
     41 H          -5.0596   -2.9824    1.4921 H       1  UNL1        0.0266
     42 H          -3.3538   -3.4318    1.8364 H       1  UNL1        0.0266
     43 H          -3.3731   -2.6468   -1.7236 H       1  UNL1        0.0627
     44 H          -5.4946   -4.1153   -0.1609 H       1  UNL1        0.0256
     45 H          -5.8750   -2.4613   -0.6721 H       1  UNL1        0.0256
     46 H          -5.4686   -3.7066   -1.8923 H       1  UNL1        0.0256
     47 H          -3.6826   -4.6444    0.2138 H       1  UNL1        0.2099
     48 H           0.3115   -1.2067    0.8425 H       1  UNL1        0.0662
     49 H           2.3072   -0.9754    1.1238 H       1  UNL1        0.1496
     50 H           4.3482    1.2120    1.1324 H       1  UNL1        0.0546
     51 H           5.4155   -0.9389    2.5808 H       1  UNL1        0.0251
     52 H           3.7569   -0.8209    3.1902 H       1  UNL1        0.0251
     53 H           4.9000    0.6241    3.2338 H       1  UNL1        0.0251
     54 H           6.3296    1.0062   -0.0724 H       1  UNL1        0.0834
     55 H           3.7269   -2.3401    0.3459 H       1  UNL1        0.0834
     56 H           0.1410    2.9829    0.2176 H       1  UNL1        0.0632
@<TRIPOS>BOND
     1     1     2    1
     2     2     3   ar
     3     3     4   ar
     4     4     5   ar
     5     5     6    1
     6     6     7   ar
     7     7     8   ar
     8     8     9    1
     9     9    10    1
    10    10    11    1
    11    10    12    1
    12    12    13    1
    13    12    14    1
    14     8    15   ar
    15    15    16   ar
    16    16    17    1
    17    17    18    2
    18    17    19   am
    19    19    20    1
    20    20    21    1
    21    20    22    1
    22    22    23   ar
    23    23    24   ar
    24    24    25   ar
    25    25    26    1
    26    26    27    1
    27    26    28    1
    28    26    29    1
    29    25    30   ar
    30    30    31   ar
    31    16    32   ar
    32     5    33   ar
    33    33     2   ar
    34    32     6   ar
    35    31    22   ar
    36     1    34    1
    37     1    35    1
    38     1    36    1
    39     3    37    1
    40     7    38    1
    41    10    39    1
    42    11    40    1
    43    11    41    1
    44    11    42    1
    45    12    43    1
    46    13    44    1
    47    13    45    1
    48    13    46    1
    49    14    47    1
    50    15    48    1
    51    19    49    1
    52    20    50    1
    53    21    51    1
    54    21    52    1
    55    21    53    1
    56    23    54    1
    57    31    55    1
    58    32    56    1
