
     RDKit          3D

 56 58  0  0  0  0  0  0  0  0999 V2000
   -5.1185    6.1868   -1.0677 C   0  0  0  0  0  0  0  0  0  0  0  0
   -4.0266    5.2741   -0.7649 C   0  0  0  0  0  0  0  0  0  0  0  0
   -2.6699    5.4551   -0.5775 C   0  0  0  0  0  0  0  0  0  0  0  0
   -1.9237    4.4505   -0.3167 N   0  0  0  0  0  0  0  0  0  0  0  0
   -2.4382    3.2201   -0.2219 C   0  0  0  0  0  0  0  0  0  0  0  0
   -1.7249    1.9746    0.0680 C   0  0  0  0  0  0  0  0  0  0  0  0
   -2.3610    0.7730    0.1395 C   0  0  0  0  0  0  0  0  0  0  0  0
   -1.6329   -0.3655    0.4166 C   0  0  0  0  0  0  0  0  0  0  0  0
   -2.2180   -1.6086    0.5020 O   0  0  0  0  0  0  0  0  0  0  0  0
   -3.5553   -1.9179    0.3358 C   0  0  0  0  0  0  0  0  0  0  0  0
   -4.0437   -2.5884    1.6277 C   0  0  0  0  0  0  0  0  0  0  0  0
   -3.7496   -2.9653   -0.7470 C   0  0  0  0  0  0  0  0  0  0  0  0
   -5.2091   -3.3273   -0.8981 C   0  0  0  0  0  0  0  0  0  0  0  0
   -3.0694   -4.1473   -0.4156 O   0  0  0  0  0  0  0  0  0  0  0  0
   -0.2465   -0.2908    0.6240 C   0  0  0  0  0  0  0  0  0  0  0  0
    0.3932    0.9226    0.5514 C   0  0  0  0  0  0  0  0  0  0  0  0
    1.8436    1.0512    0.7613 C   0  0  0  0  0  0  0  0  0  0  0  0
    2.3369    2.2012    0.6746 O   0  0  0  0  0  0  0  0  0  0  0  0
    2.7025   -0.0146    1.0488 N   0  0  0  0  0  0  0  0  0  0  0  0
    4.1330    0.1110    1.2559 C   0  0  1  0  0  0  0  0  0  0  0  0
    4.5447   -0.2548    2.6503 C   0  0  0  0  0  0  0  0  0  0  0  0
    4.9200   -0.6067    0.2549 C   0  0  0  0  0  0  0  0  0  0  0  0
    6.0168   -0.0164   -0.3358 C   0  0  0  0  0  0  0  0  0  0  0  0
    6.7357   -0.6841   -1.2563 N   0  0  0  0  0  0  0  0  0  0  0  0
    6.4087   -1.9462   -1.6292 C   0  0  0  0  0  0  0  0  0  0  0  0
    7.2206   -2.6602   -2.6485 C   0  0  0  0  0  0  0  0  0  0  0  0
    7.0225   -4.0183   -2.5169 F   0  0  0  0  0  0  0  0  0  0  0  0
    6.7765   -2.2377   -3.8853 F   0  0  0  0  0  0  0  0  0  0  0  0
    8.5546   -2.3642   -2.4555 F   0  0  0  0  0  0  0  0  0  0  0  0
    5.3410   -2.5226   -1.0550 N   0  0  0  0  0  0  0  0  0  0  0  0
    4.5902   -1.8902   -0.1266 C   0  0  0  0  0  0  0  0  0  0  0  0
   -0.3741    2.0325    0.2723 C   0  0  0  0  0  0  0  0  0  0  0  0
   -4.1097    3.4777   -0.5215 S   0  0  0  0  0  0  0  0  0  0  0  0
   -4.7990    6.9103   -1.8739 H   0  0  0  0  0  0  0  0  0  0  0  0
   -5.3292    6.8147   -0.1777 H   0  0  0  0  0  0  0  0  0  0  0  0
   -6.0208    5.6571   -1.4013 H   0  0  0  0  0  0  0  0  0  0  0  0
   -2.2940    6.5162   -0.6699 H   0  0  0  0  0  0  0  0  0  0  0  0
   -3.4277    0.7816   -0.0295 H   0  0  0  0  0  0  0  0  0  0  0  0
   -4.1699   -1.0493    0.1150 H   0  0  0  0  0  0  0  0  0  0  0  0
   -3.9582   -1.8885    2.4747 H   0  0  0  0  0  0  0  0  0  0  0  0
   -5.0596   -2.9824    1.4921 H   0  0  0  0  0  0  0  0  0  0  0  0
   -3.3538   -3.4318    1.8364 H   0  0  0  0  0  0  0  0  0  0  0  0
   -3.3731   -2.6468   -1.7236 H   0  0  0  0  0  0  0  0  0  0  0  0
   -5.4946   -4.1153   -0.1609 H   0  0  0  0  0  0  0  0  0  0  0  0
   -5.8750   -2.4613   -0.6721 H   0  0  0  0  0  0  0  0  0  0  0  0
   -5.4686   -3.7066   -1.8923 H   0  0  0  0  0  0  0  0  0  0  0  0
   -3.6826   -4.6444    0.2138 H   0  0  0  0  0  0  0  0  0  0  0  0
    0.3115   -1.2067    0.8425 H   0  0  0  0  0  0  0  0  0  0  0  0
    2.3072   -0.9754    1.1238 H   0  0  0  0  0  0  0  0  0  0  0  0
    4.3482    1.2120    1.1324 H   0  0  0  0  0  0  0  0  0  0  0  0
    5.4155   -0.9389    2.5808 H   0  0  0  0  0  0  0  0  0  0  0  0
    3.7569   -0.8209    3.1902 H   0  0  0  0  0  0  0  0  0  0  0  0
    4.9000    0.6241    3.2338 H   0  0  0  0  0  0  0  0  0  0  0  0
    6.3296    1.0062   -0.0724 H   0  0  0  0  0  0  0  0  0  0  0  0
    3.7269   -2.3401    0.3459 H   0  0  0  0  0  0  0  0  0  0  0  0
    0.1410    2.9829    0.2176 H   0  0  0  0  0  0  0  0  0  0  0  0
  1  2  1  0
  2  3  2  0
  3  4  1  0
  4  5  2  0
  5  6  1  0
  6  7  2  0
  7  8  1  0
  8  9  1  0
  9 10  1  0
 10 11  1  0
 10 12  1  0
 12 13  1  0
 12 14  1  0
  8 15  2  0
 15 16  1  0
 16 17  1  0
 17 18  2  0
 17 19  1  0
 19 20  1  0
 20 21  1  0
 20 22  1  0
 22 23  2  0
 23 24  1  0
 24 25  2  0
 25 26  1  0
 26 27  1  0
 26 28  1  0
 26 29  1  0
 25 30  1  0
 30 31  2  0
 16 32  2  0
  5 33  1  0
 33  2  1  0
 32  6  1  0
 31 22  1  0
  1 34  1  0
  1 35  1  0
  1 36  1  0
  3 37  1  0
  7 38  1  0
 10 39  1  0
 11 40  1  0
 11 41  1  0
 11 42  1  0
 12 43  1  0
 13 44  1  0
 13 45  1  0
 13 46  1  0
 14 47  1  0
 15 48  1  0
 19 49  1  0
 20 50  1  6
 21 51  1  0
 21 52  1  0
 21 53  1  0
 23 54  1  0
 31 55  1  0
 32 56  1  0
M  END
$$$$
