
     RDKit          3D

 56 60  0  0  0  0  0  0  0  0999 V2000
   -3.9630    3.4396    3.7422 C   0  0  0  0  0  0  0  0  0  0  0  0
   -2.7956    2.5578    3.5521 C   0  0  0  0  0  0  0  0  0  0  0  0
   -1.8029    2.7471    4.2828 O   0  0  0  0  0  0  0  0  0  0  0  0
   -2.8596    1.5477    2.5570 N   0  0  0  0  0  0  0  0  0  0  0  0
   -4.0317    1.3725    1.7410 C   0  0  0  0  0  0  0  0  0  0  0  0
   -4.1663   -0.0875    1.3716 C   0  0  0  0  0  0  0  0  0  0  0  0
   -2.9522   -0.4616    0.5988 C   0  0  0  0  0  0  0  0  0  0  0  0
   -1.7559   -0.0563    1.1427 C   0  0  0  0  0  0  0  0  0  0  0  0
   -0.7255   -0.4895    0.2921 C   0  0  0  0  0  0  0  0  0  0  0  0
    0.6441   -0.2568    0.5248 N   0  0  0  0  0  0  0  0  0  0  0  0
    1.6902   -0.6938   -0.3301 C   0  0  0  0  0  0  0  0  0  0  0  0
    1.4981   -1.4002   -1.4943 C   0  0  0  0  0  0  0  0  0  0  0  0
    2.5705   -1.7915   -2.2748 C   0  0  0  0  0  0  0  0  0  0  0  0
    3.8571   -1.4826   -1.9039 C   0  0  0  0  0  0  0  0  0  0  0  0
    4.9412   -1.8530   -2.6505 F   0  0  0  0  0  0  0  0  0  0  0  0
    4.1042   -0.7734   -0.7413 C   0  0  0  0  0  0  0  0  0  0  0  0
    5.4724   -0.4349   -0.3297 C   0  0  0  0  0  0  0  0  0  0  0  0
    6.3026   -1.1924    0.4653 C   0  0  0  0  0  0  0  0  0  0  0  0
    7.4732   -0.5093    0.5941 N   0  0  0  0  0  0  0  0  0  0  0  0
    7.4163    0.6337   -0.0787 N   0  0  0  0  0  0  0  0  0  0  0  0
    8.4370    1.6591   -0.2102 C   0  0  0  0  0  0  0  0  0  0  0  0
    6.1978    0.6914   -0.6483 C   0  0  0  0  0  0  0  0  0  0  0  0
    3.0221   -0.4023    0.0062 C   0  0  0  0  0  0  0  0  0  0  0  0
    3.2593    0.2941    1.1488 F   0  0  0  0  0  0  0  0  0  0  0  0
   -1.3775   -1.1146   -0.6861 N   0  0  0  0  0  0  0  0  0  0  0  0
   -2.6797   -1.1061   -0.5199 N   0  0  0  0  0  0  0  0  0  0  0  0
   -3.6386   -1.6911   -1.3955 C   0  0  0  0  0  0  0  0  0  0  0  0
   -4.3797   -0.7125   -2.2530 C   0  0  0  0  0  0  0  0  0  0  0  0
   -3.7263   -0.8997   -3.6018 C   0  0  0  0  0  0  0  0  0  0  0  0
   -3.2038   -2.1597   -3.6386 O   0  0  0  0  0  0  0  0  0  0  0  0
   -2.9534   -2.5916   -2.3613 C   0  0  0  0  0  0  0  0  0  0  0  0
   -1.6717    0.7013    2.4106 C   0  0  0  0  0  0  0  0  0  0  0  0
   -3.7034    4.4043    4.2423 H   0  0  0  0  0  0  0  0  0  0  0  0
   -4.7145    2.9390    4.3652 H   0  0  0  0  0  0  0  0  0  0  0  0
   -4.3419    3.7127    2.7353 H   0  0  0  0  0  0  0  0  0  0  0  0
   -3.9786    1.9407    0.7899 H   0  0  0  0  0  0  0  0  0  0  0  0
   -4.9276    1.7589    2.2749 H   0  0  0  0  0  0  0  0  0  0  0  0
   -5.0975   -0.3153    0.8453 H   0  0  0  0  0  0  0  0  0  0  0  0
   -4.1472   -0.6646    2.3088 H   0  0  0  0  0  0  0  0  0  0  0  0
    0.9528    0.2803    1.3908 H   0  0  0  0  0  0  0  0  0  0  0  0
    0.4747   -1.6568   -1.8073 H   0  0  0  0  0  0  0  0  0  0  0  0
    2.3860   -2.3559   -3.2013 H   0  0  0  0  0  0  0  0  0  0  0  0
    6.0967   -2.1476    0.9158 H   0  0  0  0  0  0  0  0  0  0  0  0
    9.2569    1.5110    0.5084 H   0  0  0  0  0  0  0  0  0  0  0  0
    7.9447    2.6559   -0.1067 H   0  0  0  0  0  0  0  0  0  0  0  0
    8.8860    1.6087   -1.2355 H   0  0  0  0  0  0  0  0  0  0  0  0
    5.8084    1.4845   -1.2693 H   0  0  0  0  0  0  0  0  0  0  0  0
   -4.3767   -2.2570   -0.7701 H   0  0  0  0  0  0  0  0  0  0  0  0
   -5.4374   -1.0335   -2.3373 H   0  0  0  0  0  0  0  0  0  0  0  0
   -4.2650    0.3364   -1.9683 H   0  0  0  0  0  0  0  0  0  0  0  0
   -2.9700   -0.0880   -3.7645 H   0  0  0  0  0  0  0  0  0  0  0  0
   -4.5121   -0.7586   -4.3730 H   0  0  0  0  0  0  0  0  0  0  0  0
   -3.3252   -3.6274   -2.2358 H   0  0  0  0  0  0  0  0  0  0  0  0
   -1.8336   -2.6044   -2.2308 H   0  0  0  0  0  0  0  0  0  0  0  0
   -1.5774    0.0067    3.2739 H   0  0  0  0  0  0  0  0  0  0  0  0
   -0.8011    1.3861    2.3374 H   0  0  0  0  0  0  0  0  0  0  0  0
  1  2  1  0
  2  3  2  0
  2  4  1  0
  4  5  1  0
  5  6  1  0
  6  7  1  0
  7  8  2  0
  8  9  1  0
  9 10  1  0
 10 11  1  0
 11 12  2  0
 12 13  1  0
 13 14  2  0
 14 15  1  0
 14 16  1  0
 16 17  1  0
 17 18  1  0
 18 19  2  0
 19 20  1  0
 20 21  1  0
 20 22  1  0
 16 23  2  0
 23 24  1  0
  9 25  2  0
 25 26  1  0
 26 27  1  0
 27 28  1  0
 28 29  1  0
 29 30  1  0
 30 31  1  0
  8 32  1  0
 32  4  1  0
 26  7  1  0
 31 27  1  0
 23 11  1  0
 22 17  2  0
  1 33  1  0
  1 34  1  0
  1 35  1  0
  5 36  1  0
  5 37  1  0
  6 38  1  0
  6 39  1  0
 10 40  1  0
 12 41  1  0
 13 42  1  0
 18 43  1  0
 21 44  1  0
 21 45  1  0
 21 46  1  0
 22 47  1  0
 27 48  1  0
 28 49  1  0
 28 50  1  0
 29 51  1  0
 29 52  1  0
 31 53  1  0
 31 54  1  0
 32 55  1  0
 32 56  1  0
M  END
$$$$
