@<TRIPOS>MOLECULE
*****
 56 60 0 0 0
SMALL
GASTEIGER

@<TRIPOS>ATOM
      1 C          -3.9630    3.4396    3.7422 C.3     1  UNL1        0.0124
      2 C          -2.7956    2.5578    3.5521 C.2     1  UNL1        0.2128
      3 O          -1.8029    2.7471    4.2828 O.2     1  UNL1       -0.2759
      4 N          -2.8596    1.5477    2.5570 N.am    1  UNL1       -0.2968
      5 C          -4.0317    1.3725    1.7410 C.3     1  UNL1        0.0204
      6 C          -4.1663   -0.0875    1.3716 C.3     1  UNL1        0.0055
      7 C          -2.9522   -0.4616    0.5988 C.ar    1  UNL1        0.0477
      8 C          -1.7559   -0.0563    1.1427 C.ar    1  UNL1        0.0324
      9 C          -0.7255   -0.4895    0.2921 C.ar    1  UNL1        0.1499
     10 N           0.6441   -0.2568    0.5248 N.pl3   1  UNL1       -0.2955
     11 C           1.6902   -0.6938   -0.3301 C.ar    1  UNL1        0.0689
     12 C           1.4981   -1.4002   -1.4943 C.ar    1  UNL1       -0.0349
     13 C           2.5705   -1.7915   -2.2748 C.ar    1  UNL1       -0.0239
     14 C           3.8571   -1.4826   -1.9039 C.ar    1  UNL1        0.1340
     15 F           4.9412   -1.8530   -2.6505 F       1  UNL1       -0.2048
     16 C           4.1042   -0.7734   -0.7413 C.ar    1  UNL1        0.0572
     17 C           5.4724   -0.4349   -0.3297 C.ar    1  UNL1        0.0251
     18 C           6.3026   -1.1924    0.4653 C.ar    1  UNL1        0.0572
     19 N           7.4732   -0.5093    0.5941 N.ar    1  UNL1       -0.1793
     20 N           7.4163    0.6337   -0.0787 N.ar    1  UNL1       -0.2739
     21 C           8.4370    1.6591   -0.2102 C.3     1  UNL1        0.0302
     22 C           6.1978    0.6914   -0.6483 C.ar    1  UNL1        0.0331
     23 C           3.0221   -0.4023    0.0062 C.ar    1  UNL1        0.1550
     24 F           3.2593    0.2941    1.1488 F       1  UNL1       -0.2028
     25 N          -1.3775   -1.1146   -0.6861 N.ar    1  UNL1       -0.1551
     26 N          -2.6797   -1.1061   -0.5199 N.ar    1  UNL1       -0.2608
     27 C          -3.6386   -1.6911   -1.3955 C.3     1  UNL1        0.0784
     28 C          -4.3797   -0.7125   -2.2530 C.3     1  UNL1       -0.0048
     29 C          -3.7263   -0.8997   -3.6018 C.3     1  UNL1        0.0498
     30 O          -3.2038   -2.1597   -3.6386 O.3     1  UNL1       -0.3776
     31 C          -2.9534   -2.5916   -2.3613 C.3     1  UNL1        0.0701
     32 C          -1.6717    0.7013    2.4106 C.3     1  UNL1        0.0447
     33 H          -3.7034    4.4043    4.2423 H       1  UNL1        0.0323
     34 H          -4.7145    2.9390    4.3652 H       1  UNL1        0.0323
     35 H          -4.3419    3.7127    2.7353 H       1  UNL1        0.0323
     36 H          -3.9786    1.9407    0.7899 H       1  UNL1        0.0468
     37 H          -4.9276    1.7589    2.2749 H       1  UNL1        0.0468
     38 H          -5.0975   -0.3153    0.8453 H       1  UNL1        0.0343
     39 H          -4.1472   -0.6646    2.3088 H       1  UNL1        0.0343
     40 H           0.9528    0.2803    1.3908 H       1  UNL1        0.1537
     41 H           0.4747   -1.6568   -1.8073 H       1  UNL1        0.0638
     42 H           2.3860   -2.3559   -3.2013 H       1  UNL1        0.0647
     43 H           6.0967   -2.1476    0.9158 H       1  UNL1        0.0854
     44 H           9.2569    1.5110    0.5084 H       1  UNL1        0.0473
     45 H           7.9447    2.6559   -0.1067 H       1  UNL1        0.0473
     46 H           8.8860    1.6087   -1.2355 H       1  UNL1        0.0473
     47 H           5.8084    1.4845   -1.2693 H       1  UNL1        0.0832
     48 H          -4.3767   -2.2570   -0.7701 H       1  UNL1        0.0568
     49 H          -5.4374   -1.0335   -2.3373 H       1  UNL1        0.0309
     50 H          -4.2650    0.3364   -1.9683 H       1  UNL1        0.0309
     51 H          -2.9700   -0.0880   -3.7645 H       1  UNL1        0.0560
     52 H          -4.5121   -0.7586   -4.3730 H       1  UNL1        0.0560
     53 H          -3.3252   -3.6274   -2.2358 H       1  UNL1        0.0581
     54 H          -1.8336   -2.6044   -2.2308 H       1  UNL1        0.0581
     55 H          -1.5774    0.0067    3.2739 H       1  UNL1        0.0515
     56 H          -0.8011    1.3861    2.3374 H       1  UNL1        0.0515
@<TRIPOS>BOND
     1     1     2    1
     2     2     3    2
     3     2     4   am
     4     4     5    1
     5     5     6    1
     6     6     7    1
     7     7     8   ar
     8     8     9   ar
     9     9    10    1
    10    10    11    1
    11    11    12   ar
    12    12    13   ar
    13    13    14   ar
    14    14    15    1
    15    14    16   ar
    16    16    17    1
    17    17    18   ar
    18    18    19   ar
    19    19    20   ar
    20    20    21    1
    21    20    22   ar
    22    16    23   ar
    23    23    24    1
    24     9    25   ar
    25    25    26   ar
    26    26    27    1
    27    27    28    1
    28    28    29    1
    29    29    30    1
    30    30    31    1
    31     8    32    1
    32    32     4    1
    33    26     7   ar
    34    31    27    1
    35    23    11   ar
    36    22    17   ar
    37     1    33    1
    38     1    34    1
    39     1    35    1
    40     5    36    1
    41     5    37    1
    42     6    38    1
    43     6    39    1
    44    10    40    1
    45    12    41    1
    46    13    42    1
    47    18    43    1
    48    21    44    1
    49    21    45    1
    50    21    46    1
    51    22    47    1
    52    27    48    1
    53    28    49    1
    54    28    50    1
    55    29    51    1
    56    29    52    1
    57    31    53    1
    58    31    54    1
    59    32    55    1
    60    32    56    1
