
     RDKit          3D

 61 65  0  0  0  0  0  0  0  0999 V2000
   -7.6386    5.6248   -0.5009 O   0  0  0  0  0  0  0  0  0  0  0  0
   -6.9220    4.4607   -0.3402 C   0  0  0  0  0  0  0  0  0  0  0  0
   -5.5785    4.4238   -0.6523 C   0  0  0  0  0  0  0  0  0  0  0  0
   -4.9457    3.2207   -0.4609 C   0  0  0  0  0  0  0  0  0  0  0  0
   -5.4899    2.0469    0.0034 C   0  0  0  0  0  0  0  0  0  0  0  0
   -6.8509    2.1992    0.2883 C   0  0  0  0  0  0  0  0  0  0  0  0
   -7.5738    3.3560    0.1321 C   0  0  0  0  0  0  0  0  0  0  0  0
   -4.8299    0.7673    0.1463 C   0  0  0  0  0  0  0  0  0  0  0  0
   -3.7003    0.1969   -0.2704 C   0  0  0  0  0  0  0  0  0  0  0  0
   -2.7610    0.8505   -1.2125 C   0  0  0  0  0  0  0  0  0  0  0  0
   -3.0222    1.4991   -2.2575 O   0  0  0  0  0  0  0  0  0  0  0  0
   -1.3086    0.8522   -1.0693 C   0  0  0  0  0  0  0  0  0  0  0  0
   -0.8229    0.7197    0.2230 C   0  0  0  0  0  0  0  0  0  0  0  0
    0.5147    0.6920    0.5624 C   0  0  0  0  0  0  0  0  0  0  0  0
    1.4467    0.8031   -0.4442 C   0  0  0  0  0  0  0  0  0  0  0  0
    2.8079    0.7922   -0.2513 O   0  0  0  0  0  0  0  0  0  0  0  0
    3.4050    0.6640    1.0216 C   0  0  0  0  0  0  0  0  0  0  0  0
    4.9050    0.6835    0.9592 C   0  0  0  0  0  0  0  0  0  0  0  0
    5.4930   -0.3579    0.1762 N   0  0  0  0  0  0  0  0  0  0  0  0
    6.9501   -0.1459    0.2196 C   0  0  0  0  0  0  0  0  0  0  0  0
    7.5404   -0.8512   -0.9824 C   0  0  0  0  0  0  0  0  0  0  0  0
    6.8784   -2.1904   -1.1301 C   0  0  0  0  0  0  0  0  0  0  0  0
    6.2931   -2.6763    0.2023 C   0  0  0  0  0  0  0  0  0  0  0  0
    5.2961   -1.6756    0.7575 C   0  0  0  0  0  0  0  0  0  0  0  0
    0.9764    0.9363   -1.7387 C   0  0  0  0  0  0  0  0  0  0  0  0
   -0.3530    0.9585   -2.0270 C   0  0  0  0  0  0  0  0  0  0  0  0
   -3.4587   -1.0999    0.1056 C   0  0  0  0  0  0  0  0  0  0  0  0
   -4.3757   -1.7490    0.8836 C   0  0  0  0  0  0  0  0  0  0  0  0
   -5.6540   -0.4793    1.1057 S   0  0  0  0  0  0  0  0  0  0  0  0
   -4.4063   -3.0417    1.3948 C   0  0  0  0  0  0  0  0  0  0  0  0
   -3.3257   -3.8209    1.0652 C   0  0  0  0  0  0  0  0  0  0  0  0
   -3.3610   -5.1063    1.5770 O   0  0  0  0  0  0  0  0  0  0  0  0
   -2.3634   -3.2497    0.2879 C   0  0  0  0  0  0  0  0  0  0  0  0
   -2.4210   -1.9721   -0.1664 C   0  0  0  0  0  0  0  0  0  0  0  0
   -7.5477    6.2680   -1.2818 H   0  0  0  0  0  0  0  0  0  0  0  0
   -5.0814    5.3059   -1.0243 H   0  0  0  0  0  0  0  0  0  0  0  0
   -3.9073    3.2562   -0.6804 H   0  0  0  0  0  0  0  0  0  0  0  0
   -7.4447    1.3597    0.6714 H   0  0  0  0  0  0  0  0  0  0  0  0
   -8.6257    3.4161    0.3685 H   0  0  0  0  0  0  0  0  0  0  0  0
   -1.4990    0.6283    1.0633 H   0  0  0  0  0  0  0  0  0  0  0  0
    0.8524    0.5863    1.5799 H   0  0  0  0  0  0  0  0  0  0  0  0
    3.1065    1.5551    1.6137 H   0  0  0  0  0  0  0  0  0  0  0  0
    3.0527   -0.2265    1.5547 H   0  0  0  0  0  0  0  0  0  0  0  0
    5.2055    1.6953    0.6498 H   0  0  0  0  0  0  0  0  0  0  0  0
    5.2417    0.5385    2.0264 H   0  0  0  0  0  0  0  0  0  0  0  0
    7.3226   -0.6171    1.1333 H   0  0  0  0  0  0  0  0  0  0  0  0
    7.1988    0.9215    0.1870 H   0  0  0  0  0  0  0  0  0  0  0  0
    8.6258   -0.9509   -0.8181 H   0  0  0  0  0  0  0  0  0  0  0  0
    7.3794   -0.2157   -1.8823 H   0  0  0  0  0  0  0  0  0  0  0  0
    7.6708   -2.9429   -1.3849 H   0  0  0  0  0  0  0  0  0  0  0  0
    6.0630   -2.2181   -1.8638 H   0  0  0  0  0  0  0  0  0  0  0  0
    5.7933   -3.6516   -0.0141 H   0  0  0  0  0  0  0  0  0  0  0  0
    7.1310   -2.8859    0.8847 H   0  0  0  0  0  0  0  0  0  0  0  0
    4.2555   -2.0282    0.6509 H   0  0  0  0  0  0  0  0  0  0  0  0
    5.4782   -1.5492    1.8659 H   0  0  0  0  0  0  0  0  0  0  0  0
    1.6466    1.0304   -2.5964 H   0  0  0  0  0  0  0  0  0  0  0  0
   -0.7488    1.0634   -3.0503 H   0  0  0  0  0  0  0  0  0  0  0  0
   -5.2528   -3.3350    1.9976 H   0  0  0  0  0  0  0  0  0  0  0  0
   -4.1692   -5.7194    1.4710 H   0  0  0  0  0  0  0  0  0  0  0  0
   -1.5226   -3.9225    0.0563 H   0  0  0  0  0  0  0  0  0  0  0  0
   -1.5683   -1.7280   -0.7853 H   0  0  0  0  0  0  0  0  0  0  0  0
  1  2  1  0
  2  3  2  0
  3  4  1  0
  4  5  2  0
  5  6  1  0
  6  7  2  0
  5  8  1  0
  8  9  2  0
  9 10  1  0
 10 11  2  0
 10 12  1  0
 12 13  2  0
 13 14  1  0
 14 15  2  0
 15 16  1  0
 16 17  1  0
 17 18  1  0
 18 19  1  0
 19 20  1  0
 20 21  1  0
 21 22  1  0
 22 23  1  0
 23 24  1  0
 15 25  1  0
 25 26  2  0
  9 27  1  0
 27 28  2  0
 28 29  1  0
 28 30  1  0
 30 31  2  0
 31 32  1  0
 31 33  1  0
 33 34  2  0
  7  2  1  0
 29  8  1  0
 26 12  1  0
 34 27  1  0
 24 19  1  0
  1 35  1  0
  3 36  1  0
  4 37  1  0
  6 38  1  0
  7 39  1  0
 13 40  1  0
 14 41  1  0
 17 42  1  0
 17 43  1  0
 18 44  1  0
 18 45  1  0
 20 46  1  0
 20 47  1  0
 21 48  1  0
 21 49  1  0
 22 50  1  0
 22 51  1  0
 23 52  1  0
 23 53  1  0
 24 54  1  0
 24 55  1  0
 25 56  1  0
 26 57  1  0
 30 58  1  0
 32 59  1  0
 33 60  1  0
 34 61  1  0
M  END
$$$$
