@<TRIPOS>MOLECULE
*****
 49 51 0 0 0
SMALL
GASTEIGER

@<TRIPOS>ATOM
      1 C           4.3249   -2.0101    1.4136 C.3     1  UNL1       -0.0157
      2 N           3.9204   -2.3027    0.0549 N.3     1  UNL1       -0.3165
      3 C           3.2594   -1.1371   -0.5019 C.3     1  UNL1        0.0237
      4 C           1.9444   -0.9402    0.2088 C.3     1  UNL1        0.0901
      5 O           2.0329   -0.7366    1.5634 O.3     1  UNL1       -0.3884
      6 C           0.9440   -0.1286   -0.5246 C.3     1  UNL1        0.0759
      7 C           1.1380    1.3301   -0.5325 C.ar    1  UNL1       -0.0219
      8 C           2.1575    2.0341    0.0178 C.ar    1  UNL1       -0.0565
      9 C           2.2540    3.4185   -0.0539 C.ar    1  UNL1       -0.0587
     10 C           1.2828    4.1241   -0.7068 C.ar    1  UNL1       -0.0264
     11 C           0.2403    3.4389   -1.2723 C.ar    1  UNL1        0.1237
     12 F          -0.7062    4.1819   -1.9134 F       1  UNL1       -0.2055
     13 C           0.1552    2.0654   -1.1950 C.ar    1  UNL1       -0.0214
     14 N          -0.4089   -0.4237   -0.0471 N.pl3   1  UNL1       -0.3170
     15 C          -0.9219   -0.2513    1.2953 C.3     1  UNL1        0.0222
     16 C          -2.3928    0.0538    1.0865 C.3     1  UNL1        0.0076
     17 C          -3.2303   -0.5166    2.2117 C.3     1  UNL1       -0.0543
     18 C          -2.5948    1.5301    0.9068 C.3     1  UNL1       -0.0543
     19 C          -2.6927   -0.6758   -0.1695 C.ar    1  UNL1       -0.0164
     20 C          -3.9104   -1.0620   -0.6834 C.ar    1  UNL1       -0.0561
     21 C          -3.9814   -1.7444   -1.8904 C.ar    1  UNL1       -0.0587
     22 C          -2.7951   -2.0155   -2.5446 C.ar    1  UNL1       -0.0246
     23 C          -1.5666   -1.6184   -2.0131 C.ar    1  UNL1        0.1446
     24 F          -0.4176   -1.8951   -2.6690 F       1  UNL1       -0.2035
     25 C          -1.5069   -0.9433   -0.8170 C.ar    1  UNL1        0.0697
     26 H           5.3368   -2.4670    1.5647 H       1  UNL1        0.0388
     27 H           4.4401   -0.9174    1.4906 H       1  UNL1        0.0388
     28 H           3.5777   -2.4370    2.0921 H       1  UNL1        0.0388
     29 H           4.7325   -2.5156   -0.5689 H       1  UNL1        0.1217
     30 H           3.9356   -0.2962   -0.5206 H       1  UNL1        0.0450
     31 H           3.0049   -1.3518   -1.5724 H       1  UNL1        0.0450
     32 H           1.4953   -2.0095    0.1607 H       1  UNL1        0.0628
     33 H           1.4813   -1.2898    2.1337 H       1  UNL1        0.2099
     34 H           0.9707   -0.4514   -1.5860 H       1  UNL1        0.0576
     35 H           2.9195    1.5206    0.5373 H       1  UNL1        0.0621
     36 H           3.0737    3.9649    0.3892 H       1  UNL1        0.0619
     37 H           1.3581    5.2169   -0.7642 H       1  UNL1        0.0646
     38 H          -0.6911    1.5826   -1.6609 H       1  UNL1        0.0649
     39 H          -0.4809    0.5696    1.8508 H       1  UNL1        0.0472
     40 H          -0.8911   -1.2060    1.8828 H       1  UNL1        0.0472
     41 H          -2.5834   -1.2539    2.7492 H       1  UNL1        0.0239
     42 H          -3.5104    0.2703    2.9225 H       1  UNL1        0.0239
     43 H          -4.1054   -1.0262    1.7855 H       1  UNL1        0.0239
     44 H          -1.7483    2.1455    1.2788 H       1  UNL1        0.0239
     45 H          -3.5350    1.8841    1.3939 H       1  UNL1        0.0239
     46 H          -2.6876    1.7485   -0.1925 H       1  UNL1        0.0239
     47 H          -4.8487   -0.8609   -0.1895 H       1  UNL1        0.0621
     48 H          -4.9523   -2.0433   -2.2850 H       1  UNL1        0.0619
     49 H          -2.8204   -2.5525   -3.5009 H       1  UNL1        0.0647
@<TRIPOS>BOND
     1     1     2    1
     2     2     3    1
     3     3     4    1
     4     4     5    1
     5     4     6    1
     6     6     7    1
     7     7     8   ar
     8     8     9   ar
     9     9    10   ar
    10    10    11   ar
    11    11    12    1
    12    11    13   ar
    13     6    14    1
    14    14    15    1
    15    15    16    1
    16    16    17    1
    17    16    18    1
    18    16    19    1
    19    19    20   ar
    20    20    21   ar
    21    21    22   ar
    22    22    23   ar
    23    23    24    1
    24    23    25   ar
    25    13     7   ar
    26    25    14    1
    27    25    19   ar
    28     1    26    1
    29     1    27    1
    30     1    28    1
    31     2    29    1
    32     3    30    1
    33     3    31    1
    34     4    32    1
    35     5    33    1
    36     6    34    1
    37     8    35    1
    38     9    36    1
    39    10    37    1
    40    13    38    1
    41    15    39    1
    42    15    40    1
    43    17    41    1
    44    17    42    1
    45    17    43    1
    46    18    44    1
    47    18    45    1
    48    18    46    1
    49    20    47    1
    50    21    48    1
    51    22    49    1
