@<TRIPOS>MOLECULE
*****
 69 69 0 0 0
SMALL
GASTEIGER

@<TRIPOS>ATOM
      1 C          -2.9798   -1.9222   -2.8580 C.3     1  UNL1       -0.0612
      2 C          -2.6084   -0.8390   -1.8201 C.3     1  UNL1       -0.0309
      3 C          -3.5799    0.2714   -2.0412 C.3     1  UNL1       -0.0612
      4 C          -2.5118   -1.4189   -0.4654 C.3     1  UNL1        0.0176
      5 N          -2.1662   -0.5494    0.6284 N.am    1  UNL1       -0.2929
      6 C          -0.8633   -0.1094    0.9702 C.2     1  UNL1        0.2517
      7 O          -0.8626    0.6550    2.0206 O.2     1  UNL1       -0.2698
      8 C           0.4199   -0.3570    0.3618 C.ar    1  UNL1        0.0946
      9 C           0.6269   -1.3335   -0.5880 C.ar    1  UNL1        0.0451
     10 N           1.8351   -1.5995   -1.1104 N.ar    1  UNL1       -0.2389
     11 C           2.9358   -0.9223   -0.7370 C.ar    1  UNL1        0.1364
     12 C           4.2045   -1.3117   -1.3598 C.3     1  UNL1        0.0221
     13 C           4.9958   -2.2810   -0.4952 C.3     1  UNL1       -0.0531
     14 C           3.8819   -2.0957   -2.6530 C.3     1  UNL1       -0.0531
     15 C           5.0477   -0.1583   -1.7952 C.3     1  UNL1       -0.0531
     16 N           2.7335    0.0212    0.1794 N.ar    1  UNL1       -0.2163
     17 C           1.5617    0.3436    0.7450 C.ar    1  UNL1        0.1348
     18 N           1.5626    1.3957    1.6492 N.pl3   1  UNL1       -0.3213
     19 C           2.7202    2.1429    2.1027 C.3     1  UNL1        0.0686
     20 C           3.4229    2.8811    1.0496 C.ar    1  UNL1        0.1218
     21 C           4.5305    2.4988    0.3432 C.ar    1  UNL1       -0.0192
     22 C           4.8595    3.4942   -0.5537 C.ar    1  UNL1       -0.0236
     23 C           3.8954    4.4753   -0.3396 C.ar    1  UNL1        0.0921
     24 O           3.0883    4.0681    0.6001 O.2     1  UNL1       -0.4662
     25 C          -3.2139   -0.1236    1.5800 C.3     1  UNL1        0.0388
     26 C          -4.2822    0.7391    1.0256 C.3     1  UNL1       -0.0319
     27 C          -5.0536    1.2661    2.2736 C.3     1  UNL1       -0.0387
     28 C          -5.6217    0.0580    2.9837 C.3     1  UNL1       -0.0040
     29 N          -4.5386   -0.7919    3.4265 N.3     1  UNL1       -0.3142
     30 C          -3.9011   -1.3336    2.2108 C.3     1  UNL1        0.0146
     31 CL          0.6840    0.0000    0.0000 Cl      2  UNL2       -0.1454
     32 CL          0.6895    0.0000    0.0000 Cl      3  UNL3       -0.1454
     33 H          -2.5651   -1.6486   -3.8557 H       1  UNL1        0.0233
     34 H          -4.0728   -1.9736   -2.9818 H       1  UNL1        0.0233
     35 H          -2.5204   -2.8905   -2.5723 H       1  UNL1        0.0233
     36 H          -1.6135   -0.4571   -2.1921 H       1  UNL1        0.0311
     37 H          -4.6029    0.0074   -1.7563 H       1  UNL1        0.0233
     38 H          -3.2236    1.2181   -1.6237 H       1  UNL1        0.0233
     39 H          -3.5838    0.4275   -3.1767 H       1  UNL1        0.0233
     40 H          -2.1108   -2.4391   -0.4129 H       1  UNL1        0.0467
     41 H          -3.6516   -1.6752   -0.2393 H       1  UNL1        0.0467
     42 H          -0.1729   -1.9358   -0.9620 H       1  UNL1        0.0839
     43 H           5.6414   -1.7409    0.2287 H       1  UNL1        0.0239
     44 H           4.3191   -2.9932   -0.0080 H       1  UNL1        0.0239
     45 H           5.6604   -2.8521   -1.1612 H       1  UNL1        0.0239
     46 H           2.9658   -2.7046   -2.5056 H       1  UNL1        0.0239
     47 H           4.7356   -2.7507   -2.9221 H       1  UNL1        0.0239
     48 H           3.6836   -1.3571   -3.4548 H       1  UNL1        0.0239
     49 H           4.4157    0.7362   -1.9139 H       1  UNL1        0.0239
     50 H           5.8732    0.0291   -1.0970 H       1  UNL1        0.0239
     51 H           5.4949   -0.3220   -2.8172 H       1  UNL1        0.0239
     52 H           0.6784    1.7534    2.0671 H       1  UNL1        0.1479
     53 H           3.3893    1.3512    2.5666 H       1  UNL1        0.0542
     54 H           2.4942    2.8168    2.9483 H       1  UNL1        0.0542
     55 H           5.0420    1.5600    0.5009 H       1  UNL1        0.0652
     56 H           5.6725    3.5241   -1.2650 H       1  UNL1        0.0649
     57 H           3.8955    5.3959   -0.9095 H       1  UNL1        0.1029
     58 H          -2.7014    0.4612    2.3746 H       1  UNL1        0.0513
     59 H          -3.9759    1.6540    0.5181 H       1  UNL1        0.0284
     60 H          -5.0797    0.1497    0.4956 H       1  UNL1        0.0284
     61 H          -4.2794    1.7032    2.9372 H       1  UNL1        0.0278
     62 H          -5.8283    1.9763    1.9733 H       1  UNL1        0.0278
     63 H          -6.1869   -0.5302    2.2185 H       1  UNL1        0.0424
     64 H          -6.2652    0.3862    3.8124 H       1  UNL1        0.0424
     65 H          -3.7831   -0.2264    3.8922 H       1  UNL1        0.1220
     66 H          -3.2134   -2.1406    2.4591 H       1  UNL1        0.0442
     67 H          -4.6693   -1.6762    1.5005 H       1  UNL1        0.0442
     68 H          -0.6840    0.0000    0.0000 H       1  UNL1        0.1454
     69 H          -0.6895    0.0000    0.0000 H       2  UNL2        0.1454
@<TRIPOS>BOND
     1     1     2    1
     2     2     3    1
     3     2     4    1
     4     4     5    1
     5     5     6   am
     6     6     7    2
     7     6     8    1
     8     8     9   ar
     9     9    10   ar
    10    10    11   ar
    11    11    12    1
    12    12    13    1
    13    12    14    1
    14    12    15    1
    15    11    16   ar
    16    16    17   ar
    17    17    18    1
    18    18    19    1
    19    19    20    1
    20    20    21   ar
    21    21    22   ar
    22    22    23   ar
    23    23    24   ar
    24     5    25    1
    25    25    26    1
    26    26    27    1
    27    27    28    1
    28    28    29    1
    29    29    30    1
    30    17     8   ar
    31    24    20   ar
    32    30    25    1
    33     1    33    1
    34     1    34    1
    35     1    35    1
    36     2    36    1
    37     3    37    1
    38     3    38    1
    39     3    39    1
    40     4    40    1
    41     4    41    1
    42     9    42    1
    43    13    43    1
    44    13    44    1
    45    13    45    1
    46    14    46    1
    47    14    47    1
    48    14    48    1
    49    15    49    1
    50    15    50    1
    51    15    51    1
    52    18    52    1
    53    19    53    1
    54    19    54    1
    55    21    55    1
    56    22    56    1
    57    23    57    1
    58    25    58    1
    59    26    59    1
    60    26    60    1
    61    27    61    1
    62    27    62    1
    63    28    63    1
    64    28    64    1
    65    29    65    1
    66    30    66    1
    67    30    67    1
    68    31    68    1
    69    32    69    1
