
     RDKit          3D

 69 69  0  0  0  0  0  0  0  0999 V2000
   -2.9798   -1.9222   -2.8580 C   0  0  0  0  0  0  0  0  0  0  0  0
   -2.6084   -0.8390   -1.8201 C   0  0  0  0  0  0  0  0  0  0  0  0
   -3.5799    0.2714   -2.0412 C   0  0  0  0  0  0  0  0  0  0  0  0
   -2.5118   -1.4189   -0.4654 C   0  0  0  0  0  0  0  0  0  0  0  0
   -2.1662   -0.5494    0.6284 N   0  0  0  0  0  0  0  0  0  0  0  0
   -0.8633   -0.1094    0.9702 C   0  0  0  0  0  0  0  0  0  0  0  0
   -0.8626    0.6550    2.0206 O   0  0  0  0  0  0  0  0  0  0  0  0
    0.4199   -0.3570    0.3618 C   0  0  0  0  0  0  0  0  0  0  0  0
    0.6269   -1.3335   -0.5880 C   0  0  0  0  0  0  0  0  0  0  0  0
    1.8351   -1.5995   -1.1104 N   0  0  0  0  0  0  0  0  0  0  0  0
    2.9358   -0.9223   -0.7370 C   0  0  0  0  0  0  0  0  0  0  0  0
    4.2045   -1.3117   -1.3598 C   0  0  0  0  0  0  0  0  0  0  0  0
    4.9958   -2.2810   -0.4952 C   0  0  0  0  0  0  0  0  0  0  0  0
    3.8819   -2.0957   -2.6530 C   0  0  0  0  0  0  0  0  0  0  0  0
    5.0477   -0.1583   -1.7952 C   0  0  0  0  0  0  0  0  0  0  0  0
    2.7335    0.0212    0.1794 N   0  0  0  0  0  0  0  0  0  0  0  0
    1.5617    0.3436    0.7450 C   0  0  0  0  0  0  0  0  0  0  0  0
    1.5626    1.3957    1.6492 N   0  0  0  0  0  0  0  0  0  0  0  0
    2.7202    2.1429    2.1027 C   0  0  0  0  0  0  0  0  0  0  0  0
    3.4229    2.8811    1.0496 C   0  0  0  0  0  0  0  0  0  0  0  0
    4.5305    2.4988    0.3432 C   0  0  0  0  0  0  0  0  0  0  0  0
    4.8595    3.4942   -0.5537 C   0  0  0  0  0  0  0  0  0  0  0  0
    3.8954    4.4753   -0.3396 C   0  0  0  0  0  0  0  0  0  0  0  0
    3.0883    4.0681    0.6001 O   0  0  0  0  0  0  0  0  0  0  0  0
   -3.2139   -0.1236    1.5800 C   0  0  1  0  0  0  0  0  0  0  0  0
   -4.2822    0.7391    1.0256 C   0  0  0  0  0  0  0  0  0  0  0  0
   -5.0536    1.2661    2.2736 C   0  0  0  0  0  0  0  0  0  0  0  0
   -5.6217    0.0580    2.9837 C   0  0  0  0  0  0  0  0  0  0  0  0
   -4.5386   -0.7919    3.4265 N   0  0  0  0  0  0  0  0  0  0  0  0
   -3.9011   -1.3336    2.2108 C   0  0  0  0  0  0  0  0  0  0  0  0
    0.6840    0.0000    0.0000 Cl  0  0  0  0  0  0  0  0  0  0  0  0
    0.6895    0.0000    0.0000 Cl  0  0  0  0  0  0  0  0  0  0  0  0
   -2.5651   -1.6486   -3.8557 H   0  0  0  0  0  0  0  0  0  0  0  0
   -4.0728   -1.9736   -2.9818 H   0  0  0  0  0  0  0  0  0  0  0  0
   -2.5204   -2.8905   -2.5723 H   0  0  0  0  0  0  0  0  0  0  0  0
   -1.6135   -0.4571   -2.1921 H   0  0  0  0  0  0  0  0  0  0  0  0
   -4.6029    0.0074   -1.7563 H   0  0  0  0  0  0  0  0  0  0  0  0
   -3.2236    1.2181   -1.6237 H   0  0  0  0  0  0  0  0  0  0  0  0
   -3.5838    0.4275   -3.1767 H   0  0  0  0  0  0  0  0  0  0  0  0
   -2.1108   -2.4391   -0.4129 H   0  0  0  0  0  0  0  0  0  0  0  0
   -3.6516   -1.6752   -0.2393 H   0  0  0  0  0  0  0  0  0  0  0  0
   -0.1729   -1.9358   -0.9620 H   0  0  0  0  0  0  0  0  0  0  0  0
    5.6414   -1.7409    0.2287 H   0  0  0  0  0  0  0  0  0  0  0  0
    4.3191   -2.9932   -0.0080 H   0  0  0  0  0  0  0  0  0  0  0  0
    5.6604   -2.8521   -1.1612 H   0  0  0  0  0  0  0  0  0  0  0  0
    2.9658   -2.7046   -2.5056 H   0  0  0  0  0  0  0  0  0  0  0  0
    4.7356   -2.7507   -2.9221 H   0  0  0  0  0  0  0  0  0  0  0  0
    3.6836   -1.3571   -3.4548 H   0  0  0  0  0  0  0  0  0  0  0  0
    4.4157    0.7362   -1.9139 H   0  0  0  0  0  0  0  0  0  0  0  0
    5.8732    0.0291   -1.0970 H   0  0  0  0  0  0  0  0  0  0  0  0
    5.4949   -0.3220   -2.8172 H   0  0  0  0  0  0  0  0  0  0  0  0
    0.6784    1.7534    2.0671 H   0  0  0  0  0  0  0  0  0  0  0  0
    3.3893    1.3512    2.5666 H   0  0  0  0  0  0  0  0  0  0  0  0
    2.4942    2.8168    2.9483 H   0  0  0  0  0  0  0  0  0  0  0  0
    5.0420    1.5600    0.5009 H   0  0  0  0  0  0  0  0  0  0  0  0
    5.6725    3.5241   -1.2650 H   0  0  0  0  0  0  0  0  0  0  0  0
    3.8955    5.3959   -0.9095 H   0  0  0  0  0  0  0  0  0  0  0  0
   -2.7014    0.4612    2.3746 H   0  0  0  0  0  0  0  0  0  0  0  0
   -3.9759    1.6540    0.5181 H   0  0  0  0  0  0  0  0  0  0  0  0
   -5.0797    0.1497    0.4956 H   0  0  0  0  0  0  0  0  0  0  0  0
   -4.2794    1.7032    2.9372 H   0  0  0  0  0  0  0  0  0  0  0  0
   -5.8283    1.9763    1.9733 H   0  0  0  0  0  0  0  0  0  0  0  0
   -6.1869   -0.5302    2.2185 H   0  0  0  0  0  0  0  0  0  0  0  0
   -6.2652    0.3862    3.8124 H   0  0  0  0  0  0  0  0  0  0  0  0
   -3.7831   -0.2264    3.8922 H   0  0  0  0  0  0  0  0  0  0  0  0
   -3.2134   -2.1406    2.4591 H   0  0  0  0  0  0  0  0  0  0  0  0
   -4.6693   -1.6762    1.5005 H   0  0  0  0  0  0  0  0  0  0  0  0
   -0.6840    0.0000    0.0000 H   0  0  0  0  0  0  0  0  0  0  0  0
   -0.6895    0.0000    0.0000 H   0  0  0  0  0  0  0  0  0  0  0  0
  1  2  1  0
  2  3  1  0
  2  4  1  0
  4  5  1  0
  5  6  1  0
  6  7  2  0
  6  8  1  0
  8  9  2  0
  9 10  1  0
 10 11  2  0
 11 12  1  0
 12 13  1  0
 12 14  1  0
 12 15  1  0
 11 16  1  0
 16 17  2  0
 17 18  1  0
 18 19  1  0
 19 20  1  0
 20 21  2  0
 21 22  1  0
 22 23  2  0
 23 24  1  0
  5 25  1  0
 25 26  1  0
 26 27  1  0
 27 28  1  0
 28 29  1  0
 29 30  1  0
 17  8  1  0
 24 20  1  0
 30 25  1  0
  1 33  1  0
  1 34  1  0
  1 35  1  0
  2 36  1  0
  3 37  1  0
  3 38  1  0
  3 39  1  0
  4 40  1  0
  4 41  1  0
  9 42  1  0
 13 43  1  0
 13 44  1  0
 13 45  1  0
 14 46  1  0
 14 47  1  0
 14 48  1  0
 15 49  1  0
 15 50  1  0
 15 51  1  0
 18 52  1  0
 19 53  1  0
 19 54  1  0
 21 55  1  0
 22 56  1  0
 23 57  1  0
 25 58  1  1
 26 59  1  0
 26 60  1  0
 27 61  1  0
 27 62  1  0
 28 63  1  0
 28 64  1  0
 29 65  1  0
 30 66  1  0
 30 67  1  0
 31 68  1  0
 32 69  1  0
M  END
$$$$
