@<TRIPOS>MOLECULE
*****
 70 73 0 0 0
SMALL
GASTEIGER

@<TRIPOS>ATOM
      1 C          -5.0276    0.7389   -3.3817 C.2     1  UNL1       -0.1012
      2 C          -3.7415    0.4756   -3.1171 C.2     1  UNL1       -0.0740
      3 C          -3.3944   -0.5254   -2.1077 C.3     1  UNL1        0.0312
      4 N          -2.5700   -0.0056   -1.0472 N.pl3   1  UNL1       -0.3093
      5 C          -1.1837   -0.4594   -0.9962 C.ar    1  UNL1        0.0338
      6 C          -0.9047   -1.5897   -0.2521 C.ar    1  UNL1       -0.0401
      7 C           0.3768   -2.0865   -0.2104 C.ar    1  UNL1       -0.0551
      8 C           1.4211   -1.5075   -0.8841 C.ar    1  UNL1       -0.0273
      9 C           2.7588   -2.0654   -0.8063 C.3     1  UNL1        0.0513
     10 N           3.6197   -1.4929    0.1938 N.ar    1  UNL1       -0.3081
     11 C           3.8320   -1.8217    1.4727 C.ar    1  UNL1        0.1119
     12 C           3.1719   -2.9330    2.2035 C.3     1  UNL1        0.0028
     13 C           1.9043   -2.4976    2.8808 C.3     1  UNL1       -0.0584
     14 N           4.7443   -0.9944    2.0402 N.ar    1  UNL1       -0.2304
     15 C           5.1306   -0.1075    1.1003 C.ar    1  UNL1        0.1111
     16 C           6.0309    0.9358    1.1610 C.ar    1  UNL1       -0.0198
     17 C           6.7820    1.2686    2.3938 C.3     1  UNL1       -0.0375
     18 C           6.2213    1.6816    0.0188 C.ar    1  UNL1       -0.0356
     19 C           5.5148    1.3612   -1.1250 C.ar    1  UNL1        0.0409
     20 C           5.7167    2.1605   -2.3561 C.3     1  UNL1       -0.0223
     21 N           4.6467    0.3366   -1.1427 N.ar    1  UNL1       -0.2326
     22 C           4.4282   -0.4283   -0.0320 C.ar    1  UNL1        0.1612
     23 C           1.1328   -0.3869   -1.6191 C.ar    1  UNL1       -0.0522
     24 C          -0.1682    0.1379   -1.6756 C.ar    1  UNL1       -0.0291
     25 C          -0.4338    1.3666   -2.4661 C.3     1  UNL1       -0.0379
     26 C          -3.1099    0.9340   -0.1011 C.3     1  UNL1        0.1469
     27 C          -2.0577    1.3798    0.8700 C.2     1  UNL1        0.3300
     28 O          -0.9139    0.9230    0.7936 O.2     1  UNL1       -0.2485
     29 O          -2.3686    2.3017    1.8502 O.3     1  UNL1       -0.4791
     30 C          -4.2151    0.3796    0.7368 C.ar    1  UNL1       -0.0135
     31 C          -3.8455   -0.5637    1.7189 C.ar    1  UNL1       -0.0560
     32 C          -4.7541   -1.1761    2.5461 C.ar    1  UNL1       -0.0614
     33 C          -6.0930   -0.8813    2.4420 C.ar    1  UNL1       -0.0615
     34 C          -6.4578    0.0332    1.4931 C.ar    1  UNL1       -0.0585
     35 C          -5.5395    0.6732    0.6346 C.ar    1  UNL1       -0.0450
     36 C          -6.0405    1.6780   -0.3187 C.3     1  UNL1       -0.0394
     37 H          -5.2273    1.4991   -4.1473 H       1  UNL1        0.0532
     38 H          -5.7888    0.2106   -2.8588 H       1  UNL1        0.0532
     39 H          -2.9572    0.9918   -3.6493 H       1  UNL1        0.0582
     40 H          -2.8327   -1.3620   -2.6355 H       1  UNL1        0.0507
     41 H          -4.3048   -1.0397   -1.6938 H       1  UNL1        0.0507
     42 H          -1.6741   -2.1032    0.2925 H       1  UNL1        0.0636
     43 H           0.5588   -2.9698    0.3761 H       1  UNL1        0.0621
     44 H           2.7538   -3.1991   -0.7353 H       1  UNL1        0.0542
     45 H           3.2695   -1.9045   -1.8030 H       1  UNL1        0.0542
     46 H           3.0177   -3.8240    1.5435 H       1  UNL1        0.0340
     47 H           3.8537   -3.3131    3.0199 H       1  UNL1        0.0340
     48 H           2.0479   -2.3300    3.9802 H       1  UNL1        0.0234
     49 H           1.5833   -1.5048    2.4824 H       1  UNL1        0.0234
     50 H           1.0941   -3.2618    2.8047 H       1  UNL1        0.0234
     51 H           7.8839    1.2019    2.2175 H       1  UNL1        0.0278
     52 H           6.5012    2.2781    2.7887 H       1  UNL1        0.0278
     53 H           6.5641    0.5601    3.2195 H       1  UNL1        0.0278
     54 H           6.9173    2.5233   -0.0120 H       1  UNL1        0.0639
     55 H           5.3452    3.2072   -2.1776 H       1  UNL1        0.0292
     56 H           6.7835    2.2163   -2.6477 H       1  UNL1        0.0292
     57 H           5.1218    1.7670   -3.1986 H       1  UNL1        0.0292
     58 H           1.9032    0.1366   -2.1856 H       1  UNL1        0.0624
     59 H           0.4663    2.0364   -2.3272 H       1  UNL1        0.0278
     60 H          -1.3489    1.8859   -2.1160 H       1  UNL1        0.0278
     61 H          -0.5682    1.1400   -3.5390 H       1  UNL1        0.0278
     62 H          -3.4638    1.8141   -0.6372 H       1  UNL1        0.0667
     63 H          -1.8601    2.3458    2.7425 H       1  UNL1        0.2951
     64 H          -2.8209   -0.8236    1.8564 H       1  UNL1        0.0621
     65 H          -4.4459   -1.8961    3.2906 H       1  UNL1        0.0618
     66 H          -6.8390   -1.3596    3.0931 H       1  UNL1        0.0618
     67 H          -7.4968    0.2958    1.3754 H       1  UNL1        0.0620
     68 H          -6.8222    1.2179   -0.9948 H       1  UNL1        0.0278
     69 H          -6.5342    2.4807    0.2947 H       1  UNL1        0.0278
     70 H          -5.2942    2.1365   -0.9306 H       1  UNL1        0.0278
@<TRIPOS>BOND
     1     1     2    2
     2     2     3    1
     3     3     4    1
     4     4     5    1
     5     5     6   ar
     6     6     7   ar
     7     7     8   ar
     8     8     9    1
     9     9    10    1
    10    10    11   ar
    11    11    12    1
    12    12    13    1
    13    11    14   ar
    14    14    15   ar
    15    15    16   ar
    16    16    17    1
    17    16    18   ar
    18    18    19   ar
    19    19    20    1
    20    19    21   ar
    21    21    22   ar
    22     8    23   ar
    23    23    24   ar
    24    24    25    1
    25     4    26    1
    26    26    27    1
    27    27    28    2
    28    27    29    1
    29    26    30    1
    30    30    31   ar
    31    31    32   ar
    32    32    33   ar
    33    33    34   ar
    34    34    35   ar
    35    35    36    1
    36    24     5   ar
    37    35    30   ar
    38    22    10   ar
    39    22    15   ar
    40     1    37    1
    41     1    38    1
    42     2    39    1
    43     3    40    1
    44     3    41    1
    45     6    42    1
    46     7    43    1
    47     9    44    1
    48     9    45    1
    49    12    46    1
    50    12    47    1
    51    13    48    1
    52    13    49    1
    53    13    50    1
    54    17    51    1
    55    17    52    1
    56    17    53    1
    57    18    54    1
    58    20    55    1
    59    20    56    1
    60    20    57    1
    61    23    58    1
    62    25    59    1
    63    25    60    1
    64    25    61    1
    65    26    62    1
    66    29    63    1
    67    31    64    1
    68    32    65    1
    69    33    66    1
    70    34    67    1
    71    36    68    1
    72    36    69    1
    73    36    70    1
