
     RDKit          3D

 70 73  0  0  0  0  0  0  0  0999 V2000
   -5.0276    0.7389   -3.3817 C   0  0  0  0  0  0  0  0  0  0  0  0
   -3.7415    0.4756   -3.1171 C   0  0  0  0  0  0  0  0  0  0  0  0
   -3.3944   -0.5254   -2.1077 C   0  0  0  0  0  0  0  0  0  0  0  0
   -2.5700   -0.0056   -1.0472 N   0  0  0  0  0  0  0  0  0  0  0  0
   -1.1837   -0.4594   -0.9962 C   0  0  0  0  0  0  0  0  0  0  0  0
   -0.9047   -1.5897   -0.2521 C   0  0  0  0  0  0  0  0  0  0  0  0
    0.3768   -2.0865   -0.2104 C   0  0  0  0  0  0  0  0  0  0  0  0
    1.4211   -1.5075   -0.8841 C   0  0  0  0  0  0  0  0  0  0  0  0
    2.7588   -2.0654   -0.8063 C   0  0  0  0  0  0  0  0  0  0  0  0
    3.6197   -1.4929    0.1938 N   0  0  0  0  0  0  0  0  0  0  0  0
    3.8320   -1.8217    1.4727 C   0  0  0  0  0  0  0  0  0  0  0  0
    3.1719   -2.9330    2.2035 C   0  0  0  0  0  0  0  0  0  0  0  0
    1.9043   -2.4976    2.8808 C   0  0  0  0  0  0  0  0  0  0  0  0
    4.7443   -0.9944    2.0402 N   0  0  0  0  0  0  0  0  0  0  0  0
    5.1306   -0.1075    1.1003 C   0  0  0  0  0  0  0  0  0  0  0  0
    6.0309    0.9358    1.1610 C   0  0  0  0  0  0  0  0  0  0  0  0
    6.7820    1.2686    2.3938 C   0  0  0  0  0  0  0  0  0  0  0  0
    6.2213    1.6816    0.0188 C   0  0  0  0  0  0  0  0  0  0  0  0
    5.5148    1.3612   -1.1250 C   0  0  0  0  0  0  0  0  0  0  0  0
    5.7167    2.1605   -2.3561 C   0  0  0  0  0  0  0  0  0  0  0  0
    4.6467    0.3366   -1.1427 N   0  0  0  0  0  0  0  0  0  0  0  0
    4.4282   -0.4283   -0.0320 C   0  0  0  0  0  0  0  0  0  0  0  0
    1.1328   -0.3869   -1.6191 C   0  0  0  0  0  0  0  0  0  0  0  0
   -0.1682    0.1379   -1.6756 C   0  0  0  0  0  0  0  0  0  0  0  0
   -0.4338    1.3666   -2.4661 C   0  0  0  0  0  0  0  0  0  0  0  0
   -3.1099    0.9340   -0.1011 C   0  0  0  0  0  0  0  0  0  0  0  0
   -2.0577    1.3798    0.8700 C   0  0  0  0  0  0  0  0  0  0  0  0
   -0.9139    0.9230    0.7936 O   0  0  0  0  0  0  0  0  0  0  0  0
   -2.3686    2.3017    1.8502 O   0  0  0  0  0  0  0  0  0  0  0  0
   -4.2151    0.3796    0.7368 C   0  0  0  0  0  0  0  0  0  0  0  0
   -3.8455   -0.5637    1.7189 C   0  0  0  0  0  0  0  0  0  0  0  0
   -4.7541   -1.1761    2.5461 C   0  0  0  0  0  0  0  0  0  0  0  0
   -6.0930   -0.8813    2.4420 C   0  0  0  0  0  0  0  0  0  0  0  0
   -6.4578    0.0332    1.4931 C   0  0  0  0  0  0  0  0  0  0  0  0
   -5.5395    0.6732    0.6346 C   0  0  0  0  0  0  0  0  0  0  0  0
   -6.0405    1.6780   -0.3187 C   0  0  0  0  0  0  0  0  0  0  0  0
   -5.2273    1.4991   -4.1473 H   0  0  0  0  0  0  0  0  0  0  0  0
   -5.7888    0.2106   -2.8588 H   0  0  0  0  0  0  0  0  0  0  0  0
   -2.9572    0.9918   -3.6493 H   0  0  0  0  0  0  0  0  0  0  0  0
   -2.8327   -1.3620   -2.6355 H   0  0  0  0  0  0  0  0  0  0  0  0
   -4.3048   -1.0397   -1.6938 H   0  0  0  0  0  0  0  0  0  0  0  0
   -1.6741   -2.1032    0.2925 H   0  0  0  0  0  0  0  0  0  0  0  0
    0.5588   -2.9698    0.3761 H   0  0  0  0  0  0  0  0  0  0  0  0
    2.7538   -3.1991   -0.7353 H   0  0  0  0  0  0  0  0  0  0  0  0
    3.2695   -1.9045   -1.8030 H   0  0  0  0  0  0  0  0  0  0  0  0
    3.0177   -3.8240    1.5435 H   0  0  0  0  0  0  0  0  0  0  0  0
    3.8537   -3.3131    3.0199 H   0  0  0  0  0  0  0  0  0  0  0  0
    2.0479   -2.3300    3.9802 H   0  0  0  0  0  0  0  0  0  0  0  0
    1.5833   -1.5048    2.4824 H   0  0  0  0  0  0  0  0  0  0  0  0
    1.0941   -3.2618    2.8047 H   0  0  0  0  0  0  0  0  0  0  0  0
    7.8839    1.2019    2.2175 H   0  0  0  0  0  0  0  0  0  0  0  0
    6.5012    2.2781    2.7887 H   0  0  0  0  0  0  0  0  0  0  0  0
    6.5641    0.5601    3.2195 H   0  0  0  0  0  0  0  0  0  0  0  0
    6.9173    2.5233   -0.0120 H   0  0  0  0  0  0  0  0  0  0  0  0
    5.3452    3.2072   -2.1776 H   0  0  0  0  0  0  0  0  0  0  0  0
    6.7835    2.2163   -2.6477 H   0  0  0  0  0  0  0  0  0  0  0  0
    5.1218    1.7670   -3.1986 H   0  0  0  0  0  0  0  0  0  0  0  0
    1.9032    0.1366   -2.1856 H   0  0  0  0  0  0  0  0  0  0  0  0
    0.4663    2.0364   -2.3272 H   0  0  0  0  0  0  0  0  0  0  0  0
   -1.3489    1.8859   -2.1160 H   0  0  0  0  0  0  0  0  0  0  0  0
   -0.5682    1.1400   -3.5390 H   0  0  0  0  0  0  0  0  0  0  0  0
   -3.4638    1.8141   -0.6372 H   0  0  0  0  0  0  0  0  0  0  0  0
   -1.8601    2.3458    2.7425 H   0  0  0  0  0  0  0  0  0  0  0  0
   -2.8209   -0.8236    1.8564 H   0  0  0  0  0  0  0  0  0  0  0  0
   -4.4459   -1.8961    3.2906 H   0  0  0  0  0  0  0  0  0  0  0  0
   -6.8390   -1.3596    3.0931 H   0  0  0  0  0  0  0  0  0  0  0  0
   -7.4968    0.2958    1.3754 H   0  0  0  0  0  0  0  0  0  0  0  0
   -6.8222    1.2179   -0.9948 H   0  0  0  0  0  0  0  0  0  0  0  0
   -6.5342    2.4807    0.2947 H   0  0  0  0  0  0  0  0  0  0  0  0
   -5.2942    2.1365   -0.9306 H   0  0  0  0  0  0  0  0  0  0  0  0
  1  2  2  3
  2  3  1  0
  3  4  1  0
  4  5  1  0
  5  6  2  0
  6  7  1  0
  7  8  2  0
  8  9  1  0
  9 10  1  0
 10 11  1  0
 11 12  1  0
 12 13  1  0
 11 14  2  0
 14 15  1  0
 15 16  2  0
 16 17  1  0
 16 18  1  0
 18 19  2  0
 19 20  1  0
 19 21  1  0
 21 22  2  0
  8 23  1  0
 23 24  2  0
 24 25  1  0
  4 26  1  0
 26 27  1  0
 27 28  2  0
 27 29  1  0
 26 30  1  0
 30 31  2  0
 31 32  1  0
 32 33  2  0
 33 34  1  0
 34 35  2  0
 35 36  1  0
 24  5  1  0
 35 30  1  0
 22 10  1  0
 22 15  1  0
  1 37  1  0
  1 38  1  0
  2 39  1  0
  3 40  1  0
  3 41  1  0
  6 42  1  0
  7 43  1  0
  9 44  1  0
  9 45  1  0
 12 46  1  0
 12 47  1  0
 13 48  1  0
 13 49  1  0
 13 50  1  0
 17 51  1  0
 17 52  1  0
 17 53  1  0
 18 54  1  0
 20 55  1  0
 20 56  1  0
 20 57  1  0
 23 58  1  0
 25 59  1  0
 25 60  1  0
 25 61  1  0
 26 62  1  0
 29 63  1  0
 31 64  1  0
 32 65  1  0
 33 66  1  0
 34 67  1  0
 36 68  1  0
 36 69  1  0
 36 70  1  0
M  END
$$$$
