@<TRIPOS>MOLECULE
*****
 63 69 0 0 0
SMALL
GASTEIGER

@<TRIPOS>ATOM
      1 O           1.8062   -3.6005   -2.4101 O.2     1  UNL1       -0.2697
      2 C           2.8776   -3.1231   -1.9528 C.2     1  UNL1        0.2519
      3 N           4.2049   -3.4462   -2.3374 N.am    1  UNL1       -0.2482
      4 C           5.0393   -2.6131   -1.5007 C.2     1  UNL1        0.2533
      5 O           6.2870   -2.6596   -1.5926 O.2     1  UNL1       -0.2697
      6 C           4.1861   -1.8108   -0.6343 C.2     1  UNL1        0.0751
      7 C           4.6321   -0.8824    0.3985 C.ar    1  UNL1        0.0789
      8 C           4.1216   -0.8251    1.7022 C.ar    1  UNL1        0.0545
      9 N           4.7672    0.1406    2.3399 N.ar    1  UNL1       -0.2355
     10 C           5.6752    0.7178    1.5172 C.ar    1  UNL1        0.1380
     11 C           6.5815    1.7355    1.6600 C.ar    1  UNL1       -0.0188
     12 C           7.4075    2.1473    0.6478 C.ar    1  UNL1       -0.0569
     13 C           7.3019    1.4942   -0.5540 C.ar    1  UNL1       -0.0450
     14 C           6.3688    0.4616   -0.6667 C.ar    1  UNL1        0.0118
     15 N           5.5702    0.0783    0.3481 N.ar    1  UNL1       -0.2991
     16 C           2.9238   -2.0972   -0.8871 C.2     1  UNL1        0.0604
     17 C           1.7824   -1.4785   -0.2381 C.ar    1  UNL1        0.0132
     18 C           0.7171   -2.1546    0.3785 C.ar    1  UNL1        0.0137
     19 N          -0.1653   -1.3027    0.8533 N.ar    1  UNL1       -0.3443
     20 C           0.2777   -0.0584    0.5720 C.ar    1  UNL1        0.0546
     21 C          -0.3030    1.1716    0.8542 C.ar    1  UNL1       -0.0033
     22 C           0.3106    2.3259    0.4613 C.ar    1  UNL1       -0.0198
     23 C           1.5083    2.2394   -0.2146 C.ar    1  UNL1        0.1244
     24 F           2.1134    3.3885   -0.6046 F       1  UNL1       -0.2055
     25 C           2.1040    1.0043   -0.5031 C.ar    1  UNL1       -0.0167
     26 C           1.4594   -0.1345   -0.0922 C.ar    1  UNL1        0.0108
     27 C          -1.5678    1.3656    1.5973 C.3     1  UNL1        0.0433
     28 N          -2.5944    0.5163    0.9485 N.am    1  UNL1       -0.2794
     29 C          -3.7115    1.2334    0.5520 C.2     1  UNL1        0.3051
     30 O          -3.6684    2.5218    0.8403 O.2     1  UNL1       -0.2524
     31 N          -4.8616    0.8088   -0.0963 N.am    1  UNL1       -0.2855
     32 C          -5.1681   -0.5102   -0.5504 C.3     1  UNL1        0.0161
     33 C          -6.3629   -0.4220   -1.5288 C.3     1  UNL1       -0.0371
     34 C          -7.5680   -0.0064   -0.7585 C.3     1  UNL1       -0.0502
     35 C          -7.2329    1.1885    0.1248 C.3     1  UNL1       -0.0371
     36 C          -5.9528    1.8021   -0.3640 C.3     1  UNL1        0.0161
     37 C          -2.5359   -0.8887    0.7331 C.3     1  UNL1        0.0345
     38 C          -1.4145   -1.5559    1.5515 C.3     1  UNL1        0.0392
     39 H           4.5232   -4.1244   -3.0560 H       1  UNL1        0.1581
     40 H           3.3547   -1.4591    2.0722 H       1  UNL1        0.0852
     41 H           6.6727    2.2640    2.6152 H       1  UNL1        0.0654
     42 H           8.1247    2.9420    0.7411 H       1  UNL1        0.0619
     43 H           7.9254    1.7575   -1.4169 H       1  UNL1        0.0632
     44 H           6.3320    0.0018   -1.6394 H       1  UNL1        0.0813
     45 H           0.6599   -3.2286    0.4397 H       1  UNL1        0.0815
     46 H          -0.1700    3.2645    0.6977 H       1  UNL1        0.0650
     47 H           3.0284    0.9455   -1.0364 H       1  UNL1        0.0653
     48 H          -1.4738    0.9644    2.6246 H       1  UNL1        0.0515
     49 H          -1.9043    2.4050    1.6087 H       1  UNL1        0.0515
     50 H          -5.5792   -1.1276    0.2787 H       1  UNL1        0.0465
     51 H          -4.3240   -0.9681   -1.0823 H       1  UNL1        0.0465
     52 H          -6.4783   -1.4469   -1.9509 H       1  UNL1        0.0280
     53 H          -6.0577    0.2864   -2.3130 H       1  UNL1        0.0280
     54 H          -7.8523   -0.8344   -0.0735 H       1  UNL1        0.0266
     55 H          -8.3882    0.3259   -1.4225 H       1  UNL1        0.0266
     56 H          -8.0225    1.9575    0.0950 H       1  UNL1        0.0280
     57 H          -7.0176    0.8336    1.1765 H       1  UNL1        0.0280
     58 H          -5.9558    2.0512   -1.4125 H       1  UNL1        0.0465
     59 H          -5.7246    2.7309    0.2037 H       1  UNL1        0.0465
     60 H          -3.4239   -1.4683    0.9823 H       1  UNL1        0.0483
     61 H          -2.2107   -1.0442   -0.3176 H       1  UNL1        0.0483
     62 H          -1.6006   -2.6259    1.5471 H       1  UNL1        0.0507
     63 H          -1.3537   -1.1744    2.5659 H       1  UNL1        0.0507
@<TRIPOS>BOND
     1     1     2    2
     2     2     3   am
     3     3     4   am
     4     4     5    2
     5     4     6    1
     6     6     7    1
     7     7     8   ar
     8     8     9   ar
     9     9    10   ar
    10    10    11   ar
    11    11    12   ar
    12    12    13   ar
    13    13    14   ar
    14    14    15   ar
    15     6    16    2
    16    16    17    1
    17    17    18   ar
    18    18    19   ar
    19    19    20   ar
    20    20    21   ar
    21    21    22   ar
    22    22    23   ar
    23    23    24    1
    24    23    25   ar
    25    25    26   ar
    26    21    27    1
    27    27    28    1
    28    28    29   am
    29    29    30    2
    30    29    31   am
    31    31    32    1
    32    32    33    1
    33    33    34    1
    34    34    35    1
    35    35    36    1
    36    28    37    1
    37    37    38    1
    38    16     2    1
    39    26    17   ar
    40    36    31    1
    41    15     7   ar
    42    38    19    1
    43    15    10   ar
    44    26    20   ar
    45     3    39    1
    46     8    40    1
    47    11    41    1
    48    12    42    1
    49    13    43    1
    50    14    44    1
    51    18    45    1
    52    22    46    1
    53    25    47    1
    54    27    48    1
    55    27    49    1
    56    32    50    1
    57    32    51    1
    58    33    52    1
    59    33    53    1
    60    34    54    1
    61    34    55    1
    62    35    56    1
    63    35    57    1
    64    36    58    1
    65    36    59    1
    66    37    60    1
    67    37    61    1
    68    38    62    1
    69    38    63    1
