@<TRIPOS>MOLECULE
*****
 38 39 0 0 0
SMALL
GASTEIGER

@<TRIPOS>ATOM
      1 N           6.2336   -0.9311    1.8189 N.3     1  UNL1       -0.2035
      2 S           4.8862   -1.8651    1.2431 S.O2    1  UNL1        0.0559
      3 O           5.3190   -2.6745    0.0491 O.2     1  UNL1       -0.1533
      4 O           4.3497   -2.7640    2.3095 O.2     1  UNL1       -0.1533
      5 C           3.6102   -0.7865    0.7504 C.ar    1  UNL1        0.1050
      6 C           3.6044   -0.3575   -0.5718 C.ar    1  UNL1       -0.0351
      7 C           2.5926    0.4999   -0.9697 C.ar    1  UNL1       -0.0567
      8 C           1.6055    0.9432   -0.1340 C.ar    1  UNL1       -0.0460
      9 C           0.5413    1.8644   -0.6131 C.3     1  UNL1       -0.0135
     10 C          -0.6254    1.0525   -1.1343 C.3     1  UNL1        0.0214
     11 N          -1.6767    1.9139   -1.6077 N.3     1  UNL1       -0.1896
     12 S          -3.0243    1.0227   -2.2098 S.O2    1  UNL1        0.0584
     13 O          -4.0965    1.8977   -2.7356 O.2     1  UNL1       -0.1531
     14 O          -2.5513    0.1468   -3.3335 O.2     1  UNL1       -0.1531
     15 C          -3.6653    0.0766   -0.9067 C.ar    1  UNL1        0.1054
     16 C          -3.2124   -1.1925   -0.6666 C.ar    1  UNL1       -0.0326
     17 C          -3.7101   -1.9714    0.3717 C.ar    1  UNL1       -0.0246
     18 C          -4.6850   -1.4227    1.1627 C.ar    1  UNL1        0.1235
     19 F          -5.2309   -2.1162    2.2053 F       1  UNL1       -0.2055
     20 C          -5.1660   -0.1481    0.9515 C.ar    1  UNL1       -0.0246
     21 C          -4.6386    0.6040   -0.1048 C.ar    1  UNL1       -0.0326
     22 C           1.6433    0.4938    1.1797 C.ar    1  UNL1       -0.0567
     23 C           2.6221   -0.3547    1.6239 C.ar    1  UNL1       -0.0351
     24 H           6.5435   -1.2485    2.7563 H       1  UNL1        0.1442
     25 H           6.9877   -0.9108    1.1167 H       1  UNL1        0.1442
     26 H           4.3812   -0.6941   -1.2677 H       1  UNL1        0.0637
     27 H           2.6247    0.8142   -2.0200 H       1  UNL1        0.0621
     28 H           0.2529    2.5741    0.1633 H       1  UNL1        0.0326
     29 H           0.9822    2.4389   -1.4554 H       1  UNL1        0.0326
     30 H          -1.0378    0.5017   -0.2414 H       1  UNL1        0.0444
     31 H          -0.3113    0.3668   -1.9237 H       1  UNL1        0.0444
     32 H          -1.9320    2.6654   -0.9614 H       1  UNL1        0.1480
     33 H          -2.4418   -1.6641   -1.2693 H       1  UNL1        0.0638
     34 H          -3.3676   -2.9741    0.5791 H       1  UNL1        0.0647
     35 H          -5.9387    0.2968    1.5726 H       1  UNL1        0.0647
     36 H          -5.0393    1.6159   -0.2508 H       1  UNL1        0.0638
     37 H           0.8887    0.8111    1.8858 H       1  UNL1        0.0621
     38 H           2.6824   -0.7239    2.6376 H       1  UNL1        0.0637
@<TRIPOS>BOND
     1     1     2    1
     2     2     3    2
     3     2     4    2
     4     2     5    1
     5     5     6   ar
     6     6     7   ar
     7     7     8   ar
     8     8     9    1
     9     9    10    1
    10    10    11    1
    11    11    12    1
    12    12    13    2
    13    12    14    2
    14    12    15    1
    15    15    16   ar
    16    16    17   ar
    17    17    18   ar
    18    18    19    1
    19    18    20   ar
    20    20    21   ar
    21     8    22   ar
    22    22    23   ar
    23    23     5   ar
    24    21    15   ar
    25     1    24    1
    26     1    25    1
    27     6    26    1
    28     7    27    1
    29     9    28    1
    30     9    29    1
    31    10    30    1
    32    10    31    1
    33    11    32    1
    34    16    33    1
    35    17    34    1
    36    20    35    1
    37    21    36    1
    38    22    37    1
    39    23    38    1
