
     RDKit          3D

 38 39  0  0  0  0  0  0  0  0999 V2000
    6.2336   -0.9311    1.8189 N   0  0  0  0  0  0  0  0  0  0  0  0
    4.8862   -1.8651    1.2431 S   0  0  0  0  0  6  0  0  0  0  0  0
    5.3190   -2.6745    0.0491 O   0  0  0  0  0  0  0  0  0  0  0  0
    4.3497   -2.7640    2.3095 O   0  0  0  0  0  0  0  0  0  0  0  0
    3.6102   -0.7865    0.7504 C   0  0  0  0  0  0  0  0  0  0  0  0
    3.6044   -0.3575   -0.5718 C   0  0  0  0  0  0  0  0  0  0  0  0
    2.5926    0.4999   -0.9697 C   0  0  0  0  0  0  0  0  0  0  0  0
    1.6055    0.9432   -0.1340 C   0  0  0  0  0  0  0  0  0  0  0  0
    0.5413    1.8644   -0.6131 C   0  0  0  0  0  0  0  0  0  0  0  0
   -0.6254    1.0525   -1.1343 C   0  0  0  0  0  0  0  0  0  0  0  0
   -1.6767    1.9139   -1.6077 N   0  0  0  0  0  0  0  0  0  0  0  0
   -3.0243    1.0227   -2.2098 S   0  0  0  0  0  6  0  0  0  0  0  0
   -4.0965    1.8977   -2.7356 O   0  0  0  0  0  0  0  0  0  0  0  0
   -2.5513    0.1468   -3.3335 O   0  0  0  0  0  0  0  0  0  0  0  0
   -3.6653    0.0766   -0.9067 C   0  0  0  0  0  0  0  0  0  0  0  0
   -3.2124   -1.1925   -0.6666 C   0  0  0  0  0  0  0  0  0  0  0  0
   -3.7101   -1.9714    0.3717 C   0  0  0  0  0  0  0  0  0  0  0  0
   -4.6850   -1.4227    1.1627 C   0  0  0  0  0  0  0  0  0  0  0  0
   -5.2309   -2.1162    2.2053 F   0  0  0  0  0  0  0  0  0  0  0  0
   -5.1660   -0.1481    0.9515 C   0  0  0  0  0  0  0  0  0  0  0  0
   -4.6386    0.6040   -0.1048 C   0  0  0  0  0  0  0  0  0  0  0  0
    1.6433    0.4938    1.1797 C   0  0  0  0  0  0  0  0  0  0  0  0
    2.6221   -0.3547    1.6239 C   0  0  0  0  0  0  0  0  0  0  0  0
    6.5435   -1.2485    2.7563 H   0  0  0  0  0  0  0  0  0  0  0  0
    6.9877   -0.9108    1.1167 H   0  0  0  0  0  0  0  0  0  0  0  0
    4.3812   -0.6941   -1.2677 H   0  0  0  0  0  0  0  0  0  0  0  0
    2.6247    0.8142   -2.0200 H   0  0  0  0  0  0  0  0  0  0  0  0
    0.2529    2.5741    0.1633 H   0  0  0  0  0  0  0  0  0  0  0  0
    0.9822    2.4389   -1.4554 H   0  0  0  0  0  0  0  0  0  0  0  0
   -1.0378    0.5017   -0.2414 H   0  0  0  0  0  0  0  0  0  0  0  0
   -0.3113    0.3668   -1.9237 H   0  0  0  0  0  0  0  0  0  0  0  0
   -1.9320    2.6654   -0.9614 H   0  0  0  0  0  0  0  0  0  0  0  0
   -2.4418   -1.6641   -1.2693 H   0  0  0  0  0  0  0  0  0  0  0  0
   -3.3676   -2.9741    0.5791 H   0  0  0  0  0  0  0  0  0  0  0  0
   -5.9387    0.2968    1.5726 H   0  0  0  0  0  0  0  0  0  0  0  0
   -5.0393    1.6159   -0.2508 H   0  0  0  0  0  0  0  0  0  0  0  0
    0.8887    0.8111    1.8858 H   0  0  0  0  0  0  0  0  0  0  0  0
    2.6824   -0.7239    2.6376 H   0  0  0  0  0  0  0  0  0  0  0  0
  1  2  1  0
  2  3  2  0
  2  4  2  0
  2  5  1  0
  5  6  2  0
  6  7  1  0
  7  8  2  0
  8  9  1  0
  9 10  1  0
 10 11  1  0
 11 12  1  0
 12 13  2  0
 12 14  2  0
 12 15  1  0
 15 16  2  0
 16 17  1  0
 17 18  2  0
 18 19  1  0
 18 20  1  0
 20 21  2  0
  8 22  1  0
 22 23  2  0
 23  5  1  0
 21 15  1  0
  1 24  1  0
  1 25  1  0
  6 26  1  0
  7 27  1  0
  9 28  1  0
  9 29  1  0
 10 30  1  0
 10 31  1  0
 11 32  1  0
 16 33  1  0
 17 34  1  0
 20 35  1  0
 21 36  1  0
 22 37  1  0
 23 38  1  0
M  END
$$$$
