@<TRIPOS>MOLECULE
*****
 42 45 0 0 0
SMALL
GASTEIGER

@<TRIPOS>ATOM
      1 C           4.2257    3.2590    0.1848 C.3     1  UNL1       -0.0395
      2 C           3.1698    2.2636   -0.2500 C.3     1  UNL1        0.0802
      3 N           2.2100    2.0167    0.8153 N.pl3   1  UNL1       -0.3038
      4 C           1.1352    1.1328    0.5840 C.ar    1  UNL1        0.2193
      5 N          -0.0651    1.5299    0.1604 N.ar    1  UNL1       -0.1987
      6 C          -1.1001    0.6471   -0.0640 C.ar    1  UNL1        0.1384
      7 N          -2.3363    1.1294   -0.5061 N.pl3   1  UNL1       -0.2825
      8 C          -3.4931    0.4178   -0.7686 C.ar    1  UNL1        0.1419
      9 C          -4.4885    0.1800    0.1678 C.ar    1  UNL1        0.0457
     10 N          -5.4417   -0.5039   -0.4559 N.ar    1  UNL1       -0.3380
     11 C          -6.6816   -0.9626    0.1718 C.3     1  UNL1        0.0128
     12 C          -5.0656   -0.6903   -1.7307 C.ar    1  UNL1        0.0979
     13 N          -3.8677   -0.1316   -1.9490 N.ar    1  UNL1       -0.2209
     14 C          -0.8664   -0.6828    0.1620 C.ar    1  UNL1        0.0588
     15 C          -1.6368   -1.8205    0.0471 C.ar    1  UNL1       -0.0318
     16 C          -0.8328   -2.8989    0.4227 C.ar    1  UNL1        0.0042
     17 N           0.3761   -2.4363    0.7522 N.ar    1  UNL1       -0.3456
     18 C           0.3912   -1.1020    0.6063 C.ar    1  UNL1        0.1451
     19 N           1.3296   -0.1772    0.7958 N.ar    1  UNL1       -0.1966
     20 C           3.7718    0.9569   -0.6165 C.ar    1  UNL1        0.1489
     21 N           3.9255    0.6742   -1.9193 N.ar    1  UNL1       -0.2356
     22 C           4.4698   -0.5151   -2.2285 C.ar    1  UNL1        0.0664
     23 C           4.8452   -1.3865   -1.2541 C.ar    1  UNL1        0.1594
     24 F           5.3913   -2.5788   -1.5895 F       1  UNL1       -0.2023
     25 C           4.6753   -1.0690    0.0784 C.ar    1  UNL1        0.0664
     26 N           4.1375    0.1066    0.3735 N.ar    1  UNL1       -0.2356
     27 H           4.2609    3.3844    1.2808 H       1  UNL1        0.0252
     28 H           5.2013    2.9394   -0.2583 H       1  UNL1        0.0252
     29 H           4.0343    4.2853   -0.2296 H       1  UNL1        0.0252
     30 H           2.6832    2.6773   -1.1534 H       1  UNL1        0.0577
     31 H           2.2959    2.4745    1.7418 H       1  UNL1        0.1496
     32 H          -2.4261    2.1985   -0.6727 H       1  UNL1        0.1550
     33 H          -4.4591    0.5095    1.2148 H       1  UNL1        0.0844
     34 H          -7.4651   -1.0704   -0.6094 H       1  UNL1        0.0456
     35 H          -6.4637   -1.9174    0.6603 H       1  UNL1        0.0456
     36 H          -7.0520   -0.2414    0.9092 H       1  UNL1        0.0456
     37 H          -5.6655   -1.2216   -2.4609 H       1  UNL1        0.1029
     38 H          -2.6570   -1.8705   -0.2714 H       1  UNL1        0.0640
     39 H          -1.2155   -3.9190    0.4167 H       1  UNL1        0.0807
     40 H           1.1710   -3.0571    1.0732 H       1  UNL1        0.1668
     41 H           4.6040   -0.7659   -3.2712 H       1  UNL1        0.0860
     42 H           4.9750   -1.7641    0.8355 H       1  UNL1        0.0860
@<TRIPOS>BOND
     1     1     2    1
     2     2     3    1
     3     3     4    1
     4     4     5   ar
     5     5     6   ar
     6     6     7    1
     7     7     8    1
     8     8     9   ar
     9     9    10   ar
    10    10    11    1
    11    10    12   ar
    12    12    13   ar
    13     6    14   ar
    14    14    15   ar
    15    15    16   ar
    16    16    17   ar
    17    17    18   ar
    18    18    19   ar
    19     2    20    1
    20    20    21   ar
    21    21    22   ar
    22    22    23   ar
    23    23    24    1
    24    23    25   ar
    25    25    26   ar
    26    19     4   ar
    27    26    20   ar
    28    13     8   ar
    29    18    14   ar
    30     1    27    1
    31     1    28    1
    32     1    29    1
    33     2    30    1
    34     3    31    1
    35     7    32    1
    36     9    33    1
    37    11    34    1
    38    11    35    1
    39    11    36    1
    40    12    37    1
    41    15    38    1
    42    16    39    1
    43    17    40    1
    44    22    41    1
    45    25    42    1
