
     RDKit          3D

 42 45  0  0  0  0  0  0  0  0999 V2000
    4.2257    3.2590    0.1848 C   0  0  0  0  0  0  0  0  0  0  0  0
    3.1698    2.2636   -0.2500 C   0  0  2  0  0  0  0  0  0  0  0  0
    2.2100    2.0167    0.8153 N   0  0  0  0  0  0  0  0  0  0  0  0
    1.1352    1.1328    0.5840 C   0  0  0  0  0  0  0  0  0  0  0  0
   -0.0651    1.5299    0.1604 N   0  0  0  0  0  0  0  0  0  0  0  0
   -1.1001    0.6471   -0.0640 C   0  0  0  0  0  0  0  0  0  0  0  0
   -2.3363    1.1294   -0.5061 N   0  0  0  0  0  0  0  0  0  0  0  0
   -3.4931    0.4178   -0.7686 C   0  0  0  0  0  0  0  0  0  0  0  0
   -4.4885    0.1800    0.1678 C   0  0  0  0  0  0  0  0  0  0  0  0
   -5.4417   -0.5039   -0.4559 N   0  0  0  0  0  0  0  0  0  0  0  0
   -6.6816   -0.9626    0.1718 C   0  0  0  0  0  0  0  0  0  0  0  0
   -5.0656   -0.6903   -1.7307 C   0  0  0  0  0  0  0  0  0  0  0  0
   -3.8677   -0.1316   -1.9490 N   0  0  0  0  0  0  0  0  0  0  0  0
   -0.8664   -0.6828    0.1620 C   0  0  0  0  0  0  0  0  0  0  0  0
   -1.6368   -1.8205    0.0471 C   0  0  0  0  0  0  0  0  0  0  0  0
   -0.8328   -2.8989    0.4227 C   0  0  0  0  0  0  0  0  0  0  0  0
    0.3761   -2.4363    0.7522 N   0  0  0  0  0  0  0  0  0  0  0  0
    0.3912   -1.1020    0.6063 C   0  0  0  0  0  0  0  0  0  0  0  0
    1.3296   -0.1772    0.7958 N   0  0  0  0  0  0  0  0  0  0  0  0
    3.7718    0.9569   -0.6165 C   0  0  0  0  0  0  0  0  0  0  0  0
    3.9255    0.6742   -1.9193 N   0  0  0  0  0  0  0  0  0  0  0  0
    4.4698   -0.5151   -2.2285 C   0  0  0  0  0  0  0  0  0  0  0  0
    4.8452   -1.3865   -1.2541 C   0  0  0  0  0  0  0  0  0  0  0  0
    5.3913   -2.5788   -1.5895 F   0  0  0  0  0  0  0  0  0  0  0  0
    4.6753   -1.0690    0.0784 C   0  0  0  0  0  0  0  0  0  0  0  0
    4.1375    0.1066    0.3735 N   0  0  0  0  0  0  0  0  0  0  0  0
    4.2609    3.3844    1.2808 H   0  0  0  0  0  0  0  0  0  0  0  0
    5.2013    2.9394   -0.2583 H   0  0  0  0  0  0  0  0  0  0  0  0
    4.0343    4.2853   -0.2296 H   0  0  0  0  0  0  0  0  0  0  0  0
    2.6832    2.6773   -1.1534 H   0  0  0  0  0  0  0  0  0  0  0  0
    2.2959    2.4745    1.7418 H   0  0  0  0  0  0  0  0  0  0  0  0
   -2.4261    2.1985   -0.6727 H   0  0  0  0  0  0  0  0  0  0  0  0
   -4.4591    0.5095    1.2148 H   0  0  0  0  0  0  0  0  0  0  0  0
   -7.4651   -1.0704   -0.6094 H   0  0  0  0  0  0  0  0  0  0  0  0
   -6.4637   -1.9174    0.6603 H   0  0  0  0  0  0  0  0  0  0  0  0
   -7.0520   -0.2414    0.9092 H   0  0  0  0  0  0  0  0  0  0  0  0
   -5.6655   -1.2216   -2.4609 H   0  0  0  0  0  0  0  0  0  0  0  0
   -2.6570   -1.8705   -0.2714 H   0  0  0  0  0  0  0  0  0  0  0  0
   -1.2155   -3.9190    0.4167 H   0  0  0  0  0  0  0  0  0  0  0  0
    1.1710   -3.0571    1.0732 H   0  0  0  0  0  0  0  0  0  0  0  0
    4.6040   -0.7659   -3.2712 H   0  0  0  0  0  0  0  0  0  0  0  0
    4.9750   -1.7641    0.8355 H   0  0  0  0  0  0  0  0  0  0  0  0
  1  2  1  0
  2  3  1  0
  3  4  1  0
  4  5  2  0
  5  6  1  0
  6  7  1  0
  7  8  1  0
  8  9  2  0
  9 10  1  0
 10 11  1  0
 10 12  1  0
 12 13  2  0
  6 14  2  0
 14 15  1  0
 15 16  2  0
 16 17  1  0
 17 18  1  0
 18 19  2  0
  2 20  1  0
 20 21  2  0
 21 22  1  0
 22 23  2  0
 23 24  1  0
 23 25  1  0
 25 26  2  0
 19  4  1  0
 26 20  1  0
 13  8  1  0
 18 14  1  0
  1 27  1  0
  1 28  1  0
  1 29  1  0
  2 30  1  6
  3 31  1  0
  7 32  1  0
  9 33  1  0
 11 34  1  0
 11 35  1  0
 11 36  1  0
 12 37  1  0
 15 38  1  0
 16 39  1  0
 17 40  1  0
 22 41  1  0
 25 42  1  0
M  END
$$$$
