@<TRIPOS>MOLECULE
*****
 40 43 0 0 0
SMALL
GASTEIGER

@<TRIPOS>ATOM
      1 C           2.5640    4.3666   -1.1916 C.3     1  UNL1       -0.0584
      2 C           2.2383    4.0430    0.2401 C.3     1  UNL1        0.0026
      3 C           1.5098    2.7311    0.3244 C.ar    1  UNL1        0.1079
      4 N           2.0556    1.5226    0.4622 N.ar    1  UNL1       -0.2319
      5 C           1.0810    0.5705    0.5038 C.ar    1  UNL1        0.0968
      6 C           1.3116   -0.8668    0.6486 C.ar    1  UNL1        0.0027
      7 C           1.4350   -1.4653    1.8818 C.ar    1  UNL1       -0.0525
      8 C           1.6538   -2.8159    2.0422 C.ar    1  UNL1       -0.0609
      9 C           1.7552   -3.6154    0.9148 C.ar    1  UNL1       -0.0588
     10 C           1.6367   -3.0503   -0.3260 C.ar    1  UNL1       -0.0498
     11 C           1.7447   -3.9060   -1.5458 C.3     1  UNL1       -0.0397
     12 C           1.4145   -1.6732   -0.4635 C.ar    1  UNL1       -0.0496
     13 C          -0.1010    1.2462    0.3852 C.ar    1  UNL1        0.0755
     14 C          -1.4206    0.6162    0.3802 C.ar    1  UNL1        0.0187
     15 C          -1.8677   -0.1011    1.4684 C.ar    1  UNL1       -0.0476
     16 C          -3.1014   -0.6915    1.4764 C.ar    1  UNL1       -0.0167
     17 C          -3.9346   -0.5737    0.3685 C.ar    1  UNL1        0.1557
     18 N          -5.1814   -1.0588    0.1389 N.ar    1  UNL1       -0.2149
     19 C          -5.5238   -0.6499   -1.0916 C.ar    1  UNL1        0.1390
     20 N          -4.4988    0.0648   -1.5834 N.ar    1  UNL1       -0.1535
     21 N          -3.5018    0.1234   -0.6907 N.ar    1  UNL1       -0.2198
     22 C          -2.2907    0.7048   -0.7032 C.ar    1  UNL1        0.0406
     23 N           0.1815    2.5567    0.2775 N.ar    1  UNL1       -0.3413
     24 H           1.9402    5.2197   -1.5269 H       1  UNL1        0.0234
     25 H           3.6209    4.7186   -1.2190 H       1  UNL1        0.0234
     26 H           2.4570    3.4826   -1.8582 H       1  UNL1        0.0234
     27 H           3.1525    3.9914    0.8576 H       1  UNL1        0.0340
     28 H           1.5467    4.7901    0.6776 H       1  UNL1        0.0340
     29 H           1.3583   -0.8574    2.7708 H       1  UNL1        0.0624
     30 H           1.7507   -3.2840    3.0212 H       1  UNL1        0.0618
     31 H           1.9277   -4.6767    1.0577 H       1  UNL1        0.0620
     32 H           0.7734   -3.9829   -2.0499 H       1  UNL1        0.0278
     33 H           2.0277   -4.9329   -1.2369 H       1  UNL1        0.0278
     34 H           2.5572   -3.5497   -2.2068 H       1  UNL1        0.0278
     35 H           1.3298   -1.2912   -1.4703 H       1  UNL1        0.0627
     36 H          -1.1852   -0.1702    2.3169 H       1  UNL1        0.0626
     37 H          -3.4433   -1.2546    2.3402 H       1  UNL1        0.0655
     38 H          -6.4782   -0.8884   -1.5530 H       1  UNL1        0.1066
     39 H          -1.9711    1.2608   -1.5756 H       1  UNL1        0.0837
     40 H          -0.5238    3.3465    0.1714 H       1  UNL1        0.1671
@<TRIPOS>BOND
     1     1     2    1
     2     2     3    1
     3     3     4   ar
     4     4     5   ar
     5     5     6    1
     6     6     7   ar
     7     7     8   ar
     8     8     9   ar
     9     9    10   ar
    10    10    11    1
    11    10    12   ar
    12     5    13   ar
    13    13    14    1
    14    14    15   ar
    15    15    16   ar
    16    16    17   ar
    17    17    18   ar
    18    18    19   ar
    19    19    20   ar
    20    20    21   ar
    21    21    22   ar
    22    13    23   ar
    23    23     3   ar
    24    12     6   ar
    25    22    14   ar
    26    21    17   ar
    27     1    24    1
    28     1    25    1
    29     1    26    1
    30     2    27    1
    31     2    28    1
    32     7    29    1
    33     8    30    1
    34     9    31    1
    35    11    32    1
    36    11    33    1
    37    11    34    1
    38    12    35    1
    39    15    36    1
    40    16    37    1
    41    19    38    1
    42    22    39    1
    43    23    40    1
