
     RDKit          3D

 34 36  0  0  0  0  0  0  0  0999 V2000
    5.2126    3.2457    0.3304 C   0  0  0  0  0  0  0  0  0  0  0  0
    4.4337    1.9752    0.4294 C   0  0  0  0  0  0  0  0  0  0  0  0
    5.0541    0.7915    0.7556 C   0  0  0  0  0  0  0  0  0  0  0  0
    4.3212   -0.3925    0.8467 C   0  0  0  0  0  0  0  0  0  0  0  0
    2.9592   -0.3651    0.6049 C   0  0  0  0  0  0  0  0  0  0  0  0
    2.2325   -1.4418    0.6773 O   0  0  0  0  0  0  0  0  0  0  0  0
    0.9285   -1.4866    0.4589 C   0  0  0  0  0  0  0  0  0  0  0  0
    0.4093   -2.5999    0.5741 O   0  0  0  0  0  0  0  0  0  0  0  0
    0.2250   -0.3735    0.1313 C   0  0  0  0  0  0  0  0  0  0  0  0
   -1.1891   -0.3535   -0.1182 C   0  0  0  0  0  0  0  0  0  0  0  0
   -1.7764    0.7514   -0.4240 O   0  0  0  0  0  0  0  0  0  0  0  0
   -2.0138   -1.4742   -0.0547 N   0  0  0  0  0  0  0  0  0  0  0  0
   -3.4363   -1.3830   -0.3187 C   0  0  0  0  0  0  0  0  0  0  0  0
   -4.3321   -1.1274    0.6958 C   0  0  0  0  0  0  0  0  0  0  0  0
   -5.7029   -1.0415    0.4298 C   0  0  0  0  0  0  0  0  0  0  0  0
   -6.1557   -1.2151   -0.8612 C   0  0  0  0  0  0  0  0  0  0  0  0
   -5.2724   -1.4725   -1.8936 C   0  0  0  0  0  0  0  0  0  0  0  0
   -5.8844   -1.6876   -3.5222 Cl  0  0  0  0  0  0  0  0  0  0  0  0
   -3.9363   -1.5489   -1.5906 C   0  0  0  0  0  0  0  0  0  0  0  0
    0.9480    0.8235    0.0361 C   0  0  0  0  0  0  0  0  0  0  0  0
    2.3000    0.8253    0.2707 C   0  0  0  0  0  0  0  0  0  0  0  0
    3.0806    1.9514    0.1987 C   0  0  0  0  0  0  0  0  0  0  0  0
    6.1798    3.0265   -0.1266 H   0  0  0  0  0  0  0  0  0  0  0  0
    4.5900    3.9581   -0.2722 H   0  0  0  0  0  0  0  0  0  0  0  0
    5.3765    3.6848    1.3354 H   0  0  0  0  0  0  0  0  0  0  0  0
    6.1301    0.7763    0.9454 H   0  0  0  0  0  0  0  0  0  0  0  0
    4.8287   -1.3142    1.1049 H   0  0  0  0  0  0  0  0  0  0  0  0
   -1.6899   -2.4218    0.1764 H   0  0  0  0  0  0  0  0  0  0  0  0
   -3.9855   -0.9906    1.7074 H   0  0  0  0  0  0  0  0  0  0  0  0
   -6.4222   -0.8415    1.2131 H   0  0  0  0  0  0  0  0  0  0  0  0
   -7.2115   -1.1524   -1.0864 H   0  0  0  0  0  0  0  0  0  0  0  0
   -3.2479   -1.7465   -2.3775 H   0  0  0  0  0  0  0  0  0  0  0  0
    0.4465    1.7335   -0.2189 H   0  0  0  0  0  0  0  0  0  0  0  0
    2.5999    2.8868   -0.0575 H   0  0  0  0  0  0  0  0  0  0  0  0
  1  2  1  0
  2  3  2  0
  3  4  1  0
  4  5  2  0
  5  6  1  0
  6  7  1  0
  7  8  2  0
  7  9  1  0
  9 10  1  0
 10 11  2  0
 10 12  1  0
 12 13  1  0
 13 14  2  0
 14 15  1  0
 15 16  2  0
 16 17  1  0
 17 18  1  0
 17 19  2  0
  9 20  2  0
 20 21  1  0
 21 22  2  0
 22  2  1  0
 21  5  1  0
 19 13  1  0
  1 23  1  0
  1 24  1  0
  1 25  1  0
  3 26  1  0
  4 27  1  0
 12 28  1  0
 14 29  1  0
 15 30  1  0
 16 31  1  0
 19 32  1  0
 20 33  1  0
 22 34  1  0
M  END
$$$$
