@<TRIPOS>MOLECULE
*****
 34 36 0 0 0
SMALL
GASTEIGER

@<TRIPOS>ATOM
      1 C           5.2126    3.2457    0.3304 C.3     1  UNL1       -0.0397
      2 C           4.4337    1.9752    0.4294 C.ar    1  UNL1       -0.0497
      3 C           5.0541    0.7915    0.7556 C.ar    1  UNL1       -0.0553
      4 C           4.3212   -0.3925    0.8467 C.ar    1  UNL1       -0.0184
      5 C           2.9592   -0.3651    0.6049 C.ar    1  UNL1        0.1391
      6 O           2.2325   -1.4418    0.6773 O.2     1  UNL1       -0.4216
      7 C           0.9285   -1.4866    0.4589 C.ar    1  UNL1        0.3495
      8 O           0.4093   -2.5999    0.5741 O.2     1  UNL1       -0.2443
      9 C           0.2250   -0.3735    0.1313 C.ar    1  UNL1        0.1219
     10 C          -1.1891   -0.3535   -0.1182 C.2     1  UNL1        0.2552
     11 O          -1.7764    0.7514   -0.4240 O.2     1  UNL1       -0.2696
     12 N          -2.0138   -1.4742   -0.0547 N.am    1  UNL1       -0.2813
     13 C          -3.4363   -1.3830   -0.3187 C.ar    1  UNL1        0.0351
     14 C          -4.3321   -1.1274    0.6958 C.ar    1  UNL1       -0.0404
     15 C          -5.7029   -1.0415    0.4298 C.ar    1  UNL1       -0.0586
     16 C          -6.1557   -1.2151   -0.8612 C.ar    1  UNL1       -0.0433
     17 C          -5.2724   -1.4725   -1.8936 C.ar    1  UNL1        0.0427
     18 CL         -5.8844   -1.6876   -3.5222 Cl      1  UNL1       -0.0835
     19 C          -3.9363   -1.5489   -1.5906 C.ar    1  UNL1       -0.0221
     20 C           0.9480    0.8235    0.0361 C.ar    1  UNL1       -0.0320
     21 C           2.3000    0.8253    0.2707 C.ar    1  UNL1        0.0186
     22 C           3.0806    1.9514    0.1987 C.ar    1  UNL1       -0.0481
     23 H           6.1798    3.0265   -0.1266 H       1  UNL1        0.0278
     24 H           4.5900    3.9581   -0.2722 H       1  UNL1        0.0278
     25 H           5.3765    3.6848    1.3354 H       1  UNL1        0.0278
     26 H           6.1301    0.7763    0.9454 H       1  UNL1        0.0621
     27 H           4.8287   -1.3142    1.1049 H       1  UNL1        0.0654
     28 H          -1.6899   -2.4218    0.1764 H       1  UNL1        0.1551
     29 H          -3.9855   -0.9906    1.7074 H       1  UNL1        0.0636
     30 H          -6.4222   -0.8415    1.2131 H       1  UNL1        0.0619
     31 H          -7.2115   -1.1524   -1.0864 H       1  UNL1        0.0632
     32 H          -3.2479   -1.7465   -2.3775 H       1  UNL1        0.0651
     33 H           0.4465    1.7335   -0.2189 H       1  UNL1        0.0634
     34 H           2.5999    2.8868   -0.0575 H       1  UNL1        0.0627
@<TRIPOS>BOND
     1     1     2    1
     2     2     3   ar
     3     3     4   ar
     4     4     5   ar
     5     5     6   ar
     6     6     7   ar
     7     7     8    2
     8     7     9   ar
     9     9    10    1
    10    10    11    2
    11    10    12   am
    12    12    13    1
    13    13    14   ar
    14    14    15   ar
    15    15    16   ar
    16    16    17   ar
    17    17    18    1
    18    17    19   ar
    19     9    20   ar
    20    20    21   ar
    21    21    22   ar
    22    22     2   ar
    23    21     5   ar
    24    19    13   ar
    25     1    23    1
    26     1    24    1
    27     1    25    1
    28     3    26    1
    29     4    27    1
    30    12    28    1
    31    14    29    1
    32    15    30    1
    33    16    31    1
    34    19    32    1
    35    20    33    1
    36    22    34    1
