@<TRIPOS>MOLECULE
*****
 54 56 0 0 0
SMALL
GASTEIGER

@<TRIPOS>ATOM
      1 C          -4.2425   -1.2337   -1.8030 C.3     1  UNL1       -0.0644
      2 C          -3.8170   -1.9141   -0.5251 C.3     1  UNL1       -0.0438
      3 C          -2.4234   -1.6161   -0.1847 C.3     1  UNL1        0.0245
      4 C          -2.0421   -0.2275    0.0515 C.ar    1  UNL1       -0.0258
      5 C          -2.9073    0.8283    0.0391 C.ar    1  UNL1       -0.0119
      6 C          -2.4879    2.1073    0.3067 C.ar    1  UNL1        0.1618
      7 O          -3.4392    3.1016    0.2674 O.3     1  UNL1       -0.4914
      8 C          -4.7680    2.8018   -0.0334 C.3     1  UNL1        0.0790
      9 C          -1.1871    2.4273    0.6052 C.ar    1  UNL1        0.1621
     10 O          -0.7957    3.7221    0.8700 O.3     1  UNL1       -0.4914
     11 C           0.5069    4.1131    1.1793 C.3     1  UNL1        0.0790
     12 C          -0.3013    1.3991    0.6264 C.ar    1  UNL1       -0.0068
     13 C          -0.7031    0.0744    0.3527 C.ar    1  UNL1        0.0102
     14 C           0.4980   -0.7750    0.4479 C.2     1  UNL1        0.1009
     15 N           0.4347   -1.9741    0.9882 N.2     1  UNL1       -0.1487
     16 N          -0.7262   -2.5972    1.5244 N.2     1  UNL1       -0.1577
     17 C          -1.9201   -2.4176    0.9949 C.2     1  UNL1        0.0454
     18 C          -3.0427   -3.1385    1.6705 C.3     1  UNL1       -0.0239
     19 C           1.7784   -0.3037   -0.0292 C.ar    1  UNL1        0.0064
     20 C           2.8119   -1.1827    0.3308 C.ar    1  UNL1       -0.0071
     21 C           4.1371   -0.9762   -0.0703 C.ar    1  UNL1        0.1621
     22 O           5.1638   -1.8439    0.2839 O.3     1  UNL1       -0.4914
     23 C           4.8747   -2.9782    1.0760 C.3     1  UNL1        0.0790
     24 C           4.4787    0.1096   -0.8416 C.ar    1  UNL1        0.1615
     25 O           5.7907    0.3018   -1.2296 O.3     1  UNL1       -0.4915
     26 C           6.2484    1.3664   -2.0099 C.3     1  UNL1        0.0790
     27 C           3.4847    0.9692   -1.1984 C.ar    1  UNL1       -0.0157
     28 C           2.1931    0.7432   -0.7927 C.ar    1  UNL1       -0.0488
     29 H          -4.4034   -2.0053   -2.6048 H       1  UNL1        0.0230
     30 H          -5.2226   -0.7136   -1.7291 H       1  UNL1        0.0230
     31 H          -3.4413   -0.5793   -2.2416 H       1  UNL1        0.0230
     32 H          -3.8838   -3.0205   -0.7160 H       1  UNL1        0.0272
     33 H          -4.5491   -1.7538    0.2971 H       1  UNL1        0.0272
     34 H          -1.7869   -1.9646   -1.0608 H       1  UNL1        0.0410
     35 H          -3.9013    0.5446   -0.1866 H       1  UNL1        0.0658
     36 H          -5.4632    3.6387    0.1211 H       1  UNL1        0.0660
     37 H          -4.8828    2.4511   -1.0797 H       1  UNL1        0.0660
     38 H          -5.1134    1.9834    0.6567 H       1  UNL1        0.0660
     39 H           1.2231    3.5830    0.4849 H       1  UNL1        0.0660
     40 H           0.6432    5.2035    0.9526 H       1  UNL1        0.0660
     41 H           0.8141    3.8718    2.2242 H       1  UNL1        0.0660
     42 H           0.7264    1.6097    0.9006 H       1  UNL1        0.0662
     43 H          -2.6258   -3.6472    2.5615 H       1  UNL1        0.0290
     44 H          -3.8166   -2.4487    2.0680 H       1  UNL1        0.0290
     45 H          -3.4570   -3.9607    1.0417 H       1  UNL1        0.0290
     46 H           2.7101   -2.0946    0.9415 H       1  UNL1        0.0662
     47 H           4.1616   -3.6668    0.5784 H       1  UNL1        0.0660
     48 H           5.8340   -3.5166    1.2381 H       1  UNL1        0.0660
     49 H           4.4671   -2.6882    2.0752 H       1  UNL1        0.0660
     50 H           5.5095    1.8352   -2.6653 H       1  UNL1        0.0660
     51 H           6.6029    2.1508   -1.2819 H       1  UNL1        0.0660
     52 H           7.1753    1.0664   -2.5583 H       1  UNL1        0.0660
     53 H           3.6640    1.8450   -1.8012 H       1  UNL1        0.0655
     54 H           1.4185    1.3898   -1.1133 H       1  UNL1        0.0625
@<TRIPOS>BOND
     1     1     2    1
     2     2     3    1
     3     3     4    1
     4     4     5   ar
     5     5     6   ar
     6     6     7    1
     7     7     8    1
     8     6     9   ar
     9     9    10    1
    10    10    11    1
    11     9    12   ar
    12    12    13   ar
    13    13    14    1
    14    14    15    2
    15    15    16    1
    16    16    17    2
    17    17    18    1
    18    14    19    1
    19    19    20   ar
    20    20    21   ar
    21    21    22    1
    22    22    23    1
    23    21    24   ar
    24    24    25    1
    25    25    26    1
    26    24    27   ar
    27    27    28   ar
    28    17     3    1
    29    28    19   ar
    30    13     4   ar
    31     1    29    1
    32     1    30    1
    33     1    31    1
    34     2    32    1
    35     2    33    1
    36     3    34    1
    37     5    35    1
    38     8    36    1
    39     8    37    1
    40     8    38    1
    41    11    39    1
    42    11    40    1
    43    11    41    1
    44    12    42    1
    45    18    43    1
    46    18    44    1
    47    18    45    1
    48    20    46    1
    49    23    47    1
    50    23    48    1
    51    23    49    1
    52    26    50    1
    53    26    51    1
    54    26    52    1
    55    27    53    1
    56    28    54    1
