
     RDKit          3D

 54 56  0  0  0  0  0  0  0  0999 V2000
   -4.2425   -1.2337   -1.8030 C   0  0  0  0  0  0  0  0  0  0  0  0
   -3.8170   -1.9141   -0.5251 C   0  0  0  0  0  0  0  0  0  0  0  0
   -2.4234   -1.6161   -0.1847 C   0  0  0  0  0  0  0  0  0  0  0  0
   -2.0421   -0.2275    0.0515 C   0  0  0  0  0  0  0  0  0  0  0  0
   -2.9073    0.8283    0.0391 C   0  0  0  0  0  0  0  0  0  0  0  0
   -2.4879    2.1073    0.3067 C   0  0  0  0  0  0  0  0  0  0  0  0
   -3.4392    3.1016    0.2674 O   0  0  0  0  0  0  0  0  0  0  0  0
   -4.7680    2.8018   -0.0334 C   0  0  0  0  0  0  0  0  0  0  0  0
   -1.1871    2.4273    0.6052 C   0  0  0  0  0  0  0  0  0  0  0  0
   -0.7957    3.7221    0.8700 O   0  0  0  0  0  0  0  0  0  0  0  0
    0.5069    4.1131    1.1793 C   0  0  0  0  0  0  0  0  0  0  0  0
   -0.3013    1.3991    0.6264 C   0  0  0  0  0  0  0  0  0  0  0  0
   -0.7031    0.0744    0.3527 C   0  0  0  0  0  0  0  0  0  0  0  0
    0.4980   -0.7750    0.4479 C   0  0  0  0  0  0  0  0  0  0  0  0
    0.4347   -1.9741    0.9882 N   0  0  0  0  0  0  0  0  0  0  0  0
   -0.7262   -2.5972    1.5244 N   0  0  0  0  0  0  0  0  0  0  0  0
   -1.9201   -2.4176    0.9949 C   0  0  0  0  0  0  0  0  0  0  0  0
   -3.0427   -3.1385    1.6705 C   0  0  0  0  0  0  0  0  0  0  0  0
    1.7784   -0.3037   -0.0292 C   0  0  0  0  0  0  0  0  0  0  0  0
    2.8119   -1.1827    0.3308 C   0  0  0  0  0  0  0  0  0  0  0  0
    4.1371   -0.9762   -0.0703 C   0  0  0  0  0  0  0  0  0  0  0  0
    5.1638   -1.8439    0.2839 O   0  0  0  0  0  0  0  0  0  0  0  0
    4.8747   -2.9782    1.0760 C   0  0  0  0  0  0  0  0  0  0  0  0
    4.4787    0.1096   -0.8416 C   0  0  0  0  0  0  0  0  0  0  0  0
    5.7907    0.3018   -1.2296 O   0  0  0  0  0  0  0  0  0  0  0  0
    6.2484    1.3664   -2.0099 C   0  0  0  0  0  0  0  0  0  0  0  0
    3.4847    0.9692   -1.1984 C   0  0  0  0  0  0  0  0  0  0  0  0
    2.1931    0.7432   -0.7927 C   0  0  0  0  0  0  0  0  0  0  0  0
   -4.4034   -2.0053   -2.6048 H   0  0  0  0  0  0  0  0  0  0  0  0
   -5.2226   -0.7136   -1.7291 H   0  0  0  0  0  0  0  0  0  0  0  0
   -3.4413   -0.5793   -2.2416 H   0  0  0  0  0  0  0  0  0  0  0  0
   -3.8838   -3.0205   -0.7160 H   0  0  0  0  0  0  0  0  0  0  0  0
   -4.5491   -1.7538    0.2971 H   0  0  0  0  0  0  0  0  0  0  0  0
   -1.7869   -1.9646   -1.0608 H   0  0  0  0  0  0  0  0  0  0  0  0
   -3.9013    0.5446   -0.1866 H   0  0  0  0  0  0  0  0  0  0  0  0
   -5.4632    3.6387    0.1211 H   0  0  0  0  0  0  0  0  0  0  0  0
   -4.8828    2.4511   -1.0797 H   0  0  0  0  0  0  0  0  0  0  0  0
   -5.1134    1.9834    0.6567 H   0  0  0  0  0  0  0  0  0  0  0  0
    1.2231    3.5830    0.4849 H   0  0  0  0  0  0  0  0  0  0  0  0
    0.6432    5.2035    0.9526 H   0  0  0  0  0  0  0  0  0  0  0  0
    0.8141    3.8718    2.2242 H   0  0  0  0  0  0  0  0  0  0  0  0
    0.7264    1.6097    0.9006 H   0  0  0  0  0  0  0  0  0  0  0  0
   -2.6258   -3.6472    2.5615 H   0  0  0  0  0  0  0  0  0  0  0  0
   -3.8166   -2.4487    2.0680 H   0  0  0  0  0  0  0  0  0  0  0  0
   -3.4570   -3.9607    1.0417 H   0  0  0  0  0  0  0  0  0  0  0  0
    2.7101   -2.0946    0.9415 H   0  0  0  0  0  0  0  0  0  0  0  0
    4.1616   -3.6668    0.5784 H   0  0  0  0  0  0  0  0  0  0  0  0
    5.8340   -3.5166    1.2381 H   0  0  0  0  0  0  0  0  0  0  0  0
    4.4671   -2.6882    2.0752 H   0  0  0  0  0  0  0  0  0  0  0  0
    5.5095    1.8352   -2.6653 H   0  0  0  0  0  0  0  0  0  0  0  0
    6.6029    2.1508   -1.2819 H   0  0  0  0  0  0  0  0  0  0  0  0
    7.1753    1.0664   -2.5583 H   0  0  0  0  0  0  0  0  0  0  0  0
    3.6640    1.8450   -1.8012 H   0  0  0  0  0  0  0  0  0  0  0  0
    1.4185    1.3898   -1.1133 H   0  0  0  0  0  0  0  0  0  0  0  0
  1  2  1  0
  2  3  1  0
  3  4  1  0
  4  5  2  0
  5  6  1  0
  6  7  1  0
  7  8  1  0
  6  9  2  0
  9 10  1  0
 10 11  1  0
  9 12  1  0
 12 13  2  0
 13 14  1  0
 14 15  2  0
 15 16  1  0
 16 17  2  0
 17 18  1  0
 14 19  1  0
 19 20  2  0
 20 21  1  0
 21 22  1  0
 22 23  1  0
 21 24  2  0
 24 25  1  0
 25 26  1  0
 24 27  1  0
 27 28  2  0
 17  3  1  0
 28 19  1  0
 13  4  1  0
  1 29  1  0
  1 30  1  0
  1 31  1  0
  2 32  1  0
  2 33  1  0
  3 34  1  0
  5 35  1  0
  8 36  1  0
  8 37  1  0
  8 38  1  0
 11 39  1  0
 11 40  1  0
 11 41  1  0
 12 42  1  0
 18 43  1  0
 18 44  1  0
 18 45  1  0
 20 46  1  0
 23 47  1  0
 23 48  1  0
 23 49  1  0
 26 50  1  0
 26 51  1  0
 26 52  1  0
 27 53  1  0
 28 54  1  0
M  END
$$$$
