@<TRIPOS>MOLECULE
*****
 55 56 0 0 0
SMALL
GASTEIGER

@<TRIPOS>ATOM
      1 C          -4.2799    1.9077   -2.7457 C.3     1  UNL1       -0.0570
      2 C          -3.1275    0.9749   -2.4358 C.3     1  UNL1        0.0217
      3 C          -2.8980    0.8884   -0.9693 C.2     1  UNL1        0.2205
      4 O          -3.6003    1.5219   -0.1243 O.2     1  UNL1       -0.2752
      5 N          -1.9268    0.1418   -0.2579 N.am    1  UNL1       -0.2547
      6 C          -2.3469    0.5926    1.0458 C.ar    1  UNL1        0.0374
      7 C          -3.3359   -0.1325    1.7099 C.ar    1  UNL1       -0.0402
      8 C          -3.8473    0.1635    2.9656 C.ar    1  UNL1       -0.0600
      9 C          -3.3075    1.2868    3.5925 C.ar    1  UNL1       -0.0616
     10 C          -2.3243    2.0269    2.9584 C.ar    1  UNL1       -0.0600
     11 C          -1.8368    1.6931    1.6908 C.ar    1  UNL1       -0.0402
     12 C          -0.8205   -0.7978   -0.4988 C.3     1  UNL1        0.1408
     13 C          -0.1467   -1.2067    0.7594 C.3     1  UNL1       -0.0078
     14 C           1.1979   -0.5317    0.9961 C.3     1  UNL1        0.0014
     15 N           2.0425   -0.5751   -0.1301 N.3     1  UNL1       -0.3016
     16 C           3.4313   -0.5320    0.0173 C.3     1  UNL1        0.0090
     17 C           3.8171    0.8636    0.5180 C.3     1  UNL1        0.0576
     18 C           5.2930    0.9226    0.6692 C.2     1  UNL1        0.3080
     19 O           5.9573   -0.1242    0.3808 O.2     1  UNL1       -0.2508
     20 O           5.9860    2.0393    1.1000 O.3     1  UNL1       -0.4679
     21 C           7.4169    2.0229    1.2184 C.3     1  UNL1        0.0817
     22 C           1.4646   -1.0447   -1.3298 C.3     1  UNL1        0.0014
     23 C           0.1466   -0.2745   -1.4978 C.3     1  UNL1       -0.0078
     24 C          -1.4763   -2.0313   -1.0586 C.2     1  UNL1        0.3312
     25 O          -2.7181   -2.1529   -1.2449 O.2     1  UNL1       -0.2484
     26 O          -0.8574   -3.1852   -1.4459 O.3     1  UNL1       -0.4664
     27 C          -1.5640   -4.2922   -1.9622 C.3     1  UNL1        0.0817
     28 H          -3.9028    2.9290   -2.9137 H       1  UNL1        0.0234
     29 H          -4.7608    1.5942   -3.7031 H       1  UNL1        0.0234
     30 H          -5.0412    1.8887   -1.9523 H       1  UNL1        0.0234
     31 H          -2.2451    1.3157   -2.9964 H       1  UNL1        0.0356
     32 H          -3.4139   -0.0126   -2.8138 H       1  UNL1        0.0356
     33 H          -3.7459   -0.9941    1.2187 H       1  UNL1        0.0636
     34 H          -4.6211   -0.4732    3.3925 H       1  UNL1        0.0618
     35 H          -3.6828    1.5482    4.5736 H       1  UNL1        0.0618
     36 H          -1.9017    2.9094    3.4572 H       1  UNL1        0.0618
     37 H          -1.0825    2.2526    1.1938 H       1  UNL1        0.0636
     38 H          -0.7447   -0.9962    1.6659 H       1  UNL1        0.0304
     39 H           0.0625   -2.3095    0.7776 H       1  UNL1        0.0304
     40 H           0.9534    0.5559    1.1778 H       1  UNL1        0.0427
     41 H           1.6092   -0.9711    1.9257 H       1  UNL1        0.0427
     42 H           3.9101   -0.6150   -0.9690 H       1  UNL1        0.0432
     43 H           3.8763   -1.3141    0.6654 H       1  UNL1        0.0432
     44 H           3.3624    1.1022    1.4826 H       1  UNL1        0.0390
     45 H           3.5057    1.5684   -0.3054 H       1  UNL1        0.0390
     46 H           7.7249    0.9971    1.5118 H       1  UNL1        0.0661
     47 H           7.6735    2.7539    2.0061 H       1  UNL1        0.0661
     48 H           7.8440    2.3178    0.2261 H       1  UNL1        0.0661
     49 H           2.1218   -0.8740   -2.2023 H       1  UNL1        0.0427
     50 H           1.2071   -2.1135   -1.2327 H       1  UNL1        0.0427
     51 H          -0.1905   -0.2765   -2.5418 H       1  UNL1        0.0304
     52 H           0.4316    0.7849   -1.2444 H       1  UNL1        0.0304
     53 H          -1.1471   -5.2605   -1.6118 H       1  UNL1        0.0661
     54 H          -2.6274   -4.2674   -1.6428 H       1  UNL1        0.0661
     55 H          -1.5142   -4.2053   -3.0662 H       1  UNL1        0.0661
@<TRIPOS>BOND
     1     1     2    1
     2     2     3    1
     3     3     4    2
     4     3     5   am
     5     5     6    1
     6     6     7   ar
     7     7     8   ar
     8     8     9   ar
     9     9    10   ar
    10    10    11   ar
    11     5    12    1
    12    12    13    1
    13    13    14    1
    14    14    15    1
    15    15    16    1
    16    16    17    1
    17    17    18    1
    18    18    19    2
    19    18    20    1
    20    20    21    1
    21    15    22    1
    22    22    23    1
    23    12    24    1
    24    24    25    2
    25    24    26    1
    26    26    27    1
    27    11     6   ar
    28    23    12    1
    29     1    28    1
    30     1    29    1
    31     1    30    1
    32     2    31    1
    33     2    32    1
    34     7    33    1
    35     8    34    1
    36     9    35    1
    37    10    36    1
    38    11    37    1
    39    13    38    1
    40    13    39    1
    41    14    40    1
    42    14    41    1
    43    16    42    1
    44    16    43    1
    45    17    44    1
    46    17    45    1
    47    21    46    1
    48    21    47    1
    49    21    48    1
    50    22    49    1
    51    22    50    1
    52    23    51    1
    53    23    52    1
    54    27    53    1
    55    27    54    1
    56    27    55    1
