
     RDKit          3D

 36 37  0  0  0  0  0  0  0  0999 V2000
   -4.4848   -0.2257    3.1786 O   0  0  0  0  0  0  0  0  0  0  0  0
   -3.5127   -0.1265    2.3919 C   0  0  0  0  0  0  0  0  0  0  0  0
   -2.9642    1.1254    2.1763 O   0  0  0  0  0  0  0  0  0  0  0  0
   -2.9722   -1.3338    1.7159 C   0  0  0  0  0  0  0  0  0  0  0  0
   -1.9440   -1.0771    0.8113 O   0  0  0  0  0  0  0  0  0  0  0  0
   -2.1739   -0.3182   -0.3131 C   0  0  0  0  0  0  0  0  0  0  0  0
   -3.4696    0.1834   -0.5660 C   0  0  0  0  0  0  0  0  0  0  0  0
   -3.7319    0.9415   -1.6799 C   0  0  0  0  0  0  0  0  0  0  0  0
   -5.3607    1.5376   -1.9410 Cl  0  0  0  0  0  0  0  0  0  0  0  0
   -2.6913    1.1916   -2.5349 C   0  0  0  0  0  0  0  0  0  0  0  0
   -1.4239    0.7119   -2.3075 C   0  0  0  0  0  0  0  0  0  0  0  0
   -1.1361   -0.0661   -1.1717 C   0  0  0  0  0  0  0  0  0  0  0  0
    0.2193   -0.5248   -0.9974 C   0  0  0  0  0  0  0  0  0  0  0  0
    1.0652   -0.2108   -1.9109 O   0  0  0  0  0  0  0  0  0  0  0  0
    0.7426   -1.2776    0.0464 N   0  0  0  0  0  0  0  0  0  0  0  0
    2.0648   -1.7801    0.2752 C   0  0  0  0  0  0  0  0  0  0  0  0
    3.0677   -0.7009    0.1849 C   0  0  0  0  0  0  0  0  0  0  0  0
    3.8253   -0.4279   -0.9156 C   0  0  0  0  0  0  0  0  0  0  0  0
    3.8676   -1.6291   -2.3994 Br  0  0  0  0  0  0  0  0  0  0  0  0
    4.6666    0.6593   -0.9811 C   0  0  0  0  0  0  0  0  0  0  0  0
    5.7175    1.0315   -2.5310 Br  0  0  0  0  0  0  0  0  0  0  0  0
    4.7308    1.4852    0.1200 C   0  0  0  0  0  0  0  0  0  0  0  0
    5.8677    3.0117    0.1168 Br  0  0  0  0  0  0  0  0  0  0  0  0
    3.9809    1.2203    1.2263 C   0  0  0  0  0  0  0  0  0  0  0  0
    4.0920    2.3798    2.7337 Br  0  0  0  0  0  0  0  0  0  0  0  0
    3.1500    0.1453    1.2846 C   0  0  0  0  0  0  0  0  0  0  0  0
    2.1049   -0.2053    2.8554 Br  0  0  0  0  0  0  0  0  0  0  0  0
   -3.5430    1.9787    2.1779 H   0  0  0  0  0  0  0  0  0  0  0  0
   -3.8319   -1.8004    1.1518 H   0  0  0  0  0  0  0  0  0  0  0  0
   -2.6864   -2.0919    2.4849 H   0  0  0  0  0  0  0  0  0  0  0  0
   -4.2562   -0.0726    0.1437 H   0  0  0  0  0  0  0  0  0  0  0  0
   -2.9149    1.7954   -3.4150 H   0  0  0  0  0  0  0  0  0  0  0  0
   -0.6132    0.9256   -3.0056 H   0  0  0  0  0  0  0  0  0  0  0  0
    0.0547   -1.5455    0.8420 H   0  0  0  0  0  0  0  0  0  0  0  0
    2.3386   -2.5731   -0.4921 H   0  0  0  0  0  0  0  0  0  0  0  0
    2.1546   -2.3366    1.2444 H   0  0  0  0  0  0  0  0  0  0  0  0
  1  2  2  0
  2  3  1  0
  2  4  1  0
  4  5  1  0
  5  6  1  0
  6  7  2  0
  7  8  1  0
  8  9  1  0
  8 10  2  0
 10 11  1  0
 11 12  2  0
 12 13  1  0
 13 14  2  0
 13 15  1  0
 15 16  1  0
 16 17  1  0
 17 18  2  0
 18 19  1  0
 18 20  1  0
 20 21  1  0
 20 22  2  0
 22 23  1  0
 22 24  1  0
 24 25  1  0
 24 26  2  0
 26 27  1  0
 12  6  1  0
 26 17  1  0
  3 28  1  0
  4 29  1  0
  4 30  1  0
  7 31  1  0
 10 32  1  0
 11 33  1  0
 15 34  1  0
 16 35  1  0
 16 36  1  0
M  END
$$$$
