@<TRIPOS>MOLECULE
*****
 36 37 0 0 0
SMALL
GASTEIGER

@<TRIPOS>ATOM
      1 O          -4.4848   -0.2257    3.1786 O.2     1  UNL1       -0.2472
      2 C          -3.5127   -0.1265    2.3919 C.2     1  UNL1        0.3427
      3 O          -2.9642    1.1254    2.1763 O.3     1  UNL1       -0.4783
      4 C          -2.9722   -1.3338    1.7159 C.3     1  UNL1        0.1857
      5 O          -1.9440   -1.0771    0.8113 O.3     1  UNL1       -0.4800
      6 C          -2.1739   -0.3182   -0.3131 C.ar    1  UNL1        0.1348
      7 C          -3.4696    0.1834   -0.5660 C.ar    1  UNL1       -0.0008
      8 C          -3.7319    0.9415   -1.6799 C.ar    1  UNL1        0.0445
      9 CL         -5.3607    1.5376   -1.9410 Cl      1  UNL1       -0.0834
     10 C          -2.6913    1.1916   -2.5349 C.ar    1  UNL1       -0.0424
     11 C          -1.4239    0.7119   -2.3075 C.ar    1  UNL1       -0.0447
     12 C          -1.1361   -0.0661   -1.1717 C.ar    1  UNL1        0.0784
     13 C           0.2193   -0.5248   -0.9974 C.2     1  UNL1        0.2479
     14 O           1.0652   -0.2108   -1.9109 O.2     1  UNL1       -0.2701
     15 N           0.7426   -1.2776    0.0464 N.am    1  UNL1       -0.3071
     16 C           2.0648   -1.7801    0.2752 C.3     1  UNL1        0.0393
     17 C           3.0677   -0.7009    0.1849 C.ar    1  UNL1       -0.0003
     18 C           3.8253   -0.4279   -0.9156 C.ar    1  UNL1        0.0387
     19 BR          3.8676   -1.6291   -2.3994 Br      1  UNL1       -0.0487
     20 C           4.6666    0.6593   -0.9811 C.ar    1  UNL1        0.0472
     21 BR          5.7175    1.0315   -2.5310 Br      1  UNL1       -0.0480
     22 C           4.7308    1.4852    0.1200 C.ar    1  UNL1        0.0479
     23 BR          5.8677    3.0117    0.1168 Br      1  UNL1       -0.0479
     24 C           3.9809    1.2203    1.2263 C.ar    1  UNL1        0.0472
     25 BR          4.0920    2.3798    2.7337 Br      1  UNL1       -0.0480
     26 C           3.1500    0.1453    1.2846 C.ar    1  UNL1        0.0387
     27 BR          2.1049   -0.2053    2.8554 Br      1  UNL1       -0.0487
     28 H          -3.5430    1.9787    2.1779 H       1  UNL1        0.2952
     29 H          -3.8319   -1.8004    1.1518 H       1  UNL1        0.0815
     30 H          -2.6864   -2.0919    2.4849 H       1  UNL1        0.0815
     31 H          -4.2562   -0.0726    0.1437 H       1  UNL1        0.0669
     32 H          -2.9149    1.7954   -3.4150 H       1  UNL1        0.0632
     33 H          -0.6132    0.9256   -3.0056 H       1  UNL1        0.0627
     34 H           0.0547   -1.5455    0.8420 H       1  UNL1        0.1493
     35 H           2.3386   -2.5731   -0.4921 H       1  UNL1        0.0512
     36 H           2.1546   -2.3366    1.2444 H       1  UNL1        0.0512
@<TRIPOS>BOND
     1     1     2    2
     2     2     3    1
     3     2     4    1
     4     4     5    1
     5     5     6    1
     6     6     7   ar
     7     7     8   ar
     8     8     9    1
     9     8    10   ar
    10    10    11   ar
    11    11    12   ar
    12    12    13    1
    13    13    14    2
    14    13    15   am
    15    15    16    1
    16    16    17    1
    17    17    18   ar
    18    18    19    1
    19    18    20   ar
    20    20    21    1
    21    20    22   ar
    22    22    23    1
    23    22    24   ar
    24    24    25    1
    25    24    26   ar
    26    26    27    1
    27    12     6   ar
    28    26    17   ar
    29     3    28    1
    30     4    29    1
    31     4    30    1
    32     7    31    1
    33    10    32    1
    34    11    33    1
    35    15    34    1
    36    16    35    1
    37    16    36    1
