
     RDKit          3D

 39 39  0  0  0  0  0  0  0  0999 V2000
   -2.3914    0.5346   -0.5811 C   0  0  2  0  0  0  0  0  0  0  0  0
   -2.9153    1.1146    0.6971 C   0  0  0  0  0  0  0  0  0  0  0  0
   -3.5786    2.4362    0.3573 C   0  0  0  0  0  0  0  0  0  0  0  0
   -3.5604    0.3399   -1.5017 C   0  0  0  0  0  0  0  0  0  0  0  0
   -4.7735    0.4814   -1.5863 O   0  0  0  0  0  0  0  0  0  0  0  0
   -1.6951   -0.7875   -0.4114 C   0  0  1  0  0  0  0  0  0  0  0  0
   -0.5139   -0.7004    0.4996 C   0  0  0  0  0  0  0  0  0  0  0  0
    0.1250   -1.9946    0.6336 N   0  0  0  0  0  0  0  0  0  0  0  0
    1.4946   -1.9284    1.6808 S   0  0  0  0  0  0  0  0  0  0  0  0
    2.1579   -3.2698    1.7551 O   0  0  0  0  0  0  0  0  0  0  0  0
    1.1758   -1.4088    3.0317 O   0  0  0  0  0  0  0  0  0  0  0  0
    2.6271   -0.8013    0.9139 C   0  0  0  0  0  0  0  0  0  0  0  0
    2.5733    0.5528    1.2093 C   0  0  0  0  0  0  0  0  0  0  0  0
    3.4710    1.4320    0.5987 C   0  0  0  0  0  0  0  0  0  0  0  0
    4.4026    0.9403   -0.2931 C   0  0  0  0  0  0  0  0  0  0  0  0
    4.4759   -0.3956   -0.6018 C   0  0  0  0  0  0  0  0  0  0  0  0
    3.5773   -1.2611    0.0120 C   0  0  0  0  0  0  0  0  0  0  0  0
    5.3305    1.8134   -0.9307 N   0  0  0  0  0  4  0  0  0  0  0  0
    6.2436    1.2949   -1.8117 O   0  0  0  0  0  1  0  0  0  0  0  0
    5.3584    3.0481   -0.7276 O   0  0  0  0  0  0  0  0  0  0  0  0
   -2.6627   -1.8350   -0.0051 C   0  0  0  0  0  0  0  0  0  0  0  0
   -3.7147   -2.0950   -0.8698 O   0  0  0  0  0  0  0  0  0  0  0  0
   -2.5285   -2.4616    1.0861 O   0  0  0  0  0  0  0  0  0  0  0  0
   -1.6737    1.2408   -1.0481 H   0  0  0  0  0  0  0  0  0  0  0  0
   -2.1920    1.2077    1.5062 H   0  0  0  0  0  0  0  0  0  0  0  0
   -3.7231    0.4273    1.0793 H   0  0  0  0  0  0  0  0  0  0  0  0
   -3.0185    3.2824    0.8076 H   0  0  0  0  0  0  0  0  0  0  0  0
   -4.6269    2.4686    0.7327 H   0  0  0  0  0  0  0  0  0  0  0  0
   -3.6202    2.6133   -0.7303 H   0  0  0  0  0  0  0  0  0  0  0  0
   -4.3244    0.1510   -2.2599 H   0  0  0  0  0  0  0  0  0  0  0  0
   -1.3450   -1.0780   -1.4379 H   0  0  0  0  0  0  0  0  0  0  0  0
    0.2573   -0.0680   -0.0219 H   0  0  0  0  0  0  0  0  0  0  0  0
   -0.7528   -0.2364    1.4550 H   0  0  0  0  0  0  0  0  0  0  0  0
    0.4769   -2.3557   -0.2743 H   0  0  0  0  0  0  0  0  0  0  0  0
    1.8354    0.9255    1.9126 H   0  0  0  0  0  0  0  0  0  0  0  0
    3.4299    2.5071    0.8318 H   0  0  0  0  0  0  0  0  0  0  0  0
    5.2001   -0.8249   -1.3039 H   0  0  0  0  0  0  0  0  0  0  0  0
    3.6032   -2.3302   -0.2069 H   0  0  0  0  0  0  0  0  0  0  0  0
   -4.2054   -2.9797   -0.7711 H   0  0  0  0  0  0  0  0  0  0  0  0
  1  2  1  0
  2  3  1  0
  1  4  1  0
  4  5  2  0
  1  6  1  0
  6  7  1  0
  7  8  1  0
  8  9  1  0
  9 10  2  0
  9 11  2  0
  9 12  1  0
 12 13  2  0
 13 14  1  0
 14 15  2  0
 15 16  1  0
 16 17  2  0
 15 18  1  0
 18 19  1  0
 18 20  2  0
  6 21  1  0
 21 22  1  0
 21 23  2  0
 17 12  1  0
  1 24  1  6
  2 25  1  0
  2 26  1  0
  3 27  1  0
  3 28  1  0
  3 29  1  0
  4 30  1  0
  6 31  1  6
  7 32  1  0
  7 33  1  0
  8 34  1  0
 13 35  1  0
 14 36  1  0
 16 37  1  0
 17 38  1  0
 22 39  1  0
M  CHG  2  18   1  19  -1
M  END
$$$$
