@<TRIPOS>MOLECULE
*****
 39 39 0 0 0
SMALL
GASTEIGER

@<TRIPOS>ATOM
      1 C          -2.3914    0.5346   -0.5811 C.3     1  UNL1        0.0283
      2 C          -2.9153    1.1146    0.6971 C.3     1  UNL1       -0.0458
      3 C          -3.5786    2.4362    0.3573 C.3     1  UNL1       -0.0646
      4 C          -3.5604    0.3399   -1.5017 C.2     1  UNL1        0.1242
      5 O          -4.7735    0.4814   -1.5863 O.2     1  UNL1       -0.3007
      6 C          -1.6951   -0.7875   -0.4114 C.3     1  UNL1        0.0795
      7 C          -0.5139   -0.7004    0.4996 C.3     1  UNL1        0.0310
      8 N           0.1250   -1.9946    0.6336 N.3     1  UNL1       -0.1891
      9 S           1.4946   -1.9284    1.6808 S.O2    1  UNL1        0.0584
     10 O           2.1579   -3.2698    1.7551 O.2     1  UNL1       -0.1530
     11 O           1.1758   -1.4088    3.0317 O.2     1  UNL1       -0.1530
     12 C           2.6271   -0.8013    0.9139 C.ar    1  UNL1        0.1057
     13 C           2.5733    0.5528    1.2093 C.ar    1  UNL1       -0.0289
     14 C           3.4710    1.4320    0.5987 C.ar    1  UNL1        0.0174
     15 C           4.4026    0.9403   -0.2931 C.ar    1  UNL1        0.2733
     16 C           4.4759   -0.3956   -0.6018 C.ar    1  UNL1        0.0174
     17 C           3.5773   -1.2611    0.0120 C.ar    1  UNL1       -0.0289
     18 N           5.3305    1.8134   -0.9307 N.pl3   1  UNL1        0.0796
     19 O           6.2436    1.2949   -1.8117 O.co2   1  UNL1       -0.5760
     20 O           5.3584    3.0481   -0.7276 O.2     1  UNL1        0.0414
     21 C          -2.6627   -1.8350   -0.0051 C.2     1  UNL1        0.3098
     22 O          -3.7147   -2.0950   -0.8698 O.3     1  UNL1       -0.4804
     23 O          -2.5285   -2.4616    1.0861 O.2     1  UNL1       -0.2506
     24 H          -1.6737    1.2408   -1.0481 H       1  UNL1        0.0383
     25 H          -2.1920    1.2077    1.5062 H       1  UNL1        0.0269
     26 H          -3.7231    0.4273    1.0793 H       1  UNL1        0.0269
     27 H          -3.0185    3.2824    0.8076 H       1  UNL1        0.0230
     28 H          -4.6269    2.4686    0.7327 H       1  UNL1        0.0230
     29 H          -3.6202    2.6133   -0.7303 H       1  UNL1        0.0230
     30 H          -4.3244    0.1510   -2.2599 H       1  UNL1        0.1029
     31 H          -1.3450   -1.0780   -1.4379 H       1  UNL1        0.0433
     32 H           0.2573   -0.0680   -0.0219 H       1  UNL1        0.0449
     33 H          -0.7528   -0.2364    1.4550 H       1  UNL1        0.0449
     34 H           0.4769   -2.3557   -0.2743 H       1  UNL1        0.1480
     35 H           1.8354    0.9255    1.9126 H       1  UNL1        0.0639
     36 H           3.4299    2.5071    0.8318 H       1  UNL1        0.0686
     37 H           5.2001   -0.8249   -1.3039 H       1  UNL1        0.0686
     38 H           3.6032   -2.3302   -0.2069 H       1  UNL1        0.0639
     39 H          -4.2054   -2.9797   -0.7711 H       1  UNL1        0.2951
@<TRIPOS>UNITY_ATOM_ATTR
18 1
charge 1
19 1
charge -1
@<TRIPOS>BOND
     1     1     2    1
     2     2     3    1
     3     1     4    1
     4     4     5    2
     5     1     6    1
     6     6     7    1
     7     7     8    1
     8     8     9    1
     9     9    10    2
    10     9    11    2
    11     9    12    1
    12    12    13   ar
    13    13    14   ar
    14    14    15   ar
    15    15    16   ar
    16    16    17   ar
    17    15    18    1
    18    18    19    1
    19    18    20    2
    20     6    21    1
    21    21    22    1
    22    21    23    2
    23    17    12   ar
    24     1    24    1
    25     2    25    1
    26     2    26    1
    27     3    27    1
    28     3    28    1
    29     3    29    1
    30     4    30    1
    31     6    31    1
    32     7    32    1
    33     7    33    1
    34     8    34    1
    35    13    35    1
    36    14    36    1
    37    16    37    1
    38    17    38    1
    39    22    39    1
