@<TRIPOS>MOLECULE
*****
 37 40 0 0 0
SMALL
GASTEIGER

@<TRIPOS>ATOM
      1 C          -1.3919   -1.7700   -0.8913 C.3     1  UNL1        0.1207
      2 C           0.0174   -1.8802   -0.5185 C.3     1  UNL1       -0.0127
      3 C           0.8485   -0.6908   -0.2964 C.3     1  UNL1        0.1207
      4 C           0.4947    0.2559    0.7487 C.2     1  UNL1        0.3231
      5 O          -0.3960    0.5633    1.5934 O.2     1  UNL1       -0.2496
      6 O           1.5151    1.1890    0.8868 O.3     1  UNL1       -0.4246
      7 C           2.8468    1.0029    0.6396 C.ar    1  UNL1        0.1421
      8 C           3.3199   -0.2357    0.1936 C.ar    1  UNL1        0.0605
      9 C           4.6415   -0.5901   -0.1020 C.ar    1  UNL1       -0.0477
     10 C           5.5637    0.4197    0.0757 C.ar    1  UNL1       -0.0609
     11 C           5.1642    1.6646    0.5125 C.ar    1  UNL1       -0.0582
     12 C           3.8466    1.9603    0.7899 C.ar    1  UNL1       -0.0185
     13 C           2.2268   -1.2233    0.0460 C.2     1  UNL1        0.1804
     14 O           2.5005   -2.4562    0.2129 O.2     1  UNL1       -0.2911
     15 C          -1.6717   -1.0403   -2.1388 C.2     1  UNL1        0.3231
     16 O          -1.0959   -1.4039   -3.1985 O.2     1  UNL1       -0.2496
     17 O          -2.5443    0.0391   -2.2170 O.3     1  UNL1       -0.4246
     18 C          -3.2700    0.4963   -1.1266 C.ar    1  UNL1        0.1421
     19 C          -4.1422    1.5619   -1.1698 C.ar    1  UNL1       -0.0185
     20 C          -4.8407    1.9668   -0.0284 C.ar    1  UNL1       -0.0582
     21 C          -4.6538    1.2826    1.1765 C.ar    1  UNL1       -0.0609
     22 C          -3.7824    0.2041    1.2560 C.ar    1  UNL1       -0.0477
     23 C          -3.1309   -0.1349    0.0896 C.ar    1  UNL1        0.0605
     24 C          -2.2186   -1.2837    0.2246 C.2     1  UNL1        0.1804
     25 O          -1.9954   -2.0045    1.2333 O.2     1  UNL1       -0.2911
     26 H          -1.8160   -2.8185   -1.1023 H       1  UNL1        0.0496
     27 H           0.5362   -2.4727   -1.3384 H       1  UNL1        0.0289
     28 H           0.1703   -2.5603    0.3763 H       1  UNL1        0.0289
     29 H           1.0231   -0.1192   -1.2663 H       1  UNL1        0.0496
     30 H           4.8098   -1.5991   -0.4340 H       1  UNL1        0.0626
     31 H           6.5872    0.1555   -0.1501 H       1  UNL1        0.0618
     32 H           5.9397    2.4241    0.6342 H       1  UNL1        0.0619
     33 H           3.5399    2.9458    1.1343 H       1  UNL1        0.0654
     34 H          -4.2828    2.0850   -2.0982 H       1  UNL1        0.0654
     35 H          -5.5254    2.7956   -0.0416 H       1  UNL1        0.0619
     36 H          -5.1928    1.5914    2.0670 H       1  UNL1        0.0618
     37 H          -3.6411   -0.3207    2.1866 H       1  UNL1        0.0626
@<TRIPOS>BOND
     1     1     2    1
     2     2     3    1
     3     3     4    1
     4     4     5    2
     5     4     6    1
     6     6     7    1
     7     7     8   ar
     8     8     9   ar
     9     9    10   ar
    10    10    11   ar
    11    11    12   ar
    12     8    13    1
    13    13    14    2
    14     1    15    1
    15    15    16    2
    16    15    17    1
    17    17    18    1
    18    18    19   ar
    19    19    20   ar
    20    20    21   ar
    21    21    22   ar
    22    22    23   ar
    23    23    24    1
    24    24    25    2
    25    24     1    1
    26    13     3    1
    27    23    18   ar
    28    12     7   ar
    29     1    26    1
    30     2    27    1
    31     2    28    1
    32     3    29    1
    33     9    30    1
    34    10    31    1
    35    11    32    1
    36    12    33    1
    37    19    34    1
    38    20    35    1
    39    21    36    1
    40    22    37    1
