@<TRIPOS>MOLECULE
*****
 72 76 0 0 0
SMALL
GASTEIGER

@<TRIPOS>ATOM
      1 O          -6.5907    1.4502    1.3153 O.2     1  UNL1       -0.2702
      2 C          -7.2465    0.4183    1.0699 C.2     1  UNL1        0.2445
      3 N          -6.5912   -0.8322    1.0968 N.am    1  UNL1       -0.3027
      4 C          -5.1806   -0.8722    1.4070 C.3     1  UNL1        0.0886
      5 C          -4.4105   -0.0907    0.4064 C.2     1  UNL1        0.2328
      6 O          -5.0119    0.4902   -0.5445 O.2     1  UNL1       -0.2739
      7 N          -2.9902    0.0296    0.4810 N.am    1  UNL1       -0.2987
      8 C          -2.1960   -0.5873    1.5198 C.3     1  UNL1        0.0162
      9 C          -0.7528   -0.1498    1.1908 C.3     1  UNL1       -0.0202
     10 C          -0.8211   -0.0575   -0.3070 C.3     1  UNL1        0.0250
     11 N           0.1884    0.6864   -0.9376 N.3     1  UNL1       -0.3090
     12 C           1.5307    0.2336   -0.8939 C.3     1  UNL1        0.0081
     13 C           2.3132    1.1203   -1.8818 C.3     1  UNL1       -0.0346
     14 C           3.6994    0.5691   -2.0976 C.3     1  UNL1       -0.0170
     15 C           4.1507   -0.0139   -0.7787 C.3     1  UNL1        0.1077
     16 O           3.7421   -1.3488   -0.7172 O.3     1  UNL1       -0.3824
     17 C           5.6548   -0.0521   -0.6933 C.ar    1  UNL1        0.0727
     18 C           6.1761   -0.5647    0.4806 C.ar    1  UNL1       -0.0369
     19 C           7.5598   -0.6218    0.6023 C.ar    1  UNL1       -0.0478
     20 C           8.3975   -0.1867   -0.4025 C.ar    1  UNL1        0.0372
     21 C           9.8443   -0.2623   -0.2409 C.ar    1  UNL1        0.1611
     22 N          10.3642   -0.7558    0.8960 N.ar    1  UNL1       -0.2356
     23 C          11.6883   -0.8520    1.1046 C.ar    1  UNL1        0.0314
     24 C          12.5836   -0.4399    0.1416 C.ar    1  UNL1       -0.0254
     25 C          12.0445    0.0655   -1.0225 C.ar    1  UNL1        0.0314
     26 N          10.7059    0.1424   -1.1864 N.ar    1  UNL1       -0.2356
     27 C           7.8206    0.3136   -1.5475 C.ar    1  UNL1        0.0387
     28 N           6.4626    0.3648   -1.6560 N.ar    1  UNL1       -0.2563
     29 C           3.5753    0.8352    0.3105 C.3     1  UNL1       -0.0170
     30 C           2.1091    0.4338    0.4937 C.3     1  UNL1       -0.0346
     31 C          -2.1271    0.7611   -0.4434 C.3     1  UNL1        0.0302
     32 C          -8.6746    0.5152    0.7598 C.ar    1  UNL1        0.0372
     33 C          -9.2862    1.7758    0.7478 C.ar    1  UNL1       -0.0496
     34 C         -10.6071    1.8986    0.4633 C.ar    1  UNL1       -0.0605
     35 C         -11.3664    0.7766    0.1809 C.ar    1  UNL1       -0.0501
     36 C         -10.8168   -0.4858    0.1787 C.ar    1  UNL1        0.0555
     37 C         -11.6195   -1.6966   -0.1226 C.3     1  UNL1        0.4174
     38 F         -11.5244   -1.9804   -1.4609 F       1  UNL1       -0.1659
     39 F         -12.9188   -1.5635    0.3096 F       1  UNL1       -0.1659
     40 F         -11.0436   -2.7802    0.5489 F       1  UNL1       -0.1659
     41 C          -9.4547   -0.5692    0.4765 C.ar    1  UNL1       -0.0380
     42 H          -7.0719   -1.7346    0.9035 H       1  UNL1        0.1495
     43 H          -4.9917   -0.5014    2.4487 H       1  UNL1        0.0558
     44 H          -4.7796   -1.9081    1.3676 H       1  UNL1        0.0558
     45 H          -2.3012   -1.6738    1.5172 H       1  UNL1        0.0465
     46 H          -2.4337   -0.1285    2.5089 H       1  UNL1        0.0465
     47 H          -0.5177    0.7890    1.6864 H       1  UNL1        0.0296
     48 H          -0.1156   -1.0100    1.5057 H       1  UNL1        0.0296
     49 H          -0.9895   -1.0699   -0.7626 H       1  UNL1        0.0476
     50 H          -0.0941    0.8964   -1.9171 H       1  UNL1        0.1225
     51 H           1.5418   -0.8268   -1.2168 H       1  UNL1        0.0460
     52 H           2.2799    2.1429   -1.5143 H       1  UNL1        0.0281
     53 H           1.7022    1.1010   -2.8226 H       1  UNL1        0.0281
     54 H           3.7831   -0.1199   -2.9378 H       1  UNL1        0.0297
     55 H           4.3617    1.4556   -2.3204 H       1  UNL1        0.0297
     56 H           3.7459   -1.6882   -1.6484 H       1  UNL1        0.2107
     57 H           5.5279   -0.9148    1.2886 H       1  UNL1        0.0637
     58 H           8.0218   -1.0135    1.4991 H       1  UNL1        0.0626
     59 H          12.0941   -1.2497    2.0223 H       1  UNL1        0.0831
     60 H          13.6610   -0.5070    0.2845 H       1  UNL1        0.0648
     61 H          12.7538    0.3886   -1.7770 H       1  UNL1        0.0831
     62 H           8.4662    0.6560   -2.3395 H       1  UNL1        0.0837
     63 H           4.1306    0.7563    1.2669 H       1  UNL1        0.0297
     64 H           3.5783    1.8950    0.0228 H       1  UNL1        0.0297
     65 H           2.1221   -0.5007    1.0716 H       1  UNL1        0.0281
     66 H           1.6582    1.2849    1.0317 H       1  UNL1        0.0281
     67 H          -2.4291    0.6680   -1.4910 H       1  UNL1        0.0480
     68 H          -1.9576    1.7954   -0.1530 H       1  UNL1        0.0480
     69 H          -8.6339    2.6279    0.9794 H       1  UNL1        0.0625
     70 H         -11.0534    2.9021    0.4631 H       1  UNL1        0.0618
     71 H         -12.4187    0.9428   -0.0389 H       1  UNL1        0.0623
     72 H          -9.0212   -1.5724    0.4744 H       1  UNL1        0.0631
@<TRIPOS>BOND
     1     1     2    2
     2     2     3   am
     3     3     4    1
     4     4     5    1
     5     5     6    2
     6     5     7   am
     7     7     8    1
     8     8     9    1
     9     9    10    1
    10    10    11    1
    11    11    12    1
    12    12    13    1
    13    13    14    1
    14    14    15    1
    15    15    16    1
    16    15    17    1
    17    17    18   ar
    18    18    19   ar
    19    19    20   ar
    20    20    21    1
    21    21    22   ar
    22    22    23   ar
    23    23    24   ar
    24    24    25   ar
    25    25    26   ar
    26    20    27   ar
    27    27    28   ar
    28    15    29    1
    29    29    30    1
    30    10    31    1
    31     2    32    1
    32    32    33   ar
    33    33    34   ar
    34    34    35   ar
    35    35    36   ar
    36    36    37    1
    37    37    38    1
    38    37    39    1
    39    37    40    1
    40    36    41   ar
    41    31     7    1
    42    41    32   ar
    43    30    12    1
    44    28    17   ar
    45    26    21   ar
    46     3    42    1
    47     4    43    1
    48     4    44    1
    49     8    45    1
    50     8    46    1
    51     9    47    1
    52     9    48    1
    53    10    49    1
    54    11    50    1
    55    12    51    1
    56    13    52    1
    57    13    53    1
    58    14    54    1
    59    14    55    1
    60    16    56    1
    61    18    57    1
    62    19    58    1
    63    23    59    1
    64    24    60    1
    65    25    61    1
    66    27    62    1
    67    29    63    1
    68    29    64    1
    69    30    65    1
    70    30    66    1
    71    31    67    1
    72    31    68    1
    73    33    69    1
    74    34    70    1
    75    35    71    1
    76    41    72    1
