
     RDKit          3D

 39 41  0  0  0  0  0  0  0  0999 V2000
    3.8372    0.5595   -1.6382 N   0  0  0  0  0  0  0  0  0  0  0  0
    3.9270    0.7062   -0.1955 C   0  0  0  0  0  0  0  0  0  0  0  0
    3.6187   -0.6306    0.4421 C   0  0  0  0  0  0  0  0  0  0  0  0
    2.2069   -1.0828    0.1257 C   0  0  0  0  0  0  0  0  0  0  0  0
    1.2135    0.0427    0.2536 C   0  0  0  0  0  0  0  0  0  0  0  0
    0.0251   -0.3821    1.0252 N   0  0  0  0  0  0  0  0  0  0  0  0
   -0.6274   -1.4718    0.3891 C   0  0  0  0  0  0  0  0  0  0  0  0
   -1.7613   -2.0726    1.2666 C   0  0  0  0  0  0  0  0  0  0  0  0
   -1.9546   -1.5807   -0.1461 C   0  0  0  0  0  0  0  0  0  0  0  0
   -2.9652   -0.5668   -0.4266 C   0  0  0  0  0  0  0  0  0  0  0  0
   -4.2804   -0.9756   -0.7446 C   0  0  0  0  0  0  0  0  0  0  0  0
   -5.2889   -0.0923   -1.0195 C   0  0  0  0  0  0  0  0  0  0  0  0
   -5.0459    1.2607   -0.9939 C   0  0  0  0  0  0  0  0  0  0  0  0
   -3.7930    1.7159   -0.6926 C   0  0  0  0  0  0  0  0  0  0  0  0
   -2.7996    0.7909   -0.4204 C   0  0  0  0  0  0  0  0  0  0  0  0
   -1.5903    1.2997   -0.1303 F   0  0  0  0  0  0  0  0  0  0  0  0
    1.8715    1.1296    1.0799 C   0  0  0  0  0  0  0  0  0  0  0  0
    3.0109    1.7825    0.3319 C   0  0  0  0  0  0  0  0  0  0  0  0
    3.5288    1.4503   -2.0974 H   0  0  0  0  0  0  0  0  0  0  0  0
    4.7959    0.2575   -1.9577 H   0  0  0  0  0  0  0  0  0  0  0  0
    4.9684    0.9672    0.1291 H   0  0  0  0  0  0  0  0  0  0  0  0
    3.8532   -0.6579    1.5110 H   0  0  0  0  0  0  0  0  0  0  0  0
    4.2956   -1.3738   -0.0540 H   0  0  0  0  0  0  0  0  0  0  0  0
    2.2091   -1.4973   -0.9106 H   0  0  0  0  0  0  0  0  0  0  0  0
    1.9924   -1.9207    0.8509 H   0  0  0  0  0  0  0  0  0  0  0  0
    0.9206    0.4886   -0.7074 H   0  0  0  0  0  0  0  0  0  0  0  0
    0.4426   -0.7407    1.9308 H   0  0  0  0  0  0  0  0  0  0  0  0
    0.1344   -2.2685    0.0838 H   0  0  0  0  0  0  0  0  0  0  0  0
   -1.7037   -3.1563    1.4918 H   0  0  0  0  0  0  0  0  0  0  0  0
   -2.1277   -1.4773    2.1110 H   0  0  0  0  0  0  0  0  0  0  0  0
   -2.0961   -2.4824   -0.8455 H   0  0  0  0  0  0  0  0  0  0  0  0
   -4.4920   -2.0334   -0.7701 H   0  0  0  0  0  0  0  0  0  0  0  0
   -6.2978   -0.3969   -1.2637 H   0  0  0  0  0  0  0  0  0  0  0  0
   -5.8582    1.9714   -1.2154 H   0  0  0  0  0  0  0  0  0  0  0  0
   -3.6092    2.7664   -0.6739 H   0  0  0  0  0  0  0  0  0  0  0  0
    1.1346    1.9064    1.3407 H   0  0  0  0  0  0  0  0  0  0  0  0
    2.2155    0.6660    2.0202 H   0  0  0  0  0  0  0  0  0  0  0  0
    3.5244    2.4581    1.0445 H   0  0  0  0  0  0  0  0  0  0  0  0
    2.5651    2.3440   -0.5246 H   0  0  0  0  0  0  0  0  0  0  0  0
  1  2  1  0
  2  3  1  0
  3  4  1  0
  4  5  1  0
  5  6  1  0
  6  7  1  0
  7  8  1  0
  8  9  1  0
  9 10  1  0
 10 11  2  0
 11 12  1  0
 12 13  2  0
 13 14  1  0
 14 15  2  0
 15 16  1  0
  5 17  1  0
 17 18  1  0
 18  2  1  0
  9  7  1  0
 15 10  1  0
  1 19  1  0
  1 20  1  0
  2 21  1  0
  3 22  1  0
  3 23  1  0
  4 24  1  0
  4 25  1  0
  5 26  1  0
  6 27  1  0
  7 28  1  0
  8 29  1  0
  8 30  1  0
  9 31  1  0
 11 32  1  0
 12 33  1  0
 13 34  1  0
 14 35  1  0
 17 36  1  0
 17 37  1  0
 18 38  1  0
 18 39  1  0
M  END
$$$$
