@<TRIPOS>MOLECULE
*****
 39 41 0 0 0
SMALL
GASTEIGER

@<TRIPOS>ATOM
      1 N           3.8372    0.5595   -1.6382 N.3     1  UNL1       -0.3272
      2 C           3.9270    0.7062   -0.1955 C.3     1  UNL1        0.0049
      3 C           3.6187   -0.6306    0.4421 C.3     1  UNL1       -0.0363
      4 C           2.2069   -1.0828    0.1257 C.3     1  UNL1       -0.0361
      5 C           1.2135    0.0427    0.2536 C.3     1  UNL1        0.0080
      6 N           0.0251   -0.3821    1.0252 N.3     1  UNL1       -0.3099
      7 C          -0.6274   -1.4718    0.3891 C.3     1  UNL1        0.0154
      8 C          -1.7613   -2.0726    1.2666 C.3     1  UNL1       -0.0286
      9 C          -1.9546   -1.5807   -0.1461 C.3     1  UNL1        0.0037
     10 C          -2.9652   -0.5668   -0.4266 C.ar    1  UNL1       -0.0076
     11 C          -4.2804   -0.9756   -0.7446 C.ar    1  UNL1       -0.0555
     12 C          -5.2889   -0.0923   -1.0195 C.ar    1  UNL1       -0.0613
     13 C          -5.0459    1.2607   -0.9939 C.ar    1  UNL1       -0.0590
     14 C          -3.7930    1.7159   -0.6926 C.ar    1  UNL1       -0.0262
     15 C          -2.7996    0.7909   -0.4204 C.ar    1  UNL1        0.1269
     16 F          -1.5903    1.2997   -0.1303 F       1  UNL1       -0.2052
     17 C           1.8715    1.1296    1.0799 C.3     1  UNL1       -0.0361
     18 C           3.0109    1.7825    0.3319 C.3     1  UNL1       -0.0363
     19 H           3.5288    1.4503   -2.0974 H       1  UNL1        0.1185
     20 H           4.7959    0.2575   -1.9577 H       1  UNL1        0.1185
     21 H           4.9684    0.9672    0.1291 H       1  UNL1        0.0458
     22 H           3.8532   -0.6579    1.5110 H       1  UNL1        0.0281
     23 H           4.2956   -1.3738   -0.0540 H       1  UNL1        0.0281
     24 H           2.2091   -1.4973   -0.9106 H       1  UNL1        0.0281
     25 H           1.9924   -1.9207    0.8509 H       1  UNL1        0.0281
     26 H           0.9206    0.4886   -0.7074 H       1  UNL1        0.0460
     27 H           0.4426   -0.7407    1.9308 H       1  UNL1        0.1225
     28 H           0.1344   -2.2685    0.0838 H       1  UNL1        0.0466
     29 H          -1.7037   -3.1563    1.4918 H       1  UNL1        0.0287
     30 H          -2.1277   -1.4773    2.1110 H       1  UNL1        0.0287
     31 H          -2.0961   -2.4824   -0.8455 H       1  UNL1        0.0365
     32 H          -4.4920   -2.0334   -0.7701 H       1  UNL1        0.0621
     33 H          -6.2978   -0.3969   -1.2637 H       1  UNL1        0.0618
     34 H          -5.8582    1.9714   -1.2154 H       1  UNL1        0.0618
     35 H          -3.6092    2.7664   -0.6739 H       1  UNL1        0.0646
     36 H           1.1346    1.9064    1.3407 H       1  UNL1        0.0281
     37 H           2.2155    0.6660    2.0202 H       1  UNL1        0.0281
     38 H           3.5244    2.4581    1.0445 H       1  UNL1        0.0281
     39 H           2.5651    2.3440   -0.5246 H       1  UNL1        0.0281
@<TRIPOS>BOND
     1     1     2    1
     2     2     3    1
     3     3     4    1
     4     4     5    1
     5     5     6    1
     6     6     7    1
     7     7     8    1
     8     8     9    1
     9     9    10    1
    10    10    11   ar
    11    11    12   ar
    12    12    13   ar
    13    13    14   ar
    14    14    15   ar
    15    15    16    1
    16     5    17    1
    17    17    18    1
    18    18     2    1
    19     9     7    1
    20    15    10   ar
    21     1    19    1
    22     1    20    1
    23     2    21    1
    24     3    22    1
    25     3    23    1
    26     4    24    1
    27     4    25    1
    28     5    26    1
    29     6    27    1
    30     7    28    1
    31     8    29    1
    32     8    30    1
    33     9    31    1
    34    11    32    1
    35    12    33    1
    36    13    34    1
    37    14    35    1
    38    17    36    1
    39    17    37    1
    40    18    38    1
    41    18    39    1
