@<TRIPOS>MOLECULE
*****
 65 70 0 0 0
SMALL
GASTEIGER

@<TRIPOS>ATOM
      1 O           0.5564    1.4166    1.0369 O.2     1  UNL1       -0.2489
      2 C           1.5608    0.7297    0.7783 C.2     1  UNL1        0.3255
      3 OXT         2.6837    0.9406    1.5930 O.3     1  UNL1       -0.4793
      4 CA          1.6663   -0.2713   -0.2962 C.3     1  UNL1        0.1221
      5 C           0.6895   -1.3765   -0.0726 C.3     1  UNL1        0.0011
      6 C          -0.6923   -0.8577   -0.0492 C.ar    1  UNL1       -0.0450
      7 C          -1.3735   -0.6982   -1.2447 C.ar    1  UNL1       -0.0565
      8 C          -2.6698   -0.2398   -1.2918 C.ar    1  UNL1       -0.0375
      9 C          -3.2875    0.0649   -0.0732 C.ar    1  UNL1        0.0497
     10 N          -4.6118    0.5491   -0.1039 N.ar    1  UNL1       -0.2800
     11 C          -5.7150   -0.1810   -0.0519 C.ar    1  UNL1        0.1312
     12 C          -5.9608   -1.6253    0.0909 C.3     1  UNL1        0.1237
     13 C          -7.4049   -2.0928   -0.1676 C.3     1  UNL1        0.4023
     14 F          -7.7807   -1.7773   -1.4446 F       1  UNL1       -0.1696
     15 F          -8.1832   -1.4005    0.7448 F       1  UNL1       -0.1696
     16 F          -7.5291   -3.4294    0.0622 F       1  UNL1       -0.1696
     17 C          -5.4666   -2.1583    1.4485 C.3     1  UNL1       -0.0310
     18 C          -4.9192   -2.6468    0.1185 C.3     1  UNL1       -0.0310
     19 N          -6.7523    0.7085   -0.1357 N.ar    1  UNL1       -0.2294
     20 C          -6.2737    1.9381   -0.2342 C.ar    1  UNL1        0.1086
     21 C          -6.8723    3.1817   -0.3432 C.ar    1  UNL1       -0.0312
     22 C          -6.1139    4.3360   -0.4328 C.ar    1  UNL1       -0.0414
     23 C          -4.7379    4.2059   -0.4098 C.ar    1  UNL1        0.0300
     24 N          -4.1570    2.9924   -0.3034 N.ar    1  UNL1       -0.2355
     25 C          -4.9024    1.8821   -0.2174 C.ar    1  UNL1        0.1650
     26 C          -2.6342   -0.0849    1.1211 C.ar    1  UNL1       -0.0375
     27 C          -1.3405   -0.5460    1.1202 C.ar    1  UNL1       -0.0565
     28 N           3.0357   -0.8063   -0.3298 N.pl3   1  UNL1       -0.3328
     29 C           4.1602    0.0239   -0.5570 C.2     1  UNL1        0.0359
     30 C           4.3218    1.1599   -1.2035 C.2     1  UNL1        0.0788
     31 BR          3.1439    2.3202   -2.1911 Br      1  UNL1       -0.0451
     32 C           5.7403    1.2764   -0.9280 C.2     1  UNL1        0.1830
     33 O           6.6549    2.0887   -1.1953 O.2     1  UNL1       -0.2905
     34 C           5.5731    0.0174   -0.2087 C.3     1  UNL1        0.0728
     35 C           6.3786   -1.1522   -0.7463 C.3     1  UNL1       -0.0350
     36 C           7.8286   -0.7140   -0.7453 C.3     1  UNL1       -0.0518
     37 C           8.2272   -0.0905    0.5680 C.3     1  UNL1       -0.0530
     38 C           7.2185   -0.2784    1.6486 C.3     1  UNL1       -0.0518
     39 C           5.8196    0.0731    1.2809 C.3     1  UNL1       -0.0350
     40 HXT         2.7244    1.7770    2.1502 H       1  UNL1        0.2951
     41 HA          1.4394    0.1790   -1.2893 H       1  UNL1        0.0617
     42 H           0.7811   -2.2004   -0.8106 H       1  UNL1        0.0337
     43 H           0.9416   -1.8410    0.9193 H       1  UNL1        0.0337
     44 H          -0.9007   -0.9321   -2.1869 H       1  UNL1        0.0621
     45 H          -3.2416   -0.0991   -2.1963 H       1  UNL1        0.0638
     46 H          -4.8878   -1.5148    2.1052 H       1  UNL1        0.0278
     47 H          -6.0889   -2.9097    1.9802 H       1  UNL1        0.0278
     48 H          -3.8480   -2.4958    0.0027 H       1  UNL1        0.0278
     49 H          -5.2341   -3.6812   -0.2101 H       1  UNL1        0.0278
     50 H          -7.9445    3.2988   -0.3624 H       1  UNL1        0.0640
     51 H          -6.6017    5.3062   -0.5180 H       1  UNL1        0.0633
     52 H          -4.1460    5.1208   -0.4809 H       1  UNL1        0.0830
     53 H          -3.0914    0.1440    2.0723 H       1  UNL1        0.0638
     54 H          -0.8073   -0.6808    2.0569 H       1  UNL1        0.0621
     55 H           3.1411   -1.8261   -0.1784 H       1  UNL1        0.1466
     56 H           6.0891   -1.4045   -1.7707 H       1  UNL1        0.0278
     57 H           6.2664   -1.9792   -0.0190 H       1  UNL1        0.0278
     58 H           8.4586   -1.5516   -1.0544 H       1  UNL1        0.0266
     59 H           7.9195    0.0796   -1.5209 H       1  UNL1        0.0266
     60 H           9.1619   -0.6346    0.8944 H       1  UNL1        0.0265
     61 H           8.5315    0.9661    0.4717 H       1  UNL1        0.0265
     62 H           7.3293   -1.3101    2.0562 H       1  UNL1        0.0266
     63 H           7.5181    0.3956    2.4979 H       1  UNL1        0.0266
     64 H           5.1505   -0.7173    1.7320 H       1  UNL1        0.0278
     65 H           5.4595    1.0331    1.7228 H       1  UNL1        0.0278
@<TRIPOS>BOND
     1     1     2    2
     2     2     3    1
     3     2     4    1
     4     4     5    1
     5     5     6    1
     6     6     7   ar
     7     7     8   ar
     8     8     9   ar
     9     9    10    1
    10    10    11   ar
    11    11    12    1
    12    12    13    1
    13    13    14    1
    14    13    15    1
    15    13    16    1
    16    12    17    1
    17    17    18    1
    18    11    19   ar
    19    19    20   ar
    20    20    21   ar
    21    21    22   ar
    22    22    23   ar
    23    23    24   ar
    24    24    25   ar
    25     9    26   ar
    26    26    27   ar
    27     4    28    1
    28    28    29    1
    29    29    30    2
    30    30    31    1
    31    30    32    1
    32    32    33    2
    33    32    34    1
    34    34    35    1
    35    35    36    1
    36    36    37    1
    37    37    38    1
    38    38    39    1
    39    27     6   ar
    40    34    29    1
    41    25    10   ar
    42    39    34    1
    43    18    12    1
    44    25    20   ar
    45     3    40    1
    46     4    41    1
    47     5    42    1
    48     5    43    1
    49     7    44    1
    50     8    45    1
    51    17    46    1
    52    17    47    1
    53    18    48    1
    54    18    49    1
    55    21    50    1
    56    22    51    1
    57    23    52    1
    58    26    53    1
    59    27    54    1
    60    28    55    1
    61    35    56    1
    62    35    57    1
    63    36    58    1
    64    36    59    1
    65    37    60    1
    66    37    61    1
    67    38    62    1
    68    38    63    1
    69    39    64    1
    70    39    65    1
