
     RDKit          3D

 65 70  0  0  0  0  0  0  0  0999 V2000
    0.5564    1.4166    1.0369 O   0  0  0  0  0  0  0  0  0  0  0  0
    1.5608    0.7297    0.7783 C   0  0  0  0  0  0  0  0  0  0  0  0
    2.6837    0.9406    1.5930 O   0  0  0  0  0  0  0  0  0  0  0  0
    1.6663   -0.2713   -0.2962 C   0  0  2  0  0  0  0  0  0  0  0  0
    0.6895   -1.3765   -0.0726 C   0  0  0  0  0  0  0  0  0  0  0  0
   -0.6923   -0.8577   -0.0492 C   0  0  0  0  0  0  0  0  0  0  0  0
   -1.3735   -0.6982   -1.2447 C   0  0  0  0  0  0  0  0  0  0  0  0
   -2.6698   -0.2398   -1.2918 C   0  0  0  0  0  0  0  0  0  0  0  0
   -3.2875    0.0649   -0.0732 C   0  0  0  0  0  0  0  0  0  0  0  0
   -4.6118    0.5491   -0.1039 N   0  0  0  0  0  0  0  0  0  0  0  0
   -5.7150   -0.1810   -0.0519 C   0  0  0  0  0  0  0  0  0  0  0  0
   -5.9608   -1.6253    0.0909 C   0  0  0  0  0  0  0  0  0  0  0  0
   -7.4049   -2.0928   -0.1676 C   0  0  0  0  0  0  0  0  0  0  0  0
   -7.7807   -1.7773   -1.4446 F   0  0  0  0  0  0  0  0  0  0  0  0
   -8.1832   -1.4005    0.7448 F   0  0  0  0  0  0  0  0  0  0  0  0
   -7.5291   -3.4294    0.0622 F   0  0  0  0  0  0  0  0  0  0  0  0
   -5.4666   -2.1583    1.4485 C   0  0  0  0  0  0  0  0  0  0  0  0
   -4.9192   -2.6468    0.1185 C   0  0  0  0  0  0  0  0  0  0  0  0
   -6.7523    0.7085   -0.1357 N   0  0  0  0  0  0  0  0  0  0  0  0
   -6.2737    1.9381   -0.2342 C   0  0  0  0  0  0  0  0  0  0  0  0
   -6.8723    3.1817   -0.3432 C   0  0  0  0  0  0  0  0  0  0  0  0
   -6.1139    4.3360   -0.4328 C   0  0  0  0  0  0  0  0  0  0  0  0
   -4.7379    4.2059   -0.4098 C   0  0  0  0  0  0  0  0  0  0  0  0
   -4.1570    2.9924   -0.3034 N   0  0  0  0  0  0  0  0  0  0  0  0
   -4.9024    1.8821   -0.2174 C   0  0  0  0  0  0  0  0  0  0  0  0
   -2.6342   -0.0849    1.1211 C   0  0  0  0  0  0  0  0  0  0  0  0
   -1.3405   -0.5460    1.1202 C   0  0  0  0  0  0  0  0  0  0  0  0
    3.0357   -0.8063   -0.3298 N   0  0  0  0  0  0  0  0  0  0  0  0
    4.1602    0.0239   -0.5570 C   0  0  0  0  0  0  0  0  0  0  0  0
    4.3218    1.1599   -1.2035 C   0  0  0  0  0  0  0  0  0  0  0  0
    3.1439    2.3202   -2.1911 Br  0  0  0  0  0  0  0  0  0  0  0  0
    5.7403    1.2764   -0.9280 C   0  0  0  0  0  0  0  0  0  0  0  0
    6.6549    2.0887   -1.1953 O   0  0  0  0  0  0  0  0  0  0  0  0
    5.5731    0.0174   -0.2087 C   0  0  0  0  0  0  0  0  0  0  0  0
    6.3786   -1.1522   -0.7463 C   0  0  0  0  0  0  0  0  0  0  0  0
    7.8286   -0.7140   -0.7453 C   0  0  0  0  0  0  0  0  0  0  0  0
    8.2272   -0.0905    0.5680 C   0  0  0  0  0  0  0  0  0  0  0  0
    7.2185   -0.2784    1.6486 C   0  0  0  0  0  0  0  0  0  0  0  0
    5.8196    0.0731    1.2809 C   0  0  0  0  0  0  0  0  0  0  0  0
    2.7244    1.7770    2.1502 H   0  0  0  0  0  0  0  0  0  0  0  0
    1.4394    0.1790   -1.2893 H   0  0  0  0  0  0  0  0  0  0  0  0
    0.7811   -2.2004   -0.8106 H   0  0  0  0  0  0  0  0  0  0  0  0
    0.9416   -1.8410    0.9193 H   0  0  0  0  0  0  0  0  0  0  0  0
   -0.9007   -0.9321   -2.1869 H   0  0  0  0  0  0  0  0  0  0  0  0
   -3.2416   -0.0991   -2.1963 H   0  0  0  0  0  0  0  0  0  0  0  0
   -4.8878   -1.5148    2.1052 H   0  0  0  0  0  0  0  0  0  0  0  0
   -6.0889   -2.9097    1.9802 H   0  0  0  0  0  0  0  0  0  0  0  0
   -3.8480   -2.4958    0.0027 H   0  0  0  0  0  0  0  0  0  0  0  0
   -5.2341   -3.6812   -0.2101 H   0  0  0  0  0  0  0  0  0  0  0  0
   -7.9445    3.2988   -0.3624 H   0  0  0  0  0  0  0  0  0  0  0  0
   -6.6017    5.3062   -0.5180 H   0  0  0  0  0  0  0  0  0  0  0  0
   -4.1460    5.1208   -0.4809 H   0  0  0  0  0  0  0  0  0  0  0  0
   -3.0914    0.1440    2.0723 H   0  0  0  0  0  0  0  0  0  0  0  0
   -0.8073   -0.6808    2.0569 H   0  0  0  0  0  0  0  0  0  0  0  0
    3.1411   -1.8261   -0.1784 H   0  0  0  0  0  0  0  0  0  0  0  0
    6.0891   -1.4045   -1.7707 H   0  0  0  0  0  0  0  0  0  0  0  0
    6.2664   -1.9792   -0.0190 H   0  0  0  0  0  0  0  0  0  0  0  0
    8.4586   -1.5516   -1.0544 H   0  0  0  0  0  0  0  0  0  0  0  0
    7.9195    0.0796   -1.5209 H   0  0  0  0  0  0  0  0  0  0  0  0
    9.1619   -0.6346    0.8944 H   0  0  0  0  0  0  0  0  0  0  0  0
    8.5315    0.9661    0.4717 H   0  0  0  0  0  0  0  0  0  0  0  0
    7.3293   -1.3101    2.0562 H   0  0  0  0  0  0  0  0  0  0  0  0
    7.5181    0.3956    2.4979 H   0  0  0  0  0  0  0  0  0  0  0  0
    5.1505   -0.7173    1.7320 H   0  0  0  0  0  0  0  0  0  0  0  0
    5.4595    1.0331    1.7228 H   0  0  0  0  0  0  0  0  0  0  0  0
  1  2  2  0
  2  3  1  0
  2  4  1  0
  4  5  1  0
  5  6  1  0
  6  7  2  0
  7  8  1  0
  8  9  2  0
  9 10  1  0
 10 11  1  0
 11 12  1  0
 12 13  1  0
 13 14  1  0
 13 15  1  0
 13 16  1  0
 12 17  1  0
 17 18  1  0
 11 19  2  0
 19 20  1  0
 20 21  2  0
 21 22  1  0
 22 23  2  0
 23 24  1  0
 24 25  2  0
  9 26  1  0
 26 27  2  0
  4 28  1  0
 28 29  1  0
 29 30  2  0
 30 31  1  0
 30 32  1  0
 32 33  2  0
 32 34  1  0
 34 35  1  0
 35 36  1  0
 36 37  1  0
 37 38  1  0
 38 39  1  0
 27  6  1  0
 34 29  1  0
 25 10  1  0
 39 34  1  0
 18 12  1  0
 25 20  1  0
  3 40  1  0
  4 41  1  6
  5 42  1  0
  5 43  1  0
  7 44  1  0
  8 45  1  0
 17 46  1  0
 17 47  1  0
 18 48  1  0
 18 49  1  0
 21 50  1  0
 22 51  1  0
 23 52  1  0
 26 53  1  0
 27 54  1  0
 28 55  1  0
 35 56  1  0
 35 57  1  0
 36 58  1  0
 36 59  1  0
 37 60  1  0
 37 61  1  0
 38 62  1  0
 38 63  1  0
 39 64  1  0
 39 65  1  0
M  END
$$$$
