@<TRIPOS>MOLECULE
*****
 41 40 0 0 0
SMALL
GASTEIGER

@<TRIPOS>ATOM
      1 C1         -5.4974   -0.2204    0.3507 C.3     1  <1>         0.1123
      2 N1         -4.7908   -0.4473   -0.8853 N.3     1  <1>        -0.3178
      3 C2         -4.7749    0.8257    1.1506 C.3     1  <1>         0.0193
      4 S1         -3.0821    0.3500    1.5694 S.3     1  <1>        -0.1587
      5 C3         -2.0495    0.2441    0.0927 C.3     1  <1>        -0.0063
      6 C4         -0.6219   -0.1561    0.4511 C.3     1  <1>        -0.0440
      7 C5          0.2012   -0.2365   -0.7962 C.3     1  <1>        -0.0523
      8 C6          1.6193   -0.6463   -0.5135 C.3     1  <1>        -0.0530
      9 C7          2.3156    0.3337    0.3854 C.3     1  <1>        -0.0531
     10 C8          3.7184   -0.1345    0.6598 C.3     1  <1>        -0.0531
     11 C9          4.4909   -0.2386   -0.6172 C.3     1  <1>        -0.0533
     12 C10         5.9302   -0.6842   -0.3659 C.3     1  <1>        -0.0559
     13 C11         6.6534    0.2939    0.5246 C.3     1  <1>        -0.0653
     14 C12        -6.8822    0.2380    0.0991 C.2     1  <1>         0.3225
     15 O1         -7.9850    0.6001    0.8174 O.3     1  <1>        -0.4795
     16 O2         -7.0717    0.3048   -1.1628 O.2     1  <1>        -0.2492
     17 H1         -5.5458   -1.1351    0.9822 H       1  <1>         0.0582
     18 H2         -5.2183    0.1094   -1.6341 H       1  <1>         0.1190
     19 H3         -4.6141   -1.4468   -1.0983 H       1  <1>         0.1190
     20 H4         -4.7425    1.7372    0.5092 H       1  <1>         0.0397
     21 H5         -5.3254    1.1088    2.0749 H       1  <1>         0.0397
     22 H6         -2.0050    1.2572   -0.3725 H       1  <1>         0.0376
     23 H7         -2.4448   -0.4440   -0.6684 H       1  <1>         0.0376
     24 H8         -0.6631   -1.1625    0.9190 H       1  <1>         0.0273
     25 H9         -0.1991    0.5228    1.2080 H       1  <1>         0.0273
     26 H10        -0.2523   -1.0569   -1.4178 H       1  <1>         0.0266
     27 H11         0.1826    0.7023   -1.3784 H       1  <1>         0.0266
     28 H12         1.5880   -1.6512   -0.0471 H       1  <1>         0.0265
     29 H13         2.1850   -0.6764   -1.4851 H       1  <1>         0.0265
     30 H14         1.7746    0.5123    1.3425 H       1  <1>         0.0265
     31 H15         2.3691    1.3520   -0.1033 H       1  <1>         0.0265
     32 H16         4.2325    0.6402    1.3019 H       1  <1>         0.0265
     33 H17         3.6700   -1.0975    1.2138 H       1  <1>         0.0265
     34 H18         4.4329    0.7344   -1.1423 H       1  <1>         0.0265
     35 H19         4.0729   -1.0120   -1.3025 H       1  <1>         0.0265
     36 H20         5.9124   -1.7127   -0.0102 H       1  <1>         0.0263
     37 H21         6.4518   -0.6320   -1.3618 H       1  <1>         0.0263
     38 H22         7.7215   -0.0240    0.5762 H       1  <1>         0.0230
     39 H23         6.2169    0.2456    1.5446 H       1  <1>         0.0230
     40 H24         6.5790    1.2956    0.0598 H       1  <1>         0.0230
     41 H25        -8.5524    1.4070    0.6602 H       1  <1>         0.2951
@<TRIPOS>BOND
     1     1     2    1
     2     1     3    1
     3     3     4    1
     4     4     5    1
     5     5     6    1
     6     6     7    1
     7     7     8    1
     8     8     9    1
     9     9    10    1
    10    10    11    1
    11    11    12    1
    12    12    13    1
    13     1    14    1
    14    14    15    1
    15    14    16    2
    16     1    17    1
    17     2    18    1
    18     2    19    1
    19     3    20    1
    20     3    21    1
    21     5    22    1
    22     5    23    1
    23     6    24    1
    24     6    25    1
    25     7    26    1
    26     7    27    1
    27     8    28    1
    28     8    29    1
    29     9    30    1
    30     9    31    1
    31    10    32    1
    32    10    33    1
    33    11    34    1
    34    11    35    1
    35    12    36    1
    36    12    37    1
    37    13    38    1
    38    13    39    1
    39    13    40    1
    40    15    41    1
