
     RDKit          3D

 41 40  0  0  0  0  0  0  0  0999 V2000
   -5.4974   -0.2204    0.3507 C   0  0  1  0  0  0  0  0  0  0  0  0
   -4.7908   -0.4473   -0.8853 N   0  0  0  0  0  0  0  0  0  0  0  0
   -4.7749    0.8257    1.1506 C   0  0  0  0  0  0  0  0  0  0  0  0
   -3.0821    0.3500    1.5694 S   0  0  0  0  0  0  0  0  0  0  0  0
   -2.0495    0.2441    0.0927 C   0  0  0  0  0  0  0  0  0  0  0  0
   -0.6219   -0.1561    0.4511 C   0  0  0  0  0  0  0  0  0  0  0  0
    0.2012   -0.2365   -0.7962 C   0  0  0  0  0  0  0  0  0  0  0  0
    1.6193   -0.6463   -0.5135 C   0  0  0  0  0  0  0  0  0  0  0  0
    2.3156    0.3337    0.3854 C   0  0  0  0  0  0  0  0  0  0  0  0
    3.7184   -0.1345    0.6598 C   0  0  0  0  0  0  0  0  0  0  0  0
    4.4909   -0.2386   -0.6172 C   0  0  0  0  0  0  0  0  0  0  0  0
    5.9302   -0.6842   -0.3659 C   0  0  0  0  0  0  0  0  0  0  0  0
    6.6534    0.2939    0.5246 C   0  0  0  0  0  0  0  0  0  0  0  0
   -6.8822    0.2380    0.0991 C   0  0  0  0  0  0  0  0  0  0  0  0
   -7.9850    0.6001    0.8174 O   0  0  0  0  0  0  0  0  0  0  0  0
   -7.0717    0.3048   -1.1628 O   0  0  0  0  0  0  0  0  0  0  0  0
   -5.5458   -1.1351    0.9822 H   0  0  0  0  0  0  0  0  0  0  0  0
   -5.2183    0.1094   -1.6341 H   0  0  0  0  0  0  0  0  0  0  0  0
   -4.6141   -1.4468   -1.0983 H   0  0  0  0  0  0  0  0  0  0  0  0
   -4.7425    1.7372    0.5092 H   0  0  0  0  0  0  0  0  0  0  0  0
   -5.3254    1.1088    2.0749 H   0  0  0  0  0  0  0  0  0  0  0  0
   -2.0050    1.2572   -0.3725 H   0  0  0  0  0  0  0  0  0  0  0  0
   -2.4448   -0.4440   -0.6684 H   0  0  0  0  0  0  0  0  0  0  0  0
   -0.6631   -1.1625    0.9190 H   0  0  0  0  0  0  0  0  0  0  0  0
   -0.1991    0.5228    1.2080 H   0  0  0  0  0  0  0  0  0  0  0  0
   -0.2523   -1.0569   -1.4178 H   0  0  0  0  0  0  0  0  0  0  0  0
    0.1826    0.7023   -1.3784 H   0  0  0  0  0  0  0  0  0  0  0  0
    1.5880   -1.6512   -0.0471 H   0  0  0  0  0  0  0  0  0  0  0  0
    2.1850   -0.6764   -1.4851 H   0  0  0  0  0  0  0  0  0  0  0  0
    1.7746    0.5123    1.3425 H   0  0  0  0  0  0  0  0  0  0  0  0
    2.3691    1.3520   -0.1033 H   0  0  0  0  0  0  0  0  0  0  0  0
    4.2325    0.6402    1.3019 H   0  0  0  0  0  0  0  0  0  0  0  0
    3.6700   -1.0975    1.2138 H   0  0  0  0  0  0  0  0  0  0  0  0
    4.4329    0.7344   -1.1423 H   0  0  0  0  0  0  0  0  0  0  0  0
    4.0729   -1.0120   -1.3025 H   0  0  0  0  0  0  0  0  0  0  0  0
    5.9124   -1.7127   -0.0102 H   0  0  0  0  0  0  0  0  0  0  0  0
    6.4518   -0.6320   -1.3618 H   0  0  0  0  0  0  0  0  0  0  0  0
    7.7215   -0.0240    0.5762 H   0  0  0  0  0  0  0  0  0  0  0  0
    6.2169    0.2456    1.5446 H   0  0  0  0  0  0  0  0  0  0  0  0
    6.5790    1.2956    0.0598 H   0  0  0  0  0  0  0  0  0  0  0  0
   -8.5524    1.4070    0.6602 H   0  0  0  0  0  0  0  0  0  0  0  0
  1  2  1  0
  1  3  1  0
  3  4  1  0
  4  5  1  0
  5  6  1  0
  6  7  1  0
  7  8  1  0
  8  9  1  0
  9 10  1  0
 10 11  1  0
 11 12  1  0
 12 13  1  0
  1 14  1  0
 14 15  1  0
 14 16  2  0
  1 17  1  1
  2 18  1  0
  2 19  1  0
  3 20  1  0
  3 21  1  0
  5 22  1  0
  5 23  1  0
  6 24  1  0
  6 25  1  0
  7 26  1  0
  7 27  1  0
  8 28  1  0
  8 29  1  0
  9 30  1  0
  9 31  1  0
 10 32  1  0
 10 33  1  0
 11 34  1  0
 11 35  1  0
 12 36  1  0
 12 37  1  0
 13 38  1  0
 13 39  1  0
 13 40  1  0
 15 41  1  0
M  END
$$$$
