@<TRIPOS>MOLECULE
*****
 55 58 0 0 0
SMALL
GASTEIGER

@<TRIPOS>ATOM
      1 C          -5.3862   -2.8281   -5.1041 C.3     1  UNL1       -0.0542
      2 C          -5.2755   -4.0262   -4.1778 C.3     1  UNL1        0.0325
      3 C          -4.6346   -5.2108   -4.8972 C.3     1  UNL1       -0.0542
      4 C          -4.3871   -3.6805   -3.0245 C.ar    1  UNL1        0.2313
      5 N          -3.1646   -3.1456   -3.0552 N.ar    1  UNL1       -0.1781
      6 C          -2.7345   -3.0062   -1.7843 C.ar    1  UNL1        0.2581
      7 N          -1.5168   -2.4864   -1.3261 N.pl3   1  UNL1       -0.2939
      8 C          -1.3774   -2.2433    0.1276 C.3     1  UNL1        0.0308
      9 C          -1.3065   -0.6991    0.1585 C.3     1  UNL1        0.0310
     10 N          -0.0801   -0.3553   -0.5148 N.pl3   1  UNL1       -0.2939
     11 C           0.8139    0.4960    0.1970 C.ar    1  UNL1        0.2183
     12 N           0.9254    0.4007    1.5427 N.ar    1  UNL1       -0.2191
     13 C           1.7574    1.2635    2.1826 C.ar    1  UNL1        0.0743
     14 C           2.4823    2.2163    1.5340 C.ar    1  UNL1        0.1571
     15 O           3.3424    3.1031    2.2338 O.3     1  UNL1       -0.4843
     16 C           3.3903    2.9069    3.6580 C.3     1  UNL1        0.1161
     17 C           4.2919    3.8619    4.2723 C.ar    1  UNL1        0.0099
     18 C           5.5891    3.4859    4.6020 C.ar    1  UNL1       -0.0360
     19 C           6.4787    4.3597    5.1534 C.ar    1  UNL1        0.0280
     20 N           6.0741    5.6305    5.3815 N.ar    1  UNL1       -0.2620
     21 C           4.8461    6.0126    5.0759 C.ar    1  UNL1        0.0453
     22 C           3.8977    5.1656    4.5147 C.ar    1  UNL1        0.0762
     23 C           2.5906    5.6365    4.2257 C.1     1  UNL1        0.1011
     24 N           1.5054    6.0419    3.9990 N.1     1  UNL1       -0.1908
     25 C           2.3551    2.3005    0.1521 C.ar    1  UNL1        0.0743
     26 N           1.5088    1.4147   -0.4573 N.ar    1  UNL1       -0.2191
     27 C           0.2531   -0.8255   -1.8081 C.3     1  UNL1        0.0392
     28 C          -0.1621    0.2071   -2.8439 C.3     1  UNL1       -0.0449
     29 C          -0.3795   -2.1442   -2.1177 C.3     1  UNL1        0.0334
     30 N          -3.7419   -3.4745   -1.0100 N.ar    1  UNL1       -0.0400
     31 O          -4.7050   -3.8657   -1.7762 O.2     1  UNL1       -0.3361
     32 H          -5.2317   -3.1442   -6.1600 H       1  UNL1        0.0237
     33 H          -6.3715   -2.3685   -5.0165 H       1  UNL1        0.0237
     34 H          -4.6198   -2.0625   -4.8054 H       1  UNL1        0.0237
     35 H          -6.2572   -4.3638   -3.8061 H       1  UNL1        0.0391
     36 H          -5.3028   -5.5210   -5.7055 H       1  UNL1        0.0237
     37 H          -4.5871   -6.0301   -4.1452 H       1  UNL1        0.0237
     38 H          -3.6033   -4.9667   -5.1952 H       1  UNL1        0.0237
     39 H          -2.2431   -2.5961    0.6816 H       1  UNL1        0.0480
     40 H          -0.4140   -2.6455    0.4883 H       1  UNL1        0.0480
     41 H          -1.4090   -0.3074    1.1806 H       1  UNL1        0.0480
     42 H          -2.1652   -0.3535   -0.4732 H       1  UNL1        0.0480
     43 H           1.8404    1.1731    3.2772 H       1  UNL1        0.0869
     44 H           2.3349    3.0233    4.0183 H       1  UNL1        0.0748
     45 H           3.7343    1.8739    3.8097 H       1  UNL1        0.0748
     46 H           5.8707    2.4556    4.4025 H       1  UNL1        0.0637
     47 H           7.5043    4.0873    5.4183 H       1  UNL1        0.0829
     48 H           4.5090    7.0268    5.2515 H       1  UNL1        0.0843
     49 H           2.9100    3.0340   -0.3910 H       1  UNL1        0.0869
     50 H           1.3691   -0.9855   -1.9235 H       1  UNL1        0.0513
     51 H          -1.1363   -0.1257   -3.2651 H       1  UNL1        0.0248
     52 H           0.6207    0.2244   -3.6304 H       1  UNL1        0.0248
     53 H          -0.3296    1.1893   -2.3734 H       1  UNL1        0.0248
     54 H          -0.6429   -2.1538   -3.2192 H       1  UNL1        0.0483
     55 H           0.3697   -2.9755   -2.0104 H       1  UNL1        0.0483
@<TRIPOS>BOND
     1     1     2    1
     2     2     3    1
     3     2     4    1
     4     4     5   ar
     5     5     6   ar
     6     6     7    1
     7     7     8    1
     8     8     9    1
     9     9    10    1
    10    10    11    1
    11    11    12   ar
    12    12    13   ar
    13    13    14   ar
    14    14    15    1
    15    15    16    1
    16    16    17    1
    17    17    18   ar
    18    18    19   ar
    19    19    20   ar
    20    20    21   ar
    21    21    22   ar
    22    22    23    1
    23    23    24    3
    24    14    25   ar
    25    25    26   ar
    26    10    27    1
    27    27    28    1
    28    27    29    1
    29     6    30   ar
    30    30    31   ar
    31    31     4   ar
    32    29     7    1
    33    26    11   ar
    34    22    17   ar
    35     1    32    1
    36     1    33    1
    37     1    34    1
    38     2    35    1
    39     3    36    1
    40     3    37    1
    41     3    38    1
    42     8    39    1
    43     8    40    1
    44     9    41    1
    45     9    42    1
    46    13    43    1
    47    16    44    1
    48    16    45    1
    49    18    46    1
    50    19    47    1
    51    21    48    1
    52    25    49    1
    53    27    50    1
    54    28    51    1
    55    28    52    1
    56    28    53    1
    57    29    54    1
    58    29    55    1
