@<TRIPOS>MOLECULE
*****
 38 40 0 0 0
SMALL
GASTEIGER

@<TRIPOS>ATOM
      1 O          -5.2480   -0.3097   -2.0657 O.3     1  UNL1       -0.4662
      2 C          -4.8080    0.1263   -0.8150 C.2     1  UNL1        0.4005
      3 O          -5.8436    0.4146   -0.1264 O.2     1  UNL1       -0.2264
      4 N          -3.4393    0.2283   -0.3908 N.am    1  UNL1       -0.2676
      5 C          -2.3390   -0.1190   -1.2358 C.3     1  UNL1        0.0181
      6 C          -1.3584   -1.0447   -0.5088 C.3     1  UNL1       -0.0339
      7 C          -1.3567   -0.7685    0.9616 C.3     1  UNL1       -0.0342
      8 C          -0.1026   -1.1561    1.6805 C.3     1  UNL1       -0.0233
      9 C           1.1111   -0.4863    1.2076 C.ar    1  UNL1       -0.0284
     10 C           1.4289    0.7171    1.8238 C.ar    1  UNL1        0.0315
     11 N           2.5400    1.3983    1.4420 N.ar    1  UNL1       -0.2547
     12 C           3.3395    0.9075    0.4618 C.ar    1  UNL1        0.0710
     13 C           4.4749    1.6330    0.0928 C.ar    1  UNL1       -0.0357
     14 C           5.2620    1.1048   -0.9047 C.ar    1  UNL1       -0.0597
     15 C           5.0090   -0.0929   -1.5676 C.ar    1  UNL1       -0.0611
     16 C           3.8658   -0.7935   -1.1745 C.ar    1  UNL1       -0.0526
     17 C           3.0514   -0.2867   -0.1711 C.ar    1  UNL1        0.0006
     18 C           1.9226   -0.9879    0.2103 C.ar    1  UNL1       -0.0479
     19 C          -1.7790    0.6540    1.2642 C.3     1  UNL1       -0.0339
     20 C          -3.2832    0.7139    0.9673 C.3     1  UNL1        0.0181
     21 H          -5.8182    0.3076   -2.6649 H       1  UNL1        0.2968
     22 H          -2.7240   -0.6429   -2.1345 H       1  UNL1        0.0466
     23 H          -1.7417    0.7778   -1.5492 H       1  UNL1        0.0466
     24 H          -0.3704   -0.9220   -0.9906 H       1  UNL1        0.0283
     25 H          -1.6801   -2.0778   -0.7551 H       1  UNL1        0.0283
     26 H          -2.1885   -1.4027    1.3887 H       1  UNL1        0.0305
     27 H          -0.3046   -0.9554    2.7714 H       1  UNL1        0.0316
     28 H           0.0377   -2.2559    1.6344 H       1  UNL1        0.0316
     29 H           0.8771    1.1921    2.5984 H       1  UNL1        0.0832
     30 H           4.7382    2.5779    0.5657 H       1  UNL1        0.0639
     31 H           6.1526    1.6449   -1.2150 H       1  UNL1        0.0618
     32 H           5.6359   -0.4794   -2.3374 H       1  UNL1        0.0618
     33 H           3.6367   -1.7359   -1.6726 H       1  UNL1        0.0624
     34 H           1.6886   -1.9061   -0.2652 H       1  UNL1        0.0627
     35 H          -1.3350    1.3744    0.5316 H       1  UNL1        0.0283
     36 H          -1.5604    0.8887    2.3045 H       1  UNL1        0.0283
     37 H          -3.6552    1.7243    1.1378 H       1  UNL1        0.0466
     38 H          -3.8360    0.0379    1.6677 H       1  UNL1        0.0466
@<TRIPOS>BOND
     1     1     2    1
     2     2     3    2
     3     2     4   am
     4     4     5    1
     5     5     6    1
     6     6     7    1
     7     7     8    1
     8     8     9    1
     9     9    10   ar
    10    10    11   ar
    11    11    12   ar
    12    12    13   ar
    13    13    14   ar
    14    14    15   ar
    15    15    16   ar
    16    16    17   ar
    17    17    18   ar
    18     7    19    1
    19    19    20    1
    20    20     4    1
    21    18     9   ar
    22    17    12   ar
    23     1    21    1
    24     5    22    1
    25     5    23    1
    26     6    24    1
    27     6    25    1
    28     7    26    1
    29     8    27    1
    30     8    28    1
    31    10    29    1
    32    13    30    1
    33    14    31    1
    34    15    32    1
    35    16    33    1
    36    18    34    1
    37    19    35    1
    38    19    36    1
    39    20    37    1
    40    20    38    1
