
     RDKit          3D

 38 40  0  0  0  0  0  0  0  0999 V2000
   -5.2480   -0.3097   -2.0657 O   0  0  0  0  0  0  0  0  0  0  0  0
   -4.8080    0.1263   -0.8150 C   0  0  0  0  0  0  0  0  0  0  0  0
   -5.8436    0.4146   -0.1264 O   0  0  0  0  0  0  0  0  0  0  0  0
   -3.4393    0.2283   -0.3908 N   0  0  0  0  0  0  0  0  0  0  0  0
   -2.3390   -0.1190   -1.2358 C   0  0  0  0  0  0  0  0  0  0  0  0
   -1.3584   -1.0447   -0.5088 C   0  0  0  0  0  0  0  0  0  0  0  0
   -1.3567   -0.7685    0.9616 C   0  0  0  0  0  0  0  0  0  0  0  0
   -0.1026   -1.1561    1.6805 C   0  0  0  0  0  0  0  0  0  0  0  0
    1.1111   -0.4863    1.2076 C   0  0  0  0  0  0  0  0  0  0  0  0
    1.4289    0.7171    1.8238 C   0  0  0  0  0  0  0  0  0  0  0  0
    2.5400    1.3983    1.4420 N   0  0  0  0  0  0  0  0  0  0  0  0
    3.3395    0.9075    0.4618 C   0  0  0  0  0  0  0  0  0  0  0  0
    4.4749    1.6330    0.0928 C   0  0  0  0  0  0  0  0  0  0  0  0
    5.2620    1.1048   -0.9047 C   0  0  0  0  0  0  0  0  0  0  0  0
    5.0090   -0.0929   -1.5676 C   0  0  0  0  0  0  0  0  0  0  0  0
    3.8658   -0.7935   -1.1745 C   0  0  0  0  0  0  0  0  0  0  0  0
    3.0514   -0.2867   -0.1711 C   0  0  0  0  0  0  0  0  0  0  0  0
    1.9226   -0.9879    0.2103 C   0  0  0  0  0  0  0  0  0  0  0  0
   -1.7790    0.6540    1.2642 C   0  0  0  0  0  0  0  0  0  0  0  0
   -3.2832    0.7139    0.9673 C   0  0  0  0  0  0  0  0  0  0  0  0
   -5.8182    0.3076   -2.6649 H   0  0  0  0  0  0  0  0  0  0  0  0
   -2.7240   -0.6429   -2.1345 H   0  0  0  0  0  0  0  0  0  0  0  0
   -1.7417    0.7778   -1.5492 H   0  0  0  0  0  0  0  0  0  0  0  0
   -0.3704   -0.9220   -0.9906 H   0  0  0  0  0  0  0  0  0  0  0  0
   -1.6801   -2.0778   -0.7551 H   0  0  0  0  0  0  0  0  0  0  0  0
   -2.1885   -1.4027    1.3887 H   0  0  0  0  0  0  0  0  0  0  0  0
   -0.3046   -0.9554    2.7714 H   0  0  0  0  0  0  0  0  0  0  0  0
    0.0377   -2.2559    1.6344 H   0  0  0  0  0  0  0  0  0  0  0  0
    0.8771    1.1921    2.5984 H   0  0  0  0  0  0  0  0  0  0  0  0
    4.7382    2.5779    0.5657 H   0  0  0  0  0  0  0  0  0  0  0  0
    6.1526    1.6449   -1.2150 H   0  0  0  0  0  0  0  0  0  0  0  0
    5.6359   -0.4794   -2.3374 H   0  0  0  0  0  0  0  0  0  0  0  0
    3.6367   -1.7359   -1.6726 H   0  0  0  0  0  0  0  0  0  0  0  0
    1.6886   -1.9061   -0.2652 H   0  0  0  0  0  0  0  0  0  0  0  0
   -1.3350    1.3744    0.5316 H   0  0  0  0  0  0  0  0  0  0  0  0
   -1.5604    0.8887    2.3045 H   0  0  0  0  0  0  0  0  0  0  0  0
   -3.6552    1.7243    1.1378 H   0  0  0  0  0  0  0  0  0  0  0  0
   -3.8360    0.0379    1.6677 H   0  0  0  0  0  0  0  0  0  0  0  0
  1  2  1  0
  2  3  2  0
  2  4  1  0
  4  5  1  0
  5  6  1  0
  6  7  1  0
  7  8  1  0
  8  9  1  0
  9 10  2  0
 10 11  1  0
 11 12  2  0
 12 13  1  0
 13 14  2  0
 14 15  1  0
 15 16  2  0
 16 17  1  0
 17 18  2  0
  7 19  1  0
 19 20  1  0
 20  4  1  0
 18  9  1  0
 17 12  1  0
  1 21  1  0
  5 22  1  0
  5 23  1  0
  6 24  1  0
  6 25  1  0
  7 26  1  0
  8 27  1  0
  8 28  1  0
 10 29  1  0
 13 30  1  0
 14 31  1  0
 15 32  1  0
 16 33  1  0
 18 34  1  0
 19 35  1  0
 19 36  1  0
 20 37  1  0
 20 38  1  0
M  END
$$$$
