
     RDKit          3D

 81 85  0  0  0  0  0  0  0  0999 V2000
   -4.0636    2.7547   -1.8194 C   0  0  0  0  0  0  0  0  0  0  0  0
   -4.5287    1.3106   -1.6480 C   0  0  0  0  0  0  0  0  0  0  0  0
   -5.5433    1.1168   -2.8035 C   0  0  0  0  0  0  0  0  0  0  0  0
   -5.3819    1.2725   -0.4090 C   0  0  0  0  0  0  0  0  0  0  0  0
   -4.4257    1.2572    0.7590 C   0  0  0  0  0  0  0  0  0  0  0  0
   -3.7577   -0.0700    0.7722 C   0  0  2  0  0  0  0  0  0  0  0  0
   -4.8173   -1.0661    1.2045 C   0  0  0  0  0  0  0  0  0  0  0  0
   -5.9726   -0.7722    1.5076 O   0  0  0  0  0  0  0  0  0  0  0  0
   -4.3953   -2.3892    1.2420 O   0  0  0  0  0  0  0  0  0  0  0  0
   -2.7973   -0.1466    1.9655 C   0  0  0  0  0  0  0  0  0  0  0  0
   -1.5696    0.6709    1.8068 C   0  0  0  0  0  0  0  0  0  0  0  0
   -0.8231    0.3469    0.5320 C   0  0  2  0  0  0  0  0  0  0  0  0
   -0.6419    1.6986   -0.1579 C   0  0  0  0  0  0  0  0  0  0  0  0
   -1.6281   -0.6128   -0.2447 C   0  0  0  0  0  0  0  0  0  0  0  0
   -1.0497   -1.6900   -0.7454 C   0  0  0  0  0  0  0  0  0  0  0  0
    0.3749   -2.0807   -0.6216 C   0  0  0  0  0  0  0  0  0  0  0  0
    1.1393   -0.7976   -0.4073 C   0  0  2  0  0  0  0  0  0  0  0  0
    2.6127   -0.9725   -0.4818 C   0  0  1  0  0  0  0  0  0  0  0  0
    3.1330   -2.2862    0.0432 C   0  0  0  0  0  0  0  0  0  0  0  0
    2.9678   -0.9676   -1.9777 C   0  0  0  0  0  0  0  0  0  0  0  0
    4.4091   -1.0283   -2.2672 C   0  0  0  0  0  0  0  0  0  0  0  0
    5.3490   -0.4069   -1.3076 C   0  0  2  0  0  0  0  0  0  0  0  0
    6.3273   -1.3688   -0.9343 O   0  0  0  0  0  0  0  0  0  0  0  0
    4.7999    0.2276   -0.1006 C   0  0  0  0  0  0  0  0  0  0  0  0
    5.4673   -0.3497    1.1553 C   0  0  0  0  0  0  0  0  0  0  0  0
    5.2211    1.7130   -0.0978 C   0  0  0  0  0  0  0  0  0  0  0  0
    3.3300    0.2146    0.0679 C   0  0  2  0  0  0  0  0  0  0  0  0
    2.8730    0.4095    1.4929 C   0  0  0  0  0  0  0  0  0  0  0  0
    1.4359    0.9530    1.3664 C   0  0  0  0  0  0  0  0  0  0  0  0
    0.5799   -0.1852    0.8274 C   0  0  1  0  0  0  0  0  0  0  0  0
    0.5089   -1.2044    1.9752 C   0  0  0  0  0  0  0  0  0  0  0  0
   -3.0937   -0.4646   -0.5048 C   0  0  2  0  0  0  0  0  0  0  0  0
   -3.4366    0.3160   -1.7177 C   0  0  0  0  0  0  0  0  0  0  0  0
   -4.1175    3.3278   -0.8711 H   0  0  0  0  0  0  0  0  0  0  0  0
   -4.6646    3.3151   -2.5644 H   0  0  0  0  0  0  0  0  0  0  0  0
   -3.0126    2.7717   -2.2334 H   0  0  0  0  0  0  0  0  0  0  0  0
   -6.0953    0.1829   -2.6928 H   0  0  0  0  0  0  0  0  0  0  0  0
   -4.9670    1.1974   -3.7527 H   0  0  0  0  0  0  0  0  0  0  0  0
   -6.2349    1.9851   -2.7968 H   0  0  0  0  0  0  0  0  0  0  0  0
   -6.0057    2.1987   -0.4170 H   0  0  0  0  0  0  0  0  0  0  0  0
   -6.0091    0.3659   -0.4923 H   0  0  0  0  0  0  0  0  0  0  0  0
   -3.7593    2.1154    0.7027 H   0  0  0  0  0  0  0  0  0  0  0  0
   -5.0785    1.2964    1.6742 H   0  0  0  0  0  0  0  0  0  0  0  0
   -5.0639   -3.1587    1.1389 H   0  0  0  0  0  0  0  0  0  0  0  0
   -2.6612   -1.1927    2.2482 H   0  0  0  0  0  0  0  0  0  0  0  0
   -3.3839    0.3086    2.8172 H   0  0  0  0  0  0  0  0  0  0  0  0
   -1.8888    1.7432    1.8738 H   0  0  0  0  0  0  0  0  0  0  0  0
   -0.9459    0.5162    2.7100 H   0  0  0  0  0  0  0  0  0  0  0  0
   -1.6524    2.0968   -0.3834 H   0  0  0  0  0  0  0  0  0  0  0  0
    0.0417    1.6974   -0.9899 H   0  0  0  0  0  0  0  0  0  0  0  0
   -0.3230    2.3972    0.6784 H   0  0  0  0  0  0  0  0  0  0  0  0
   -1.6508   -2.4251   -1.3371 H   0  0  0  0  0  0  0  0  0  0  0  0
    0.3994   -2.7464    0.2916 H   0  0  0  0  0  0  0  0  0  0  0  0
    0.7283   -2.6348   -1.5158 H   0  0  0  0  0  0  0  0  0  0  0  0
    0.8305   -0.1338   -1.2694 H   0  0  0  0  0  0  0  0  0  0  0  0
    2.3780   -3.0967    0.0579 H   0  0  0  0  0  0  0  0  0  0  0  0
    3.5787   -2.2252    1.0443 H   0  0  0  0  0  0  0  0  0  0  0  0
    3.9504   -2.7077   -0.6157 H   0  0  0  0  0  0  0  0  0  0  0  0
    2.4896   -0.0628   -2.4212 H   0  0  0  0  0  0  0  0  0  0  0  0
    2.4275   -1.8450   -2.4009 H   0  0  0  0  0  0  0  0  0  0  0  0
    4.5336   -0.6143   -3.3180 H   0  0  0  0  0  0  0  0  0  0  0  0
    4.6686   -2.1205   -2.4280 H   0  0  0  0  0  0  0  0  0  0  0  0
    5.9862    0.3245   -1.8973 H   0  0  0  0  0  0  0  0  0  0  0  0
    6.1753   -2.2259   -1.4147 H   0  0  0  0  0  0  0  0  0  0  0  0
    6.3817    0.2465    1.4293 H   0  0  0  0  0  0  0  0  0  0  0  0
    4.8175   -0.3309    2.0272 H   0  0  0  0  0  0  0  0  0  0  0  0
    5.8191   -1.3747    1.0024 H   0  0  0  0  0  0  0  0  0  0  0  0
    4.8386    2.1539    0.8240 H   0  0  0  0  0  0  0  0  0  0  0  0
    4.8146    2.1829   -1.0182 H   0  0  0  0  0  0  0  0  0  0  0  0
    6.3288    1.7689   -0.0710 H   0  0  0  0  0  0  0  0  0  0  0  0
    2.9254    1.0902   -0.5282 H   0  0  0  0  0  0  0  0  0  0  0  0
    2.7891   -0.5016    2.0782 H   0  0  0  0  0  0  0  0  0  0  0  0
    3.4394    1.2210    1.9944 H   0  0  0  0  0  0  0  0  0  0  0  0
    1.5724    1.7669    0.5935 H   0  0  0  0  0  0  0  0  0  0  0  0
    1.0445    1.3111    2.3124 H   0  0  0  0  0  0  0  0  0  0  0  0
    0.6682   -0.7038    2.9593 H   0  0  0  0  0  0  0  0  0  0  0  0
   -0.3874   -1.8232    1.9272 H   0  0  0  0  0  0  0  0  0  0  0  0
    1.3626   -1.9376    1.8965 H   0  0  0  0  0  0  0  0  0  0  0  0
   -3.5121   -1.5070   -0.7122 H   0  0  0  0  0  0  0  0  0  0  0  0
   -2.4734    0.7482   -2.1319 H   0  0  0  0  0  0  0  0  0  0  0  0
   -3.7054   -0.3644   -2.5932 H   0  0  0  0  0  0  0  0  0  0  0  0
  1  2  1  0
  2  3  1  0
  2  4  1  0
  4  5  1  0
  5  6  1  0
  6  7  1  1
  7  8  2  0
  7  9  1  0
  6 10  1  0
 10 11  1  0
 11 12  1  0
 12 13  1  6
 12 14  1  0
 14 15  2  0
 15 16  1  0
 16 17  1  0
 17 18  1  0
 18 19  1  1
 18 20  1  0
 20 21  1  0
 21 22  1  0
 22 23  1  0
 22 24  1  0
 24 25  1  0
 24 26  1  0
 24 27  1  0
 27 28  1  0
 28 29  1  0
 29 30  1  0
 30 31  1  1
 14 32  1  0
 32 33  1  0
 33  2  1  0
 32  6  1  0
 30 12  1  0
 30 17  1  0
 27 18  1  0
  1 34  1  0
  1 35  1  0
  1 36  1  0
  3 37  1  0
  3 38  1  0
  3 39  1  0
  4 40  1  0
  4 41  1  0
  5 42  1  0
  5 43  1  0
  9 44  1  0
 10 45  1  0
 10 46  1  0
 11 47  1  0
 11 48  1  0
 13 49  1  0
 13 50  1  0
 13 51  1  0
 15 52  1  0
 16 53  1  0
 16 54  1  0
 17 55  1  6
 19 56  1  0
 19 57  1  0
 19 58  1  0
 20 59  1  0
 20 60  1  0
 21 61  1  0
 21 62  1  0
 22 63  1  6
 23 64  1  0
 25 65  1  0
 25 66  1  0
 25 67  1  0
 26 68  1  0
 26 69  1  0
 26 70  1  0
 27 71  1  6
 28 72  1  0
 28 73  1  0
 29 74  1  0
 29 75  1  0
 31 76  1  0
 31 77  1  0
 31 78  1  0
 32 79  1  6
 33 80  1  0
 33 81  1  0
M  END
$$$$
