@<TRIPOS>MOLECULE
*****
 81 85 0 0 0
SMALL
GASTEIGER

@<TRIPOS>ATOM
      1 C          -4.0636    2.7547   -1.8194 C.3     1  UNL1       -0.0598
      2 C          -4.5287    1.3106   -1.6480 C.3     1  UNL1       -0.0343
      3 C          -5.5433    1.1168   -2.8035 C.3     1  UNL1       -0.0598
      4 C          -5.3819    1.2725   -0.4090 C.3     1  UNL1       -0.0468
      5 C          -4.4257    1.2572    0.7590 C.3     1  UNL1       -0.0362
      6 C          -3.7577   -0.0700    0.7722 C.3     1  UNL1        0.0741
      7 C          -4.8173   -1.0661    1.2045 C.2     1  UNL1        0.3115
      8 O          -5.9726   -0.7722    1.5076 O.2     1  UNL1       -0.2504
      9 O          -4.3953   -2.3892    1.2420 O.3     1  UNL1       -0.4802
     10 C          -2.7973   -0.1466    1.9655 C.3     1  UNL1       -0.0359
     11 C          -1.5696    0.6709    1.8068 C.3     1  UNL1       -0.0424
     12 C          -0.8231    0.3469    0.5320 C.3     1  UNL1       -0.0051
     13 C          -0.6419    1.6986   -0.1579 C.3     1  UNL1       -0.0553
     14 C          -1.6281   -0.6128   -0.2447 C.2     1  UNL1       -0.0629
     15 C          -1.0497   -1.6900   -0.7454 C.2     1  UNL1       -0.0836
     16 C           0.3749   -2.0807   -0.6216 C.3     1  UNL1       -0.0306
     17 C           1.1393   -0.7976   -0.4073 C.3     1  UNL1       -0.0257
     18 C           2.6127   -0.9725   -0.4818 C.3     1  UNL1       -0.0250
     19 C           3.1330   -2.2862    0.0432 C.3     1  UNL1       -0.0590
     20 C           2.9678   -0.9676   -1.9777 C.3     1  UNL1       -0.0447
     21 C           4.4091   -1.0283   -2.2672 C.3     1  UNL1       -0.0258
     22 C           5.3490   -0.4069   -1.3076 C.3     1  UNL1        0.0606
     23 O           6.3273   -1.3688   -0.9343 O.3     1  UNL1       -0.3912
     24 C           4.7999    0.2276   -0.1006 C.3     1  UNL1       -0.0056
     25 C           5.4673   -0.3497    1.1553 C.3     1  UNL1       -0.0572
     26 C           5.2211    1.7130   -0.0978 C.3     1  UNL1       -0.0572
     27 C           3.3300    0.2146    0.0679 C.3     1  UNL1       -0.0278
     28 C           2.8730    0.4095    1.4929 C.3     1  UNL1       -0.0486
     29 C           1.4359    0.9530    1.3664 C.3     1  UNL1       -0.0463
     30 C           0.5799   -0.1852    0.8274 C.3     1  UNL1       -0.0194
     31 C           0.5089   -1.2044    1.9752 C.3     1  UNL1       -0.0585
     32 C          -3.0937   -0.4646   -0.5048 C.3     1  UNL1       -0.0031
     33 C          -3.4366    0.3160   -1.7177 C.3     1  UNL1       -0.0403
     34 H          -4.1175    3.3278   -0.8711 H       1  UNL1        0.0235
     35 H          -4.6646    3.3151   -2.5644 H       1  UNL1        0.0235
     36 H          -3.0126    2.7717   -2.2334 H       1  UNL1        0.0235
     37 H          -6.0953    0.1829   -2.6928 H       1  UNL1        0.0235
     38 H          -4.9670    1.1974   -3.7527 H       1  UNL1        0.0235
     39 H          -6.2349    1.9851   -2.7968 H       1  UNL1        0.0235
     40 H          -6.0057    2.1987   -0.4170 H       1  UNL1        0.0271
     41 H          -6.0091    0.3659   -0.4923 H       1  UNL1        0.0271
     42 H          -3.7593    2.1154    0.7027 H       1  UNL1        0.0276
     43 H          -5.0785    1.2964    1.6742 H       1  UNL1        0.0276
     44 H          -5.0639   -3.1587    1.1389 H       1  UNL1        0.2951
     45 H          -2.6612   -1.1927    2.2482 H       1  UNL1        0.0276
     46 H          -3.3839    0.3086    2.8172 H       1  UNL1        0.0276
     47 H          -1.8888    1.7432    1.8738 H       1  UNL1        0.0274
     48 H          -0.9459    0.5162    2.7100 H       1  UNL1        0.0274
     49 H          -1.6524    2.0968   -0.3834 H       1  UNL1        0.0238
     50 H           0.0417    1.6974   -0.9899 H       1  UNL1        0.0238
     51 H          -0.3230    2.3972    0.6784 H       1  UNL1        0.0238
     52 H          -1.6508   -2.4251   -1.3371 H       1  UNL1        0.0572
     53 H           0.3994   -2.7464    0.2916 H       1  UNL1        0.0310
     54 H           0.7283   -2.6348   -1.5158 H       1  UNL1        0.0310
     55 H           0.8305   -0.1338   -1.2694 H       1  UNL1        0.0315
     56 H           2.3780   -3.0967    0.0579 H       1  UNL1        0.0235
     57 H           3.5787   -2.2252    1.0443 H       1  UNL1        0.0235
     58 H           3.9504   -2.7077   -0.6157 H       1  UNL1        0.0235
     59 H           2.4896   -0.0628   -2.4212 H       1  UNL1        0.0271
     60 H           2.4275   -1.8450   -2.4009 H       1  UNL1        0.0271
     61 H           4.5336   -0.6143   -3.3180 H       1  UNL1        0.0290
     62 H           4.6686   -2.1205   -2.4280 H       1  UNL1        0.0290
     63 H           5.9862    0.3245   -1.8973 H       1  UNL1        0.0599
     64 H           6.1753   -2.2259   -1.4147 H       1  UNL1        0.2098
     65 H           6.3817    0.2465    1.4293 H       1  UNL1        0.0236
     66 H           4.8175   -0.3309    2.0272 H       1  UNL1        0.0236
     67 H           5.8191   -1.3747    1.0024 H       1  UNL1        0.0236
     68 H           4.8386    2.1539    0.8240 H       1  UNL1        0.0236
     69 H           4.8146    2.1829   -1.0182 H       1  UNL1        0.0236
     70 H           6.3288    1.7689   -0.0710 H       1  UNL1        0.0236
     71 H           2.9254    1.0902   -0.5282 H       1  UNL1        0.0312
     72 H           2.7891   -0.5016    2.0782 H       1  UNL1        0.0268
     73 H           3.4394    1.2210    1.9944 H       1  UNL1        0.0268
     74 H           1.5724    1.7669    0.5935 H       1  UNL1        0.0271
     75 H           1.0445    1.3111    2.3124 H       1  UNL1        0.0271
     76 H           0.6682   -0.7038    2.9593 H       1  UNL1        0.0235
     77 H          -0.3874   -1.8232    1.9272 H       1  UNL1        0.0235
     78 H           1.3626   -1.9376    1.8965 H       1  UNL1        0.0235
     79 H          -3.5121   -1.5070   -0.7122 H       1  UNL1        0.0357
     80 H          -2.4734    0.7482   -2.1319 H       1  UNL1        0.0276
     81 H          -3.7054   -0.3644   -2.5932 H       1  UNL1        0.0276
@<TRIPOS>BOND
     1     1     2    1
     2     2     3    1
     3     2     4    1
     4     4     5    1
     5     5     6    1
     6     6     7    1
     7     7     8    2
     8     7     9    1
     9     6    10    1
    10    10    11    1
    11    11    12    1
    12    12    13    1
    13    12    14    1
    14    14    15    2
    15    15    16    1
    16    16    17    1
    17    17    18    1
    18    18    19    1
    19    18    20    1
    20    20    21    1
    21    21    22    1
    22    22    23    1
    23    22    24    1
    24    24    25    1
    25    24    26    1
    26    24    27    1
    27    27    28    1
    28    28    29    1
    29    29    30    1
    30    30    31    1
    31    14    32    1
    32    32    33    1
    33    33     2    1
    34    32     6    1
    35    30    12    1
    36    30    17    1
    37    27    18    1
    38     1    34    1
    39     1    35    1
    40     1    36    1
    41     3    37    1
    42     3    38    1
    43     3    39    1
    44     4    40    1
    45     4    41    1
    46     5    42    1
    47     5    43    1
    48     9    44    1
    49    10    45    1
    50    10    46    1
    51    11    47    1
    52    11    48    1
    53    13    49    1
    54    13    50    1
    55    13    51    1
    56    15    52    1
    57    16    53    1
    58    16    54    1
    59    17    55    1
    60    19    56    1
    61    19    57    1
    62    19    58    1
    63    20    59    1
    64    20    60    1
    65    21    61    1
    66    21    62    1
    67    22    63    1
    68    23    64    1
    69    25    65    1
    70    25    66    1
    71    25    67    1
    72    26    68    1
    73    26    69    1
    74    26    70    1
    75    27    71    1
    76    28    72    1
    77    28    73    1
    78    29    74    1
    79    29    75    1
    80    31    76    1
    81    31    77    1
    82    31    78    1
    83    32    79    1
    84    33    80    1
    85    33    81    1
