@<TRIPOS>MOLECULE
*****
 41 41 0 0 0
SMALL
GASTEIGER

@<TRIPOS>ATOM
      1 C          -3.8834   -0.1658    2.3709 C.3     1  UNL1       -0.0653
      2 C          -3.5041    0.7695    1.2377 C.3     1  UNL1       -0.0559
      3 C          -3.7170    0.0103   -0.0550 C.3     1  UNL1       -0.0533
      4 C          -3.3397    0.9393   -1.1942 C.3     1  UNL1       -0.0517
      5 C          -3.4868    0.3028   -2.5186 C.3     1  UNL1       -0.0373
      6 C          -2.7092   -0.8807   -2.8951 C.3     1  UNL1        0.0147
      7 N          -1.2915   -0.8277   -3.0101 N.am    1  UNL1       -0.2808
      8 C          -0.3291   -0.5920   -2.0290 C.2     1  UNL1        0.4056
      9 O          -0.6330   -0.3990   -0.8452 O.2     1  UNL1       -0.2260
     10 O           1.0480   -0.5555   -2.3055 O.3     1  UNL1       -0.4105
     11 C           1.9626   -0.3165   -1.2892 C.ar    1  UNL1        0.1463
     12 C           2.4789   -1.3945   -0.5844 C.ar    1  UNL1       -0.0174
     13 C           3.3920   -1.2112    0.4365 C.ar    1  UNL1       -0.0442
     14 C           3.8278    0.0459    0.7973 C.ar    1  UNL1        0.0602
     15 C           4.7916    0.2332    1.8754 C.2     1  UNL1        0.3390
     16 O           5.1467    1.4077    2.1533 O.2     1  UNL1       -0.2450
     17 O           5.3331   -0.7896    2.6029 O.3     1  UNL1       -0.4645
     18 C           6.2685   -0.6176    3.6502 C.3     1  UNL1        0.0820
     19 C           3.3119    1.1118    0.0943 C.ar    1  UNL1       -0.0311
     20 C           2.3908    0.9324   -0.9360 C.ar    1  UNL1        0.0565
     21 I           1.6417    2.6140   -1.9712 I       1  UNL1       -0.0400
     22 H          -3.6527    0.2681    3.3606 H       1  UNL1        0.0230
     23 H          -3.3381   -1.1133    2.1905 H       1  UNL1        0.0230
     24 H          -4.9686   -0.3864    2.2368 H       1  UNL1        0.0230
     25 H          -4.1233    1.6817    1.2917 H       1  UNL1        0.0263
     26 H          -2.4402    1.1069    1.3317 H       1  UNL1        0.0263
     27 H          -4.8098   -0.2322   -0.0904 H       1  UNL1        0.0265
     28 H          -3.1064   -0.9020   -0.0309 H       1  UNL1        0.0265
     29 H          -4.1633    1.7619   -1.1680 H       1  UNL1        0.0266
     30 H          -2.4172    1.4451   -0.9507 H       1  UNL1        0.0266
     31 H          -3.4792    1.0976   -3.3410 H       1  UNL1        0.0280
     32 H          -4.5900   -0.0222   -2.5710 H       1  UNL1        0.0280
     33 H          -3.0795   -1.3180   -3.8821 H       1  UNL1        0.0463
     34 H          -2.9496   -1.7725   -2.1973 H       1  UNL1        0.0463
     35 H          -0.8357   -0.9887   -4.0003 H       1  UNL1        0.1520
     36 H           2.1552   -2.4050   -0.8441 H       1  UNL1        0.0655
     37 H           3.7891   -2.0681    0.9815 H       1  UNL1        0.0627
     38 H           6.3138   -1.5393    4.2625 H       1  UNL1        0.0661
     39 H           7.2743   -0.4847    3.2054 H       1  UNL1        0.0661
     40 H           6.0671    0.2852    4.2515 H       1  UNL1        0.0661
     41 H           3.6545    2.0953    0.3785 H       1  UNL1        0.0637
@<TRIPOS>BOND
     1     1     2    1
     2     2     3    1
     3     3     4    1
     4     4     5    1
     5     5     6    1
     6     6     7    1
     7     7     8   am
     8     8     9    2
     9     8    10    1
    10    10    11    1
    11    11    12   ar
    12    12    13   ar
    13    13    14   ar
    14    14    15    1
    15    15    16    2
    16    15    17    1
    17    17    18    1
    18    14    19   ar
    19    19    20   ar
    20    20    21    1
    21    20    11   ar
    22     1    22    1
    23     1    23    1
    24     1    24    1
    25     2    25    1
    26     2    26    1
    27     3    27    1
    28     3    28    1
    29     4    29    1
    30     4    30    1
    31     5    31    1
    32     5    32    1
    33     6    33    1
    34     6    34    1
    35     7    35    1
    36    12    36    1
    37    13    37    1
    38    18    38    1
    39    18    39    1
    40    18    40    1
    41    19    41    1
