@<TRIPOS>MOLECULE
*****
 109 112 0 0 0
SMALL
GASTEIGER

@<TRIPOS>ATOM
      1 C          -1.2399   -3.6715    1.3687 C.3     1  UNL1       -0.0626
      2 C          -1.3537   -2.2365    1.7635 C.3     1  UNL1       -0.0446
      3 C          -1.6291   -2.2257    3.2832 C.3     1  UNL1       -0.0626
      4 C          -0.1084   -1.4390    1.5773 C.3     1  UNL1       -0.0236
      5 C           0.4733   -1.3302    0.2246 C.3     1  UNL1        0.0996
      6 N           1.6992   -0.5028    0.3969 N.am    1  UNL1       -0.3025
      7 C           2.9989   -1.0211    0.1132 C.2     1  UNL1        0.2340
      8 O           2.9326   -2.2382   -0.2878 O.2     1  UNL1       -0.2738
      9 C           4.2660   -0.3192    0.2424 C.3     1  UNL1        0.0997
     10 C           5.2386   -0.8823    1.2313 C.3     1  UNL1       -0.0220
     11 C           5.6067   -2.2864    0.8828 C.3     1  UNL1       -0.0255
     12 C           6.6028   -2.7815    1.9133 C.ar    1  UNL1       -0.0473
     13 C           6.0666   -3.3972    3.0540 C.ar    1  UNL1       -0.0586
     14 C           6.9712   -3.8465    3.9904 C.ar    1  UNL1       -0.0615
     15 C           8.3280   -3.6998    3.8186 C.ar    1  UNL1       -0.0617
     16 C           8.7870   -3.0922    2.6881 C.ar    1  UNL1       -0.0615
     17 C           7.9472   -2.6129    1.6982 C.ar    1  UNL1       -0.0586
     18 N           4.0812    1.0890    0.6509 N.am    1  UNL1       -0.3029
     19 C           4.5672    2.1311   -0.1919 C.2     1  UNL1        0.2277
     20 O           5.1489    1.8060   -1.2783 O.2     1  UNL1       -0.2744
     21 C           4.3471    3.5101    0.2821 C.3     1  UNL1        0.0758
     22 N           4.8650    4.5242   -0.6178 N.3     1  UNL1       -0.2897
     23 C           4.1120    4.5481   -1.8341 C.3     1  UNL1        0.0229
     24 C           4.5830    5.6682   -2.7250 C.3     1  UNL1        0.0604
     25 O           5.9468    5.8830   -2.6019 O.3     1  UNL1       -0.3772
     26 C           6.6421    4.7607   -2.1999 C.3     1  UNL1        0.0604
     27 C           6.2870    4.4872   -0.7697 C.3     1  UNL1        0.0229
     28 C          -0.3351   -0.7529   -0.8451 C.2     1  UNL1        0.2340
     29 O          -0.0027    0.3148   -1.4594 O.2     1  UNL1       -0.2738
     30 N          -1.5284   -1.1861   -1.3919 N.am    1  UNL1       -0.3022
     31 C          -2.6512   -1.1479   -2.2728 C.3     1  UNL1        0.1034
     32 C          -2.7781   -2.4094   -3.0388 C.3     1  UNL1       -0.0007
     33 C          -3.8802   -2.5045   -3.9862 C.ar    1  UNL1       -0.0451
     34 C          -3.6001   -1.9975   -5.2610 C.ar    1  UNL1       -0.0585
     35 C          -4.5566   -2.0369   -6.2719 C.ar    1  UNL1       -0.0615
     36 C          -5.7981   -2.5689   -6.0590 C.ar    1  UNL1       -0.0617
     37 C          -6.0185   -3.0511   -4.7907 C.ar    1  UNL1       -0.0615
     38 C          -5.1361   -3.0494   -3.7469 C.ar    1  UNL1       -0.0585
     39 C          -3.8814   -0.6754   -1.5693 C.2     1  UNL1        0.2342
     40 O          -5.0984   -0.9029   -1.8092 O.2     1  UNL1       -0.2738
     41 N          -3.6567    0.1963   -0.4279 N.am    1  UNL1       -0.3040
     42 C          -4.8301    0.6806    0.3177 C.3     1  UNL1        0.0847
     43 C          -4.4706    1.7447    1.2745 C.3     1  UNL1       -0.0251
     44 C          -3.4859    1.3700    2.3464 C.3     1  UNL1       -0.0446
     45 C          -3.2882    2.6518    3.1734 C.3     1  UNL1       -0.0626
     46 C          -4.0680    0.3761    3.3266 C.3     1  UNL1       -0.0626
     47 C          -5.7092    1.3903   -0.7403 C.2     1  UNL1        0.1868
     48 O          -5.4250    1.6920   -1.8855 O.2     1  UNL1       -0.2923
     49 C          -7.0785    1.7195   -0.2472 C.3     1  UNL1        0.1492
     50 C          -7.5143    1.4038    1.1454 C.3     1  UNL1       -0.0266
     51 C          -7.7112    2.9247   -0.8921 C.3     1  UNL1        0.0847
     52 O          -8.1194    1.6169   -1.1891 O.3     1  UNL1       -0.3605
     53 H          -2.0962   -4.0229    0.7520 H       1  UNL1        0.0232
     54 H          -1.2103   -4.3222    2.2629 H       1  UNL1        0.0232
     55 H          -0.2726   -3.8042    0.8457 H       1  UNL1        0.0232
     56 H          -2.2483   -1.7991    1.3163 H       1  UNL1        0.0296
     57 H          -2.7073   -2.1242    3.4278 H       1  UNL1        0.0232
     58 H          -1.3272   -3.2101    3.7179 H       1  UNL1        0.0232
     59 H          -1.0624   -1.3863    3.7273 H       1  UNL1        0.0232
     60 H           0.6480   -1.8842    2.2948 H       1  UNL1        0.0290
     61 H          -0.2869   -0.4222    2.0183 H       1  UNL1        0.0290
     62 H           0.7711   -2.3492   -0.1102 H       1  UNL1        0.0594
     63 H           1.6409    0.4791    0.7311 H       1  UNL1        0.1495
     64 H           4.7898   -0.2791   -0.7433 H       1  UNL1        0.0595
     65 H           6.1080   -0.2091    1.3286 H       1  UNL1        0.0291
     66 H           4.7283   -0.9065    2.2186 H       1  UNL1        0.0291
     67 H           6.1512   -2.3304   -0.0891 H       1  UNL1        0.0314
     68 H           4.7432   -2.9750    0.8809 H       1  UNL1        0.0314
     69 H           4.9995   -3.5277    3.2168 H       1  UNL1        0.0620
     70 H           6.6865   -4.3378    4.9133 H       1  UNL1        0.0618
     71 H           9.0336   -4.0491    4.5481 H       1  UNL1        0.0618
     72 H           9.8530   -2.9392    2.4795 H       1  UNL1        0.0618
     73 H           8.2656   -2.1273    0.7892 H       1  UNL1        0.0620
     74 H           3.5867    1.2256    1.5653 H       1  UNL1        0.1495
     75 H           3.2917    3.7626    0.4987 H       1  UNL1        0.0522
     76 H           4.9086    3.6239    1.2457 H       1  UNL1        0.0522
     77 H           3.0528    4.8149   -1.5537 H       1  UNL1        0.0449
     78 H           4.1428    3.5854   -2.3970 H       1  UNL1        0.0449
     79 H           4.3635    5.3836   -3.7651 H       1  UNL1        0.0572
     80 H           4.0031    6.6107   -2.5251 H       1  UNL1        0.0572
     81 H           6.4081    3.8496   -2.7831 H       1  UNL1        0.0572
     82 H           7.7191    5.0070   -2.2642 H       1  UNL1        0.0572
     83 H           6.6362    3.4391   -0.5393 H       1  UNL1        0.0449
     84 H           6.8389    5.1184   -0.0420 H       1  UNL1        0.0449
     85 H          -1.8248   -2.0698   -0.9049 H       1  UNL1        0.1495
     86 H          -2.3996   -0.2748   -2.9855 H       1  UNL1        0.0598
     87 H          -1.7864   -2.5619   -3.5587 H       1  UNL1        0.0336
     88 H          -2.7972   -3.2668   -2.3008 H       1  UNL1        0.0336
     89 H          -2.6396   -1.5495   -5.5348 H       1  UNL1        0.0620
     90 H          -4.3273   -1.6371   -7.2642 H       1  UNL1        0.0618
     91 H          -6.5618   -2.6148   -6.8202 H       1  UNL1        0.0618
     92 H          -7.0176   -3.4848   -4.6108 H       1  UNL1        0.0618
     93 H          -5.3269   -3.4377   -2.7594 H       1  UNL1        0.0620
     94 H          -2.7161    0.5216   -0.0725 H       1  UNL1        0.1494
     95 H          -5.4129   -0.1764    0.6006 H       1  UNL1        0.0578
     96 H          -3.9256    2.5509    0.6682 H       1  UNL1        0.0290
     97 H          -5.2887    2.3058    1.7469 H       1  UNL1        0.0290
     98 H          -2.5214    1.0320    1.9755 H       1  UNL1        0.0296
     99 H          -4.2800    2.8516    3.6484 H       1  UNL1        0.0232
    100 H          -3.1089    3.5131    2.4974 H       1  UNL1        0.0232
    101 H          -2.5460    2.5300    3.9645 H       1  UNL1        0.0232
    102 H          -3.2481    0.1122    4.0282 H       1  UNL1        0.0232
    103 H          -4.4316   -0.5456    2.8741 H       1  UNL1        0.0232
    104 H          -4.8180    0.9019    3.9712 H       1  UNL1        0.0232
    105 H          -8.5165    0.8629    1.1497 H       1  UNL1        0.0262
    106 H          -7.6894    2.2940    1.7639 H       1  UNL1        0.0262
    107 H          -6.8664    0.6611    1.6931 H       1  UNL1        0.0262
    108 H          -7.2196    3.4075   -1.7727 H       1  UNL1        0.0593
    109 H          -8.4342    3.5573   -0.3364 H       1  UNL1        0.0593
@<TRIPOS>BOND
     1     1     2    1
     2     2     3    1
     3     2     4    1
     4     4     5    1
     5     5     6    1
     6     6     7   am
     7     7     8    2
     8     7     9    1
     9     9    10    1
    10    10    11    1
    11    11    12    1
    12    12    13   ar
    13    13    14   ar
    14    14    15   ar
    15    15    16   ar
    16    16    17   ar
    17     9    18    1
    18    18    19   am
    19    19    20    2
    20    19    21    1
    21    21    22    1
    22    22    23    1
    23    23    24    1
    24    24    25    1
    25    25    26    1
    26    26    27    1
    27     5    28    1
    28    28    29    2
    29    28    30   am
    30    30    31    1
    31    31    32    1
    32    32    33    1
    33    33    34   ar
    34    34    35   ar
    35    35    36   ar
    36    36    37   ar
    37    37    38   ar
    38    31    39    1
    39    39    40    2
    40    39    41   am
    41    41    42    1
    42    42    43    1
    43    43    44    1
    44    44    45    1
    45    44    46    1
    46    42    47    1
    47    47    48    2
    48    47    49    1
    49    49    50    1
    50    49    51    1
    51    51    52    1
    52    17    12   ar
    53    27    22    1
    54    38    33   ar
    55    52    49    1
    56     1    53    1
    57     1    54    1
    58     1    55    1
    59     2    56    1
    60     3    57    1
    61     3    58    1
    62     3    59    1
    63     4    60    1
    64     4    61    1
    65     5    62    1
    66     6    63    1
    67     9    64    1
    68    10    65    1
    69    10    66    1
    70    11    67    1
    71    11    68    1
    72    13    69    1
    73    14    70    1
    74    15    71    1
    75    16    72    1
    76    17    73    1
    77    18    74    1
    78    21    75    1
    79    21    76    1
    80    23    77    1
    81    23    78    1
    82    24    79    1
    83    24    80    1
    84    26    81    1
    85    26    82    1
    86    27    83    1
    87    27    84    1
    88    30    85    1
    89    31    86    1
    90    32    87    1
    91    32    88    1
    92    34    89    1
    93    35    90    1
    94    36    91    1
    95    37    92    1
    96    38    93    1
    97    41    94    1
    98    42    95    1
    99    43    96    1
   100    43    97    1
   101    44    98    1
   102    45    99    1
   103    45   100    1
   104    45   101    1
   105    46   102    1
   106    46   103    1
   107    46   104    1
   108    50   105    1
   109    50   106    1
   110    50   107    1
   111    51   108    1
   112    51   109    1
