
     RDKit          3D

 45 48  0  0  0  0  0  0  0  0999 V2000
   -3.5971   -2.2801    3.5781 N   0  0  0  0  0  0  0  0  0  0  0  0
   -3.5675   -1.9993    2.4429 C   0  0  0  0  0  0  0  0  0  0  0  0
   -3.5195   -1.6763    1.0465 C   0  0  0  0  0  0  0  0  0  0  0  0
   -4.5495   -1.9065    0.1607 C   0  0  0  0  0  0  0  0  0  0  0  0
   -4.1112   -1.4676   -1.0356 N   0  0  0  0  0  0  0  0  0  0  0  0
   -2.8615   -0.9861   -0.8937 C   0  0  0  0  0  0  0  0  0  0  0  0
   -2.0006   -0.4332   -1.8170 C   0  0  0  0  0  0  0  0  0  0  0  0
   -0.7738   -0.0197   -1.4052 C   0  0  0  0  0  0  0  0  0  0  0  0
   -0.4062   -0.1610   -0.0586 C   0  0  0  0  0  0  0  0  0  0  0  0
    0.9075    0.3160    0.3449 C   0  0  0  0  0  0  0  0  0  0  0  0
    1.1158    1.6799    0.5690 C   0  0  0  0  0  0  0  0  0  0  0  0
    0.1373    2.7360    0.4498 C   0  0  0  0  0  0  0  0  0  0  0  0
    0.3222    3.7789   -0.4515 C   0  0  0  0  0  0  0  0  0  0  0  0
   -0.6260    4.7895   -0.5583 C   0  0  0  0  0  0  0  0  0  0  0  0
   -1.7697    4.7998    0.2114 C   0  0  0  0  0  0  0  0  0  0  0  0
   -2.6733    5.7988    0.0821 F   0  0  0  0  0  0  0  0  0  0  0  0
   -1.9636    3.7741    1.1059 C   0  0  0  0  0  0  0  0  0  0  0  0
   -1.0171    2.7713    1.2084 C   0  0  0  0  0  0  0  0  0  0  0  0
    2.4081    1.7675    0.9114 N   0  0  0  0  0  0  0  0  0  0  0  0
    2.9692    0.5664    0.9050 C   0  0  0  0  0  0  0  0  0  0  0  0
    2.0229   -0.3646    0.5457 N   0  0  0  0  0  0  0  0  0  0  0  0
    2.2850   -1.7712    0.4303 C   0  0  1  0  0  0  0  0  0  0  0  0
    1.1056   -2.6616    0.3304 C   0  0  0  0  0  0  0  0  0  0  0  0
    1.6310   -3.9857    0.2297 O   0  0  0  0  0  0  0  0  0  0  0  0
    3.3702   -2.0889   -0.5634 C   0  0  0  0  0  0  0  0  0  0  0  0
    3.1293   -1.6626   -1.9510 C   0  0  0  0  0  0  0  0  0  0  0  0
    2.9530   -0.2903   -2.0941 F   0  0  0  0  0  0  0  0  0  0  0  0
    2.1147   -2.2808   -2.6056 F   0  0  0  0  0  0  0  0  0  0  0  0
    4.3009   -1.9386   -2.6772 F   0  0  0  0  0  0  0  0  0  0  0  0
   -1.2980   -0.7117    0.7968 N   0  0  0  0  0  0  0  0  0  0  0  0
   -2.4716   -1.1041    0.3883 N   0  0  0  0  0  0  0  0  0  0  0  0
   -5.5278   -2.3401    0.3113 H   0  0  0  0  0  0  0  0  0  0  0  0
   -2.2971   -0.3280   -2.8663 H   0  0  0  0  0  0  0  0  0  0  0  0
   -0.0641    0.4235   -2.1090 H   0  0  0  0  0  0  0  0  0  0  0  0
    1.2279    3.7528   -1.0484 H   0  0  0  0  0  0  0  0  0  0  0  0
   -0.4624    5.5914   -1.2658 H   0  0  0  0  0  0  0  0  0  0  0  0
   -2.8696    3.7861    1.7128 H   0  0  0  0  0  0  0  0  0  0  0  0
   -1.1641    1.9626    1.9097 H   0  0  0  0  0  0  0  0  0  0  0  0
    3.9871    0.3571    1.1396 H   0  0  0  0  0  0  0  0  0  0  0  0
    2.7635   -2.0580    1.4270 H   0  0  0  0  0  0  0  0  0  0  0  0
    0.4051   -2.4652   -0.4741 H   0  0  0  0  0  0  0  0  0  0  0  0
    0.5387   -2.7050    1.2874 H   0  0  0  0  0  0  0  0  0  0  0  0
    2.0758   -4.1502    1.0874 H   0  0  0  0  0  0  0  0  0  0  0  0
    3.5202   -3.1875   -0.5469 H   0  0  0  0  0  0  0  0  0  0  0  0
    4.3004   -1.6277   -0.1905 H   0  0  0  0  0  0  0  0  0  0  0  0
  1  2  3  0
  2  3  1  0
  3  4  2  0
  4  5  1  0
  5  6  2  0
  6  7  1  0
  7  8  2  0
  8  9  1  0
  9 10  1  0
 10 11  2  0
 11 12  1  0
 12 13  2  0
 13 14  1  0
 14 15  2  0
 15 16  1  0
 15 17  1  0
 17 18  2  0
 11 19  1  0
 19 20  2  0
 20 21  1  0
 21 22  1  0
 22 23  1  0
 23 24  1  0
 22 25  1  0
 25 26  1  0
 26 27  1  0
 26 28  1  0
 26 29  1  0
  9 30  2  0
 30 31  1  0
 31  3  1  0
 31  6  1  0
 21 10  1  0
 18 12  1  0
  4 32  1  0
  7 33  1  0
  8 34  1  0
 13 35  1  0
 14 36  1  0
 17 37  1  0
 18 38  1  0
 20 39  1  0
 22 40  1  1
 23 41  1  0
 23 42  1  0
 24 43  1  0
 25 44  1  0
 25 45  1  0
M  END
$$$$
