@<TRIPOS>MOLECULE
*****
 45 48 0 0 0
SMALL
GASTEIGER

@<TRIPOS>ATOM
      1 N          -3.5971   -2.2801    3.5781 N.1     1  UNL1       -0.1892
      2 C          -3.5675   -1.9993    2.4429 C.1     1  UNL1        0.1208
      3 C          -3.5195   -1.6763    1.0465 C.ar    1  UNL1        0.1618
      4 C          -4.5495   -1.9065    0.1607 C.ar    1  UNL1        0.0659
      5 N          -4.1112   -1.4676   -1.0356 N.ar    1  UNL1       -0.2333
      6 C          -2.8615   -0.9861   -0.8937 C.ar    1  UNL1        0.1555
      7 C          -2.0006   -0.4332   -1.8170 C.ar    1  UNL1       -0.0153
      8 C          -0.7738   -0.0197   -1.4052 C.ar    1  UNL1       -0.0290
      9 C          -0.4062   -0.1610   -0.0586 C.ar    1  UNL1        0.1103
     10 C           0.9075    0.3160    0.3449 C.ar    1  UNL1        0.0969
     11 C           1.1158    1.6799    0.5690 C.ar    1  UNL1        0.0982
     12 C           0.1373    2.7360    0.4498 C.ar    1  UNL1        0.0027
     13 C           0.3222    3.7789   -0.4515 C.ar    1  UNL1       -0.0498
     14 C          -0.6260    4.7895   -0.5583 C.ar    1  UNL1       -0.0258
     15 C          -1.7697    4.7998    0.2114 C.ar    1  UNL1        0.1234
     16 F          -2.6733    5.7988    0.0821 F       1  UNL1       -0.2055
     17 C          -1.9636    3.7741    1.1059 C.ar    1  UNL1       -0.0258
     18 C          -1.0171    2.7713    1.2084 C.ar    1  UNL1       -0.0498
     19 N           2.4081    1.7675    0.9114 N.ar    1  UNL1       -0.2351
     20 C           2.9692    0.5664    0.9050 C.ar    1  UNL1        0.0974
     21 N           2.0229   -0.3646    0.5457 N.ar    1  UNL1       -0.3228
     22 C           2.2850   -1.7712    0.4303 C.3     1  UNL1        0.0672
     23 C           1.1056   -2.6616    0.3304 C.3     1  UNL1        0.0653
     24 O           1.6310   -3.9857    0.2297 O.3     1  UNL1       -0.3930
     25 C           3.3702   -2.0889   -0.5634 C.3     1  UNL1        0.0657
     26 C           3.1293   -1.6626   -1.9510 C.3     1  UNL1        0.3921
     27 F           2.9530   -0.2903   -2.0941 F       1  UNL1       -0.1707
     28 F           2.1147   -2.2808   -2.6056 F       1  UNL1       -0.1707
     29 F           4.3009   -1.9386   -2.6772 F       1  UNL1       -0.1707
     30 N          -1.2980   -0.7117    0.7968 N.ar    1  UNL1       -0.1623
     31 N          -2.4716   -1.1041    0.3883 N.ar    1  UNL1       -0.2023
     32 H          -5.5278   -2.3401    0.3113 H       1  UNL1        0.0859
     33 H          -2.2971   -0.3280   -2.8663 H       1  UNL1        0.0655
     34 H          -0.0641    0.4235   -2.1090 H       1  UNL1        0.0641
     35 H           1.2279    3.7528   -1.0484 H       1  UNL1        0.0625
     36 H          -0.4624    5.5914   -1.2658 H       1  UNL1        0.0646
     37 H          -2.8696    3.7861    1.7128 H       1  UNL1        0.0646
     38 H          -1.1641    1.9626    1.9097 H       1  UNL1        0.0625
     39 H           3.9871    0.3571    1.1396 H       1  UNL1        0.1029
     40 H           2.7635   -2.0580    1.4270 H       1  UNL1        0.0554
     41 H           0.4051   -2.4652   -0.4741 H       1  UNL1        0.0578
     42 H           0.5387   -2.7050    1.2874 H       1  UNL1        0.0578
     43 H           2.0758   -4.1502    1.0874 H       1  UNL1        0.2095
     44 H           3.5202   -3.1875   -0.5469 H       1  UNL1        0.0373
     45 H           4.3004   -1.6277   -0.1905 H       1  UNL1        0.0373
@<TRIPOS>BOND
     1     1     2    3
     2     2     3    1
     3     3     4   ar
     4     4     5   ar
     5     5     6   ar
     6     6     7   ar
     7     7     8   ar
     8     8     9   ar
     9     9    10    1
    10    10    11   ar
    11    11    12    1
    12    12    13   ar
    13    13    14   ar
    14    14    15   ar
    15    15    16    1
    16    15    17   ar
    17    17    18   ar
    18    11    19   ar
    19    19    20   ar
    20    20    21   ar
    21    21    22    1
    22    22    23    1
    23    23    24    1
    24    22    25    1
    25    25    26    1
    26    26    27    1
    27    26    28    1
    28    26    29    1
    29     9    30   ar
    30    30    31   ar
    31    31     3   ar
    32    31     6   ar
    33    21    10   ar
    34    18    12   ar
    35     4    32    1
    36     7    33    1
    37     8    34    1
    38    13    35    1
    39    14    36    1
    40    17    37    1
    41    18    38    1
    42    20    39    1
    43    22    40    1
    44    23    41    1
    45    23    42    1
    46    24    43    1
    47    25    44    1
    48    25    45    1
