@<TRIPOS>MOLECULE
*****
 18 17 0 0 0
SMALL
GASTEIGER

@<TRIPOS>ATOM
      1 O           3.3371    1.0699   -0.5865 O.3     1  UNL1       -0.3942
      2 C           2.5586   -0.0753   -0.4103 C.3     1  UNL1        0.0540
      3 C           1.6604    0.0006    0.8096 C.3     1  UNL1        0.0271
      4 S           0.7488   -1.5572    0.8929 S.3     1  UNL1       -0.0908
      5 S          -0.5891   -1.7030   -0.7464 S.3     1  UNL1       -0.0908
      6 C          -2.1644   -1.0006   -0.2777 C.3     1  UNL1        0.0271
      7 C          -2.1488    0.4876   -0.0595 C.3     1  UNL1        0.0540
      8 O          -3.4452    0.8732    0.3123 O.3     1  UNL1       -0.3942
      9 H           3.9863    1.1892    0.1533 H       1  UNL1        0.2094
     10 H           1.9084   -0.2419   -1.2855 H       1  UNL1        0.0565
     11 H           3.2494   -0.9382   -0.3288 H       1  UNL1        0.0565
     12 H           0.9829    0.8563    0.7618 H       1  UNL1        0.0407
     13 H           2.3156    0.0754    1.7095 H       1  UNL1        0.0407
     14 H          -2.9011   -1.2560   -1.0970 H       1  UNL1        0.0407
     15 H          -2.5759   -1.4527    0.6624 H       1  UNL1        0.0407
     16 H          -1.9273    1.0664   -1.0073 H       1  UNL1        0.0565
     17 H          -1.3831    0.7695    0.6693 H       1  UNL1        0.0565
     18 H          -3.6127    1.8366    0.1879 H       1  UNL1        0.2094
@<TRIPOS>BOND
     1     1     2    1
     2     2     3    1
     3     3     4    1
     4     4     5    1
     5     5     6    1
     6     6     7    1
     7     7     8    1
     8     1     9    1
     9     2    10    1
    10     2    11    1
    11     3    12    1
    12     3    13    1
    13     6    14    1
    14     6    15    1
    15     7    16    1
    16     7    17    1
    17     8    18    1
