@<TRIPOS>MOLECULE
*****
 48 51 0 0 0
SMALL
GASTEIGER

@<TRIPOS>ATOM
      1 C           6.9017    1.6625   -0.0355 C.3     1  UNL1        0.0833
      2 O           5.7515    1.4466   -0.8659 O.3     1  UNL1       -0.4537
      3 C           5.0006    0.3061   -0.5791 C.2     1  UNL1        0.4003
      4 O           5.3378   -0.4640    0.3564 O.2     1  UNL1       -0.2265
      5 N           3.8309   -0.0369   -1.3227 N.am    1  UNL1       -0.2755
      6 C           3.1061   -1.2402   -0.9627 C.3     1  UNL1        0.0587
      7 C           1.9252   -1.4892   -1.7933 C.ar    1  UNL1        0.0803
      8 C           1.9073   -2.2241   -2.9554 C.ar    1  UNL1        0.0529
      9 N           0.6327   -2.2010   -3.3806 N.ar    1  UNL1       -0.2343
     10 C          -0.1082   -1.4712   -2.5019 C.ar    1  UNL1        0.1544
     11 C          -1.4447   -1.1364   -2.4597 C.ar    1  UNL1       -0.0153
     12 C          -1.9523   -0.3683   -1.4356 C.ar    1  UNL1       -0.0290
     13 C          -1.1054    0.0809   -0.4222 C.ar    1  UNL1        0.1103
     14 C          -1.6185    0.8925    0.6678 C.ar    1  UNL1        0.0968
     15 C          -2.5072    0.4670    1.6255 C.ar    1  UNL1        0.0982
     16 C          -3.0980   -0.8668    1.7364 C.ar    1  UNL1        0.0027
     17 C          -2.2882   -1.9889    1.9512 C.ar    1  UNL1       -0.0498
     18 C          -2.9082   -3.2031    2.0493 C.ar    1  UNL1       -0.0258
     19 C          -4.2800   -3.3581    1.9455 C.ar    1  UNL1        0.1234
     20 F          -4.8775   -4.5730    2.0451 F       1  UNL1       -0.2055
     21 C          -5.0777   -2.2515    1.7335 C.ar    1  UNL1       -0.0258
     22 C          -4.4687   -1.0165    1.6320 C.ar    1  UNL1       -0.0498
     23 N          -2.7439    1.5173    2.4671 N.ar    1  UNL1       -0.2351
     24 C          -2.0159    2.5726    2.0391 C.ar    1  UNL1        0.0973
     25 N          -1.3293    2.1700    0.9307 N.ar    1  UNL1       -0.3229
     26 C          -0.4441    3.0146    0.1832 C.3     1  UNL1        0.0852
     27 C          -1.2887    3.7066   -0.8899 C.3     1  UNL1        0.2569
     28 F          -0.5378    4.5474   -1.6718 F       1  UNL1       -0.2073
     29 F          -2.2837    4.4844   -0.2863 F       1  UNL1       -0.2073
     30 N           0.1839   -0.2820   -0.5259 N.ar    1  UNL1       -0.1632
     31 N           0.6757   -1.0198   -1.5080 N.ar    1  UNL1       -0.2151
     32 H           7.3068    2.6692   -0.1200 H       1  UNL1        0.0661
     33 H           6.5712    1.4101    0.9974 H       1  UNL1        0.0661
     34 H           7.6696    0.8707   -0.2851 H       1  UNL1        0.0661
     35 H           3.5664    0.6132   -2.0941 H       1  UNL1        0.1524
     36 H           2.8044   -1.1265    0.1121 H       1  UNL1        0.0528
     37 H           3.8000   -2.1338   -0.9558 H       1  UNL1        0.0528
     38 H           2.6955   -2.7399   -3.4815 H       1  UNL1        0.0849
     39 H          -2.0891   -1.4903   -3.2495 H       1  UNL1        0.0655
     40 H          -2.9941   -0.0923   -1.3790 H       1  UNL1        0.0641
     41 H          -1.2439   -1.8245    2.0236 H       1  UNL1        0.0625
     42 H          -2.3027   -4.0863    2.2163 H       1  UNL1        0.0646
     43 H          -6.1541   -2.3620    1.6506 H       1  UNL1        0.0646
     44 H          -5.1344   -0.1782    1.4655 H       1  UNL1        0.0625
     45 H          -1.9488    3.5747    2.4571 H       1  UNL1        0.1029
     46 H          -0.0196    3.8201    0.8269 H       1  UNL1        0.0548
     47 H           0.3414    2.4535   -0.3582 H       1  UNL1        0.0548
     48 H          -1.7441    2.9449   -1.5702 H       1  UNL1        0.1037
@<TRIPOS>BOND
     1     1     2    1
     2     2     3    1
     3     3     4    2
     4     3     5   am
     5     5     6    1
     6     6     7    1
     7     7     8   ar
     8     8     9   ar
     9     9    10   ar
    10    10    11   ar
    11    11    12   ar
    12    12    13   ar
    13    13    14    1
    14    14    15   ar
    15    15    16    1
    16    16    17   ar
    17    17    18   ar
    18    18    19   ar
    19    19    20    1
    20    19    21   ar
    21    21    22   ar
    22    15    23   ar
    23    23    24   ar
    24    24    25   ar
    25    25    26    1
    26    26    27    1
    27    27    28    1
    28    27    29    1
    29    13    30   ar
    30    30    31   ar
    31    31     7   ar
    32    31    10   ar
    33    25    14   ar
    34    22    16   ar
    35     1    32    1
    36     1    33    1
    37     1    34    1
    38     5    35    1
    39     6    36    1
    40     6    37    1
    41     8    38    1
    42    11    39    1
    43    12    40    1
    44    17    41    1
    45    18    42    1
    46    21    43    1
    47    22    44    1
    48    24    45    1
    49    26    46    1
    50    26    47    1
    51    27    48    1
