
     RDKit          3D

 48 51  0  0  0  0  0  0  0  0999 V2000
    6.9017    1.6625   -0.0355 C   0  0  0  0  0  0  0  0  0  0  0  0
    5.7515    1.4466   -0.8659 O   0  0  0  0  0  0  0  0  0  0  0  0
    5.0006    0.3061   -0.5791 C   0  0  0  0  0  0  0  0  0  0  0  0
    5.3378   -0.4640    0.3564 O   0  0  0  0  0  0  0  0  0  0  0  0
    3.8309   -0.0369   -1.3227 N   0  0  0  0  0  0  0  0  0  0  0  0
    3.1061   -1.2402   -0.9627 C   0  0  0  0  0  0  0  0  0  0  0  0
    1.9252   -1.4892   -1.7933 C   0  0  0  0  0  0  0  0  0  0  0  0
    1.9073   -2.2241   -2.9554 C   0  0  0  0  0  0  0  0  0  0  0  0
    0.6327   -2.2010   -3.3806 N   0  0  0  0  0  0  0  0  0  0  0  0
   -0.1082   -1.4712   -2.5019 C   0  0  0  0  0  0  0  0  0  0  0  0
   -1.4447   -1.1364   -2.4597 C   0  0  0  0  0  0  0  0  0  0  0  0
   -1.9523   -0.3683   -1.4356 C   0  0  0  0  0  0  0  0  0  0  0  0
   -1.1054    0.0809   -0.4222 C   0  0  0  0  0  0  0  0  0  0  0  0
   -1.6185    0.8925    0.6678 C   0  0  0  0  0  0  0  0  0  0  0  0
   -2.5072    0.4670    1.6255 C   0  0  0  0  0  0  0  0  0  0  0  0
   -3.0980   -0.8668    1.7364 C   0  0  0  0  0  0  0  0  0  0  0  0
   -2.2882   -1.9889    1.9512 C   0  0  0  0  0  0  0  0  0  0  0  0
   -2.9082   -3.2031    2.0493 C   0  0  0  0  0  0  0  0  0  0  0  0
   -4.2800   -3.3581    1.9455 C   0  0  0  0  0  0  0  0  0  0  0  0
   -4.8775   -4.5730    2.0451 F   0  0  0  0  0  0  0  0  0  0  0  0
   -5.0777   -2.2515    1.7335 C   0  0  0  0  0  0  0  0  0  0  0  0
   -4.4687   -1.0165    1.6320 C   0  0  0  0  0  0  0  0  0  0  0  0
   -2.7439    1.5173    2.4671 N   0  0  0  0  0  0  0  0  0  0  0  0
   -2.0159    2.5726    2.0391 C   0  0  0  0  0  0  0  0  0  0  0  0
   -1.3293    2.1700    0.9307 N   0  0  0  0  0  0  0  0  0  0  0  0
   -0.4441    3.0146    0.1832 C   0  0  0  0  0  0  0  0  0  0  0  0
   -1.2887    3.7066   -0.8899 C   0  0  0  0  0  0  0  0  0  0  0  0
   -0.5378    4.5474   -1.6718 F   0  0  0  0  0  0  0  0  0  0  0  0
   -2.2837    4.4844   -0.2863 F   0  0  0  0  0  0  0  0  0  0  0  0
    0.1839   -0.2820   -0.5259 N   0  0  0  0  0  0  0  0  0  0  0  0
    0.6757   -1.0198   -1.5080 N   0  0  0  0  0  0  0  0  0  0  0  0
    7.3068    2.6692   -0.1200 H   0  0  0  0  0  0  0  0  0  0  0  0
    6.5712    1.4101    0.9974 H   0  0  0  0  0  0  0  0  0  0  0  0
    7.6696    0.8707   -0.2851 H   0  0  0  0  0  0  0  0  0  0  0  0
    3.5664    0.6132   -2.0941 H   0  0  0  0  0  0  0  0  0  0  0  0
    2.8044   -1.1265    0.1121 H   0  0  0  0  0  0  0  0  0  0  0  0
    3.8000   -2.1338   -0.9558 H   0  0  0  0  0  0  0  0  0  0  0  0
    2.6955   -2.7399   -3.4815 H   0  0  0  0  0  0  0  0  0  0  0  0
   -2.0891   -1.4903   -3.2495 H   0  0  0  0  0  0  0  0  0  0  0  0
   -2.9941   -0.0923   -1.3790 H   0  0  0  0  0  0  0  0  0  0  0  0
   -1.2439   -1.8245    2.0236 H   0  0  0  0  0  0  0  0  0  0  0  0
   -2.3027   -4.0863    2.2163 H   0  0  0  0  0  0  0  0  0  0  0  0
   -6.1541   -2.3620    1.6506 H   0  0  0  0  0  0  0  0  0  0  0  0
   -5.1344   -0.1782    1.4655 H   0  0  0  0  0  0  0  0  0  0  0  0
   -1.9488    3.5747    2.4571 H   0  0  0  0  0  0  0  0  0  0  0  0
   -0.0196    3.8201    0.8269 H   0  0  0  0  0  0  0  0  0  0  0  0
    0.3414    2.4535   -0.3582 H   0  0  0  0  0  0  0  0  0  0  0  0
   -1.7441    2.9449   -1.5702 H   0  0  0  0  0  0  0  0  0  0  0  0
  1  2  1  0
  2  3  1  0
  3  4  2  0
  3  5  1  0
  5  6  1  0
  6  7  1  0
  7  8  2  0
  8  9  1  0
  9 10  2  0
 10 11  1  0
 11 12  2  0
 12 13  1  0
 13 14  1  0
 14 15  2  0
 15 16  1  0
 16 17  2  0
 17 18  1  0
 18 19  2  0
 19 20  1  0
 19 21  1  0
 21 22  2  0
 15 23  1  0
 23 24  2  0
 24 25  1  0
 25 26  1  0
 26 27  1  0
 27 28  1  0
 27 29  1  0
 13 30  2  0
 30 31  1  0
 31  7  1  0
 31 10  1  0
 25 14  1  0
 22 16  1  0
  1 32  1  0
  1 33  1  0
  1 34  1  0
  5 35  1  0
  6 36  1  0
  6 37  1  0
  8 38  1  0
 11 39  1  0
 12 40  1  0
 17 41  1  0
 18 42  1  0
 21 43  1  0
 22 44  1  0
 24 45  1  0
 26 46  1  0
 26 47  1  0
 27 48  1  0
M  END
$$$$
