@<TRIPOS>MOLECULE
*****
 57 59 0 0 0
SMALL
GASTEIGER

@<TRIPOS>ATOM
      1 C           7.2838    1.9575    2.0555 C.3     1  UNL1       -0.0106
      2 S           8.2175    0.5161    1.4693 S.3     1  UNL1       -0.0894
      3 C           7.1483   -0.5776    0.5288 C.ar    1  UNL1        0.1889
      4 N           7.6794   -1.6895    0.0050 N.ar    1  UNL1       -0.2271
      5 C           6.8919   -2.5243   -0.7055 C.ar    1  UNL1        0.0433
      6 C           7.5490   -3.7296   -1.2577 C.3     1  UNL1       -0.0222
      7 C           5.5458   -2.2802   -0.9187 C.ar    1  UNL1       -0.0100
      8 C           5.0319   -1.1292   -0.3675 C.ar    1  UNL1        0.1299
      9 C           3.6192   -0.8313   -0.5748 C.2     1  UNL1        0.2626
     10 O           2.9003   -1.6139   -1.2736 O.2     1  UNL1       -0.2685
     11 N           2.9535    0.2997   -0.0421 N.am    1  UNL1       -0.3089
     12 C           1.5527    0.6062   -0.2494 C.3     1  UNL1        0.0247
     13 C           0.6163   -0.4519    0.2298 C.3     1  UNL1        0.0146
     14 N          -0.7315   -0.0134    0.0465 N.3     1  UNL1       -0.2979
     15 C          -1.1011    0.9923    1.0398 C.3     1  UNL1        0.0147
     16 C          -2.5606    1.3317    0.9483 C.3     1  UNL1        0.0250
     17 N          -3.1526    0.7895   -0.2314 N.pl3   1  UNL1       -0.3272
     18 C          -4.4194    0.1425   -0.2832 C.ar    1  UNL1        0.0330
     19 C          -4.4886   -1.1533   -0.7758 C.ar    1  UNL1       -0.0404
     20 C          -5.7238   -1.7600   -0.8351 C.ar    1  UNL1       -0.0597
     21 C          -6.8388   -1.0756   -0.4103 C.ar    1  UNL1       -0.0585
     22 C          -6.7768    0.2273    0.0872 C.ar    1  UNL1       -0.0458
     23 C          -8.0004    0.9019    0.5429 C.3     1  UNL1       -0.0394
     24 C          -5.5367    0.8176    0.1381 C.ar    1  UNL1       -0.0265
     25 C          -5.4418    2.2232    0.6622 C.3     1  UNL1       -0.0377
     26 C          -2.4186    0.8916   -1.4900 C.3     1  UNL1        0.0250
     27 C          -0.9844    0.5333   -1.2881 C.3     1  UNL1        0.0147
     28 N           5.8691   -0.3398    0.3291 N.ar    1  UNL1       -0.2172
     29 H           7.6594    2.2019    3.0532 H       1  UNL1        0.0345
     30 H           6.2052    1.7695    2.1269 H       1  UNL1        0.0345
     31 H           7.5048    2.7866    1.3260 H       1  UNL1        0.0345
     32 H           6.9034   -4.2332   -2.0011 H       1  UNL1        0.0293
     33 H           7.9172   -4.4199   -0.4729 H       1  UNL1        0.0293
     34 H           8.4568   -3.3654   -1.7862 H       1  UNL1        0.0293
     35 H           4.9898   -2.9929   -1.4879 H       1  UNL1        0.0658
     36 H           3.5470    0.9313    0.5388 H       1  UNL1        0.1491
     37 H           1.2894    1.5698    0.1295 H       1  UNL1        0.0475
     38 H           1.3612    0.6588   -1.3735 H       1  UNL1        0.0475
     39 H           0.7526   -0.5554    1.3479 H       1  UNL1        0.0442
     40 H           0.8191   -1.4494   -0.2010 H       1  UNL1        0.0442
     41 H          -0.8980    0.5271    2.0402 H       1  UNL1        0.0442
     42 H          -0.5043    1.9081    0.9719 H       1  UNL1        0.0442
     43 H          -2.6847    2.4111    1.0973 H       1  UNL1        0.0476
     44 H          -3.0788    0.8431    1.8119 H       1  UNL1        0.0476
     45 H          -3.6192   -1.6773   -1.0968 H       1  UNL1        0.0636
     46 H          -5.8139   -2.7613   -1.2117 H       1  UNL1        0.0618
     47 H          -7.8291   -1.5336   -0.4534 H       1  UNL1        0.0620
     48 H          -8.8773    0.2744    0.2176 H       1  UNL1        0.0278
     49 H          -7.9789    0.8785    1.6572 H       1  UNL1        0.0278
     50 H          -8.1799    1.9028    0.1498 H       1  UNL1        0.0278
     51 H          -5.0443    2.1799    1.6885 H       1  UNL1        0.0278
     52 H          -6.4118    2.7351    0.5908 H       1  UNL1        0.0278
     53 H          -4.7496    2.7590   -0.0531 H       1  UNL1        0.0278
     54 H          -2.8913    0.2867   -2.2849 H       1  UNL1        0.0476
     55 H          -2.5061    1.9656   -1.7722 H       1  UNL1        0.0476
     56 H          -0.6200   -0.1586   -2.0409 H       1  UNL1        0.0442
     57 H          -0.4024    1.4968   -1.4106 H       1  UNL1        0.0442
@<TRIPOS>BOND
     1     1     2    1
     2     2     3    1
     3     3     4   ar
     4     4     5   ar
     5     5     6    1
     6     5     7   ar
     7     7     8   ar
     8     8     9    1
     9     9    10    2
    10     9    11   am
    11    11    12    1
    12    12    13    1
    13    13    14    1
    14    14    15    1
    15    15    16    1
    16    16    17    1
    17    17    18    1
    18    18    19   ar
    19    19    20   ar
    20    20    21   ar
    21    21    22   ar
    22    22    23    1
    23    22    24   ar
    24    24    25    1
    25    17    26    1
    26    26    27    1
    27     8    28   ar
    28    28     3   ar
    29    27    14    1
    30    24    18   ar
    31     1    29    1
    32     1    30    1
    33     1    31    1
    34     6    32    1
    35     6    33    1
    36     6    34    1
    37     7    35    1
    38    11    36    1
    39    12    37    1
    40    12    38    1
    41    13    39    1
    42    13    40    1
    43    15    41    1
    44    15    42    1
    45    16    43    1
    46    16    44    1
    47    19    45    1
    48    20    46    1
    49    21    47    1
    50    23    48    1
    51    23    49    1
    52    23    50    1
    53    25    51    1
    54    25    52    1
    55    25    53    1
    56    26    54    1
    57    26    55    1
    58    27    56    1
    59    27    57    1
