
     RDKit          3D

 57 59  0  0  0  0  0  0  0  0999 V2000
    7.2838    1.9575    2.0555 C   0  0  0  0  0  0  0  0  0  0  0  0
    8.2175    0.5161    1.4693 S   0  0  0  0  0  0  0  0  0  0  0  0
    7.1483   -0.5776    0.5288 C   0  0  0  0  0  0  0  0  0  0  0  0
    7.6794   -1.6895    0.0050 N   0  0  0  0  0  0  0  0  0  0  0  0
    6.8919   -2.5243   -0.7055 C   0  0  0  0  0  0  0  0  0  0  0  0
    7.5490   -3.7296   -1.2577 C   0  0  0  0  0  0  0  0  0  0  0  0
    5.5458   -2.2802   -0.9187 C   0  0  0  0  0  0  0  0  0  0  0  0
    5.0319   -1.1292   -0.3675 C   0  0  0  0  0  0  0  0  0  0  0  0
    3.6192   -0.8313   -0.5748 C   0  0  0  0  0  0  0  0  0  0  0  0
    2.9003   -1.6139   -1.2736 O   0  0  0  0  0  0  0  0  0  0  0  0
    2.9535    0.2997   -0.0421 N   0  0  0  0  0  0  0  0  0  0  0  0
    1.5527    0.6062   -0.2494 C   0  0  0  0  0  0  0  0  0  0  0  0
    0.6163   -0.4519    0.2298 C   0  0  0  0  0  0  0  0  0  0  0  0
   -0.7315   -0.0134    0.0465 N   0  0  0  0  0  0  0  0  0  0  0  0
   -1.1011    0.9923    1.0398 C   0  0  0  0  0  0  0  0  0  0  0  0
   -2.5606    1.3317    0.9483 C   0  0  0  0  0  0  0  0  0  0  0  0
   -3.1526    0.7895   -0.2314 N   0  0  0  0  0  0  0  0  0  0  0  0
   -4.4194    0.1425   -0.2832 C   0  0  0  0  0  0  0  0  0  0  0  0
   -4.4886   -1.1533   -0.7758 C   0  0  0  0  0  0  0  0  0  0  0  0
   -5.7238   -1.7600   -0.8351 C   0  0  0  0  0  0  0  0  0  0  0  0
   -6.8388   -1.0756   -0.4103 C   0  0  0  0  0  0  0  0  0  0  0  0
   -6.7768    0.2273    0.0872 C   0  0  0  0  0  0  0  0  0  0  0  0
   -8.0004    0.9019    0.5429 C   0  0  0  0  0  0  0  0  0  0  0  0
   -5.5367    0.8176    0.1381 C   0  0  0  0  0  0  0  0  0  0  0  0
   -5.4418    2.2232    0.6622 C   0  0  0  0  0  0  0  0  0  0  0  0
   -2.4186    0.8916   -1.4900 C   0  0  0  0  0  0  0  0  0  0  0  0
   -0.9844    0.5333   -1.2881 C   0  0  0  0  0  0  0  0  0  0  0  0
    5.8691   -0.3398    0.3291 N   0  0  0  0  0  0  0  0  0  0  0  0
    7.6594    2.2019    3.0532 H   0  0  0  0  0  0  0  0  0  0  0  0
    6.2052    1.7695    2.1269 H   0  0  0  0  0  0  0  0  0  0  0  0
    7.5048    2.7866    1.3260 H   0  0  0  0  0  0  0  0  0  0  0  0
    6.9034   -4.2332   -2.0011 H   0  0  0  0  0  0  0  0  0  0  0  0
    7.9172   -4.4199   -0.4729 H   0  0  0  0  0  0  0  0  0  0  0  0
    8.4568   -3.3654   -1.7862 H   0  0  0  0  0  0  0  0  0  0  0  0
    4.9898   -2.9929   -1.4879 H   0  0  0  0  0  0  0  0  0  0  0  0
    3.5470    0.9313    0.5388 H   0  0  0  0  0  0  0  0  0  0  0  0
    1.2894    1.5698    0.1295 H   0  0  0  0  0  0  0  0  0  0  0  0
    1.3612    0.6588   -1.3735 H   0  0  0  0  0  0  0  0  0  0  0  0
    0.7526   -0.5554    1.3479 H   0  0  0  0  0  0  0  0  0  0  0  0
    0.8191   -1.4494   -0.2010 H   0  0  0  0  0  0  0  0  0  0  0  0
   -0.8980    0.5271    2.0402 H   0  0  0  0  0  0  0  0  0  0  0  0
   -0.5043    1.9081    0.9719 H   0  0  0  0  0  0  0  0  0  0  0  0
   -2.6847    2.4111    1.0973 H   0  0  0  0  0  0  0  0  0  0  0  0
   -3.0788    0.8431    1.8119 H   0  0  0  0  0  0  0  0  0  0  0  0
   -3.6192   -1.6773   -1.0968 H   0  0  0  0  0  0  0  0  0  0  0  0
   -5.8139   -2.7613   -1.2117 H   0  0  0  0  0  0  0  0  0  0  0  0
   -7.8291   -1.5336   -0.4534 H   0  0  0  0  0  0  0  0  0  0  0  0
   -8.8773    0.2744    0.2176 H   0  0  0  0  0  0  0  0  0  0  0  0
   -7.9789    0.8785    1.6572 H   0  0  0  0  0  0  0  0  0  0  0  0
   -8.1799    1.9028    0.1498 H   0  0  0  0  0  0  0  0  0  0  0  0
   -5.0443    2.1799    1.6885 H   0  0  0  0  0  0  0  0  0  0  0  0
   -6.4118    2.7351    0.5908 H   0  0  0  0  0  0  0  0  0  0  0  0
   -4.7496    2.7590   -0.0531 H   0  0  0  0  0  0  0  0  0  0  0  0
   -2.8913    0.2867   -2.2849 H   0  0  0  0  0  0  0  0  0  0  0  0
   -2.5061    1.9656   -1.7722 H   0  0  0  0  0  0  0  0  0  0  0  0
   -0.6200   -0.1586   -2.0409 H   0  0  0  0  0  0  0  0  0  0  0  0
   -0.4024    1.4968   -1.4106 H   0  0  0  0  0  0  0  0  0  0  0  0
  1  2  1  0
  2  3  1  0
  3  4  2  0
  4  5  1  0
  5  6  1  0
  5  7  2  0
  7  8  1  0
  8  9  1  0
  9 10  2  0
  9 11  1  0
 11 12  1  0
 12 13  1  0
 13 14  1  0
 14 15  1  0
 15 16  1  0
 16 17  1  0
 17 18  1  0
 18 19  2  0
 19 20  1  0
 20 21  2  0
 21 22  1  0
 22 23  1  0
 22 24  2  0
 24 25  1  0
 17 26  1  0
 26 27  1  0
  8 28  2  0
 28  3  1  0
 27 14  1  0
 24 18  1  0
  1 29  1  0
  1 30  1  0
  1 31  1  0
  6 32  1  0
  6 33  1  0
  6 34  1  0
  7 35  1  0
 11 36  1  0
 12 37  1  0
 12 38  1  0
 13 39  1  0
 13 40  1  0
 15 41  1  0
 15 42  1  0
 16 43  1  0
 16 44  1  0
 19 45  1  0
 20 46  1  0
 21 47  1  0
 23 48  1  0
 23 49  1  0
 23 50  1  0
 25 51  1  0
 25 52  1  0
 25 53  1  0
 26 54  1  0
 26 55  1  0
 27 56  1  0
 27 57  1  0
M  END
$$$$
