@<TRIPOS>MOLECULE
*****
 117 119 0 0 0
SMALL
GASTEIGER

@<TRIPOS>ATOM
      1 C          14.5583    3.3947    1.3409 C.3     1  UNL1        0.0122
      2 C          14.6892    1.9212    1.4760 C.2     1  UNL1        0.2105
      3 O          14.8576    1.3265    2.5633 O.2     1  UNL1       -0.2761
      4 N          14.6166    1.1417    0.2880 N.am    1  UNL1       -0.3042
      5 C          14.7306   -0.3034    0.3083 C.3     1  UNL1        0.0991
      6 C          13.4073   -0.8394   -0.2594 C.3     1  UNL1       -0.0259
      7 C          12.3270   -0.3278    0.6664 C.3     1  UNL1       -0.0495
      8 C          10.9517   -0.7409    0.2532 C.3     1  UNL1       -0.0373
      9 C          10.7460   -2.2195    0.1955 C.3     1  UNL1        0.0116
     10 N           9.3940   -2.5577   -0.2261 N.am    1  UNL1       -0.3146
     11 C           8.9506   -2.1447   -1.5071 C.2     1  UNL1        0.2229
     12 O           9.7571   -1.4995   -2.2612 O.2     1  UNL1       -0.2749
     13 C           7.6236   -2.4065   -2.0380 C.3     1  UNL1        0.0702
     14 S           6.5040   -3.1234   -0.8429 S.3     1  UNL1       -0.1499
     15 C           6.0811   -1.9246    0.4305 C.3     1  UNL1        0.0097
     16 C           5.0524   -2.5230    1.3822 C.3     1  UNL1        0.0206
     17 N           3.8833   -2.8549    0.5974 N.am    1  UNL1       -0.3145
     18 C           3.1993   -1.8047   -0.0741 C.2     1  UNL1        0.2145
     19 O           3.5715   -0.6087    0.0013 O.2     1  UNL1       -0.2758
     20 C           1.9981   -2.1108   -0.9026 C.3     1  UNL1        0.0395
     21 C           1.4781   -0.8370   -1.4963 C.3     1  UNL1        0.0199
     22 N           1.1075    0.0725   -0.4049 N.am    1  UNL1       -0.3127
     23 C           0.0854   -0.3057    0.4967 C.2     1  UNL1        0.2423
     24 O          -0.4921   -1.4418    0.3366 O.2     1  UNL1       -0.2730
     25 C          -0.3144    0.5777    1.6025 C.3     1  UNL1        0.1380
     26 O          -1.1995   -0.1530    2.4590 O.3     1  UNL1       -0.3820
     27 C          -1.1092    1.7398    1.0745 C.3     1  UNL1        0.0235
     28 C          -0.3611    2.5971    0.1188 C.3     1  UNL1       -0.0549
     29 C          -1.4834    2.5988    2.2865 C.3     1  UNL1       -0.0549
     30 C          -2.3670    1.1501    0.4470 C.3     1  UNL1        0.0670
     31 O          -3.1730    2.1720   -0.0755 O.3     1  UNL1       -0.2857
     32 P          -4.4247    1.5231   -0.9984 P.3     1  UNL1        0.4834
     33 O          -3.9458    1.4520   -2.4504 O.2     1  UNL1       -0.2269
     34 O          -4.9026    0.0177   -0.4460 O.3     1  UNL1       -0.3022
     35 O          -5.7554    2.5759   -0.9388 O.3     1  UNL1       -0.1861
     36 P          -6.9350    1.9441    0.0658 P.3     1  UNL1        0.4835
     37 O          -7.8457    3.0417    0.6095 O.2     1  UNL1       -0.2269
     38 O          -6.2161    1.2208    1.4143 O.3     1  UNL1       -0.3022
     39 O          -7.8337    0.8113   -0.8096 O.3     1  UNL1       -0.2837
     40 C          -8.8553    0.2874   -0.0233 C.3     1  UNL1        0.0879
     41 C          -9.7160   -0.6848   -0.7885 C.3     1  UNL1        0.1142
     42 O         -10.6886   -1.1414    0.1034 O.3     1  UNL1       -0.3456
     43 C         -11.7382   -1.6079   -0.6688 C.3     1  UNL1        0.1667
     44 N         -12.9908   -1.4307    0.0375 N.ar    1  UNL1       -0.2855
     45 C         -14.0683   -2.2613    0.0214 C.ar    1  UNL1        0.1004
     46 N         -15.0093   -1.7213    0.8109 N.ar    1  UNL1       -0.2306
     47 C         -14.5761   -0.5545    1.3463 C.ar    1  UNL1        0.1473
     48 C         -15.0997    0.3817    2.1904 C.ar    1  UNL1        0.1472
     49 N         -16.4004    0.2384    2.7154 N.pl3   1  UNL1       -0.3413
     50 N         -14.3712    1.4530    2.5262 N.ar    1  UNL1       -0.2188
     51 C         -13.1251    1.6401    2.0534 C.ar    1  UNL1        0.1205
     52 N         -12.6172    0.7151    1.2239 N.ar    1  UNL1       -0.2159
     53 C         -13.2942   -0.3830    0.8469 C.ar    1  UNL1        0.1674
     54 C         -11.7145   -0.8690   -1.9751 C.3     1  UNL1        0.1294
     55 O         -11.4147   -1.7148   -3.0366 O.3     1  UNL1       -0.3846
     56 C         -10.5361    0.0841   -1.8025 C.3     1  UNL1        0.1283
     57 O          -9.8932    0.2970   -3.0015 O.3     1  UNL1       -0.2780
     58 P         -10.0430    1.9226   -3.4283 P.3     1  UNL1        0.4728
     59 O         -11.5105    2.1580   -3.7784 O.2     1  UNL1       -0.2275
     60 O          -9.6961    2.9061   -2.1012 O.3     1  UNL1       -0.3026
     61 O          -9.0951    2.3078   -4.7802 O.3     1  UNL1       -0.3026
     62 C          15.8711   -0.7274   -0.5122 C.2     1  UNL1        0.2308
     63 N          16.6573    0.2334   -1.1759 N.am    1  UNL1       -0.3278
     64 O          16.1696   -1.9527   -0.6389 O.2     1  UNL1       -0.2740
     65 H          14.1590    3.7815    2.2974 H       1  UNL1        0.0322
     66 H          13.8255    3.6319    0.5458 H       1  UNL1        0.0322
     67 H          15.5512    3.8420    1.1185 H       1  UNL1        0.0322
     68 H          14.4787    1.6051   -0.6366 H       1  UNL1        0.1494
     69 H          14.8710   -0.6707    1.3532 H       1  UNL1        0.0594
     70 H          13.2987   -0.4493   -1.2840 H       1  UNL1        0.0288
     71 H          13.4918   -1.9225   -0.3127 H       1  UNL1        0.0288
     72 H          12.5322   -0.5894    1.7221 H       1  UNL1        0.0266
     73 H          12.3691    0.7872    0.6097 H       1  UNL1        0.0266
     74 H          10.6484   -0.1748   -0.6339 H       1  UNL1        0.0280
     75 H          10.2693   -0.3575    1.0757 H       1  UNL1        0.0280
     76 H          11.4640   -2.7448   -0.4656 H       1  UNL1        0.0462
     77 H          10.8901   -2.6547    1.2041 H       1  UNL1        0.0462
     78 H           8.7530   -3.1165    0.4132 H       1  UNL1        0.1487
     79 H           7.7377   -3.0361   -2.9568 H       1  UNL1        0.0471
     80 H           7.1333   -1.4733   -2.4237 H       1  UNL1        0.0471
     81 H           6.9949   -1.7499    1.0608 H       1  UNL1        0.0392
     82 H           5.8145   -0.9451    0.0378 H       1  UNL1        0.0392
     83 H           4.7811   -1.7991    2.1755 H       1  UNL1        0.0470
     84 H           5.4676   -3.4446    1.8373 H       1  UNL1        0.0470
     85 H           3.5461   -3.8406    0.5238 H       1  UNL1        0.1487
     86 H           1.2661   -2.7210   -0.3860 H       1  UNL1        0.0374
     87 H           2.3899   -2.7637   -1.7453 H       1  UNL1        0.0374
     88 H           2.1992   -0.3166   -2.1246 H       1  UNL1        0.0467
     89 H           0.5601   -1.0105   -2.1071 H       1  UNL1        0.0467
     90 H           1.6081    0.9740   -0.2965 H       1  UNL1        0.1488
     91 H           0.5574    0.9215    2.2026 H       1  UNL1        0.0696
     92 H          -0.7593   -1.0475    2.5206 H       1  UNL1        0.2105
     93 H           0.6035    2.8829    0.6023 H       1  UNL1        0.0237
     94 H          -0.9429    3.5685    0.0162 H       1  UNL1        0.0237
     95 H          -0.2630    2.2279   -0.9029 H       1  UNL1        0.0237
     96 H          -2.5617    2.4895    2.5396 H       1  UNL1        0.0237
     97 H          -1.2888    3.6734    2.0973 H       1  UNL1        0.0237
     98 H          -0.8548    2.3323    3.1734 H       1  UNL1        0.0237
     99 H          -2.0377    0.4546   -0.3505 H       1  UNL1        0.0572
    100 H          -2.9381    0.5960    1.2084 H       1  UNL1        0.0572
    101 H          -4.9057   -0.6041   -1.2398 H       1  UNL1        0.2220
    102 H          -6.8409    1.2628    2.1864 H       1  UNL1        0.2220
    103 H          -8.3491   -0.2975    0.7990 H       1  UNL1        0.0592
    104 H          -9.4528    1.0606    0.4856 H       1  UNL1        0.0592
    105 H          -9.1245   -1.4716   -1.2523 H       1  UNL1        0.0647
    106 H         -11.6348   -2.6955   -0.8967 H       1  UNL1        0.0866
    107 H         -14.0716   -3.1681   -0.5526 H       1  UNL1        0.1030
    108 H         -16.5336   -0.1391    3.6694 H       1  UNL1        0.1438
    109 H         -17.2252    0.5106    2.1492 H       1  UNL1        0.1438
    110 H         -12.5533    2.5067    2.3342 H       1  UNL1        0.1048
    111 H         -12.6463   -0.3428   -2.2113 H       1  UNL1        0.0666
    112 H         -11.0119   -2.5486   -2.6716 H       1  UNL1        0.2101
    113 H         -10.9018    1.0384   -1.4010 H       1  UNL1        0.0656
    114 H          -8.7865    3.3309   -2.1856 H       1  UNL1        0.2220
    115 H          -8.9645    3.2726   -4.7862 H       1  UNL1        0.2220
    116 H          17.1104    1.0122   -0.6573 H       1  UNL1        0.1450
    117 H          16.8206    0.2049   -2.2222 H       1  UNL1        0.1450
@<TRIPOS>BOND
     1     1     2    1
     2     2     3    2
     3     2     4   am
     4     4     5    1
     5     5     6    1
     6     6     7    1
     7     7     8    1
     8     8     9    1
     9     9    10    1
    10    10    11   am
    11    11    12    2
    12    11    13    1
    13    13    14    1
    14    14    15    1
    15    15    16    1
    16    16    17    1
    17    17    18   am
    18    18    19    2
    19    18    20    1
    20    20    21    1
    21    21    22    1
    22    22    23   am
    23    23    24    2
    24    23    25    1
    25    25    26    1
    26    25    27    1
    27    27    28    1
    28    27    29    1
    29    27    30    1
    30    30    31    1
    31    31    32    1
    32    32    33    2
    33    32    34    1
    34    32    35    1
    35    35    36    1
    36    36    37    2
    37    36    38    1
    38    36    39    1
    39    39    40    1
    40    40    41    1
    41    41    42    1
    42    42    43    1
    43    43    44    1
    44    44    45   ar
    45    45    46   ar
    46    46    47   ar
    47    47    48   ar
    48    48    49    1
    49    48    50   ar
    50    50    51   ar
    51    51    52   ar
    52    52    53   ar
    53    43    54    1
    54    54    55    1
    55    54    56    1
    56    56    57    1
    57    57    58    1
    58    58    59    2
    59    58    60    1
    60    58    61    1
    61     5    62    1
    62    62    63   am
    63    62    64    2
    64    56    41    1
    65    53    44   ar
    66    53    47   ar
    67     1    65    1
    68     1    66    1
    69     1    67    1
    70     4    68    1
    71     5    69    1
    72     6    70    1
    73     6    71    1
    74     7    72    1
    75     7    73    1
    76     8    74    1
    77     8    75    1
    78     9    76    1
    79     9    77    1
    80    10    78    1
    81    13    79    1
    82    13    80    1
    83    15    81    1
    84    15    82    1
    85    16    83    1
    86    16    84    1
    87    17    85    1
    88    20    86    1
    89    20    87    1
    90    21    88    1
    91    21    89    1
    92    22    90    1
    93    25    91    1
    94    26    92    1
    95    28    93    1
    96    28    94    1
    97    28    95    1
    98    29    96    1
    99    29    97    1
   100    29    98    1
   101    30    99    1
   102    30   100    1
   103    34   101    1
   104    38   102    1
   105    40   103    1
   106    40   104    1
   107    41   105    1
   108    43   106    1
   109    45   107    1
   110    49   108    1
   111    49   109    1
   112    51   110    1
   113    54   111    1
   114    55   112    1
   115    56   113    1
   116    60   114    1
   117    61   115    1
   118    63   116    1
   119    63   117    1
