
     RDKit          3D

117119  0  0  0  0  0  0  0  0999 V2000
   14.5583    3.3947    1.3409 C   0  0  0  0  0  0  0  0  0  0  0  0
   14.6892    1.9212    1.4760 C   0  0  0  0  0  0  0  0  0  0  0  0
   14.8576    1.3265    2.5633 O   0  0  0  0  0  0  0  0  0  0  0  0
   14.6166    1.1417    0.2880 N   0  0  0  0  0  0  0  0  0  0  0  0
   14.7306   -0.3034    0.3083 C   0  0  1  0  0  0  0  0  0  0  0  0
   13.4073   -0.8394   -0.2594 C   0  0  0  0  0  0  0  0  0  0  0  0
   12.3270   -0.3278    0.6664 C   0  0  0  0  0  0  0  0  0  0  0  0
   10.9517   -0.7409    0.2532 C   0  0  0  0  0  0  0  0  0  0  0  0
   10.7460   -2.2195    0.1955 C   0  0  0  0  0  0  0  0  0  0  0  0
    9.3940   -2.5577   -0.2261 N   0  0  0  0  0  0  0  0  0  0  0  0
    8.9506   -2.1447   -1.5071 C   0  0  0  0  0  0  0  0  0  0  0  0
    9.7571   -1.4995   -2.2612 O   0  0  0  0  0  0  0  0  0  0  0  0
    7.6236   -2.4065   -2.0380 C   0  0  0  0  0  0  0  0  0  0  0  0
    6.5040   -3.1234   -0.8429 S   0  0  0  0  0  0  0  0  0  0  0  0
    6.0811   -1.9246    0.4305 C   0  0  0  0  0  0  0  0  0  0  0  0
    5.0524   -2.5230    1.3822 C   0  0  0  0  0  0  0  0  0  0  0  0
    3.8833   -2.8549    0.5974 N   0  0  0  0  0  0  0  0  0  0  0  0
    3.1993   -1.8047   -0.0741 C   0  0  0  0  0  0  0  0  0  0  0  0
    3.5715   -0.6087    0.0013 O   0  0  0  0  0  0  0  0  0  0  0  0
    1.9981   -2.1108   -0.9026 C   0  0  0  0  0  0  0  0  0  0  0  0
    1.4781   -0.8370   -1.4963 C   0  0  0  0  0  0  0  0  0  0  0  0
    1.1075    0.0725   -0.4049 N   0  0  0  0  0  0  0  0  0  0  0  0
    0.0854   -0.3057    0.4967 C   0  0  0  0  0  0  0  0  0  0  0  0
   -0.4921   -1.4418    0.3366 O   0  0  0  0  0  0  0  0  0  0  0  0
   -0.3144    0.5777    1.6025 C   0  0  2  0  0  0  0  0  0  0  0  0
   -1.1995   -0.1530    2.4590 O   0  0  0  0  0  0  0  0  0  0  0  0
   -1.1092    1.7398    1.0745 C   0  0  0  0  0  0  0  0  0  0  0  0
   -0.3611    2.5971    0.1188 C   0  0  0  0  0  0  0  0  0  0  0  0
   -1.4834    2.5988    2.2865 C   0  0  0  0  0  0  0  0  0  0  0  0
   -2.3670    1.1501    0.4470 C   0  0  0  0  0  0  0  0  0  0  0  0
   -3.1730    2.1720   -0.0755 O   0  0  0  0  0  0  0  0  0  0  0  0
   -4.4247    1.5231   -0.9984 P   0  0  0  0  0  5  0  0  0  0  0  0
   -3.9458    1.4520   -2.4504 O   0  0  0  0  0  0  0  0  0  0  0  0
   -4.9026    0.0177   -0.4460 O   0  0  0  0  0  0  0  0  0  0  0  0
   -5.7554    2.5759   -0.9388 O   0  0  0  0  0  0  0  0  0  0  0  0
   -6.9350    1.9441    0.0658 P   0  0  0  0  0  5  0  0  0  0  0  0
   -7.8457    3.0417    0.6095 O   0  0  0  0  0  0  0  0  0  0  0  0
   -6.2161    1.2208    1.4143 O   0  0  0  0  0  0  0  0  0  0  0  0
   -7.8337    0.8113   -0.8096 O   0  0  0  0  0  0  0  0  0  0  0  0
   -8.8553    0.2874   -0.0233 C   0  0  0  0  0  0  0  0  0  0  0  0
   -9.7160   -0.6848   -0.7885 C   0  0  1  0  0  0  0  0  0  0  0  0
  -10.6886   -1.1414    0.1034 O   0  0  0  0  0  0  0  0  0  0  0  0
  -11.7382   -1.6079   -0.6688 C   0  0  1  0  0  0  0  0  0  0  0  0
  -12.9908   -1.4307    0.0375 N   0  0  0  0  0  0  0  0  0  0  0  0
  -14.0683   -2.2613    0.0214 C   0  0  0  0  0  0  0  0  0  0  0  0
  -15.0093   -1.7213    0.8109 N   0  0  0  0  0  0  0  0  0  0  0  0
  -14.5761   -0.5545    1.3463 C   0  0  0  0  0  0  0  0  0  0  0  0
  -15.0997    0.3817    2.1904 C   0  0  0  0  0  0  0  0  0  0  0  0
  -16.4004    0.2384    2.7154 N   0  0  0  0  0  0  0  0  0  0  0  0
  -14.3712    1.4530    2.5262 N   0  0  0  0  0  0  0  0  0  0  0  0
  -13.1251    1.6401    2.0534 C   0  0  0  0  0  0  0  0  0  0  0  0
  -12.6172    0.7151    1.2239 N   0  0  0  0  0  0  0  0  0  0  0  0
  -13.2942   -0.3830    0.8469 C   0  0  0  0  0  0  0  0  0  0  0  0
  -11.7145   -0.8690   -1.9751 C   0  0  2  0  0  0  0  0  0  0  0  0
  -11.4147   -1.7148   -3.0366 O   0  0  0  0  0  0  0  0  0  0  0  0
  -10.5361    0.0841   -1.8025 C   0  0  2  0  0  0  0  0  0  0  0  0
   -9.8932    0.2970   -3.0015 O   0  0  0  0  0  0  0  0  0  0  0  0
  -10.0430    1.9226   -3.4283 P   0  0  0  0  0  5  0  0  0  0  0  0
  -11.5105    2.1580   -3.7784 O   0  0  0  0  0  0  0  0  0  0  0  0
   -9.6961    2.9061   -2.1012 O   0  0  0  0  0  0  0  0  0  0  0  0
   -9.0951    2.3078   -4.7802 O   0  0  0  0  0  0  0  0  0  0  0  0
   15.8711   -0.7274   -0.5122 C   0  0  0  0  0  0  0  0  0  0  0  0
   16.6573    0.2334   -1.1759 N   0  0  0  0  0  0  0  0  0  0  0  0
   16.1696   -1.9527   -0.6389 O   0  0  0  0  0  0  0  0  0  0  0  0
   14.1590    3.7815    2.2974 H   0  0  0  0  0  0  0  0  0  0  0  0
   13.8255    3.6319    0.5458 H   0  0  0  0  0  0  0  0  0  0  0  0
   15.5512    3.8420    1.1185 H   0  0  0  0  0  0  0  0  0  0  0  0
   14.4787    1.6051   -0.6366 H   0  0  0  0  0  0  0  0  0  0  0  0
   14.8710   -0.6707    1.3532 H   0  0  0  0  0  0  0  0  0  0  0  0
   13.2987   -0.4493   -1.2840 H   0  0  0  0  0  0  0  0  0  0  0  0
   13.4918   -1.9225   -0.3127 H   0  0  0  0  0  0  0  0  0  0  0  0
   12.5322   -0.5894    1.7221 H   0  0  0  0  0  0  0  0  0  0  0  0
   12.3691    0.7872    0.6097 H   0  0  0  0  0  0  0  0  0  0  0  0
   10.6484   -0.1748   -0.6339 H   0  0  0  0  0  0  0  0  0  0  0  0
   10.2693   -0.3575    1.0757 H   0  0  0  0  0  0  0  0  0  0  0  0
   11.4640   -2.7448   -0.4656 H   0  0  0  0  0  0  0  0  0  0  0  0
   10.8901   -2.6547    1.2041 H   0  0  0  0  0  0  0  0  0  0  0  0
    8.7530   -3.1165    0.4132 H   0  0  0  0  0  0  0  0  0  0  0  0
    7.7377   -3.0361   -2.9568 H   0  0  0  0  0  0  0  0  0  0  0  0
    7.1333   -1.4733   -2.4237 H   0  0  0  0  0  0  0  0  0  0  0  0
    6.9949   -1.7499    1.0608 H   0  0  0  0  0  0  0  0  0  0  0  0
    5.8145   -0.9451    0.0378 H   0  0  0  0  0  0  0  0  0  0  0  0
    4.7811   -1.7991    2.1755 H   0  0  0  0  0  0  0  0  0  0  0  0
    5.4676   -3.4446    1.8373 H   0  0  0  0  0  0  0  0  0  0  0  0
    3.5461   -3.8406    0.5238 H   0  0  0  0  0  0  0  0  0  0  0  0
    1.2661   -2.7210   -0.3860 H   0  0  0  0  0  0  0  0  0  0  0  0
    2.3899   -2.7637   -1.7453 H   0  0  0  0  0  0  0  0  0  0  0  0
    2.1992   -0.3166   -2.1246 H   0  0  0  0  0  0  0  0  0  0  0  0
    0.5601   -1.0105   -2.1071 H   0  0  0  0  0  0  0  0  0  0  0  0
    1.6081    0.9740   -0.2965 H   0  0  0  0  0  0  0  0  0  0  0  0
    0.5574    0.9215    2.2026 H   0  0  0  0  0  0  0  0  0  0  0  0
   -0.7593   -1.0475    2.5206 H   0  0  0  0  0  0  0  0  0  0  0  0
    0.6035    2.8829    0.6023 H   0  0  0  0  0  0  0  0  0  0  0  0
   -0.9429    3.5685    0.0162 H   0  0  0  0  0  0  0  0  0  0  0  0
   -0.2630    2.2279   -0.9029 H   0  0  0  0  0  0  0  0  0  0  0  0
   -2.5617    2.4895    2.5396 H   0  0  0  0  0  0  0  0  0  0  0  0
   -1.2888    3.6734    2.0973 H   0  0  0  0  0  0  0  0  0  0  0  0
   -0.8548    2.3323    3.1734 H   0  0  0  0  0  0  0  0  0  0  0  0
   -2.0377    0.4546   -0.3505 H   0  0  0  0  0  0  0  0  0  0  0  0
   -2.9381    0.5960    1.2084 H   0  0  0  0  0  0  0  0  0  0  0  0
   -4.9057   -0.6041   -1.2398 H   0  0  0  0  0  0  0  0  0  0  0  0
   -6.8409    1.2628    2.1864 H   0  0  0  0  0  0  0  0  0  0  0  0
   -8.3491   -0.2975    0.7990 H   0  0  0  0  0  0  0  0  0  0  0  0
   -9.4528    1.0606    0.4856 H   0  0  0  0  0  0  0  0  0  0  0  0
   -9.1245   -1.4716   -1.2523 H   0  0  0  0  0  0  0  0  0  0  0  0
  -11.6348   -2.6955   -0.8967 H   0  0  0  0  0  0  0  0  0  0  0  0
  -14.0716   -3.1681   -0.5526 H   0  0  0  0  0  0  0  0  0  0  0  0
  -16.5336   -0.1391    3.6694 H   0  0  0  0  0  0  0  0  0  0  0  0
  -17.2252    0.5106    2.1492 H   0  0  0  0  0  0  0  0  0  0  0  0
  -12.5533    2.5067    2.3342 H   0  0  0  0  0  0  0  0  0  0  0  0
  -12.6463   -0.3428   -2.2113 H   0  0  0  0  0  0  0  0  0  0  0  0
  -11.0119   -2.5486   -2.6716 H   0  0  0  0  0  0  0  0  0  0  0  0
  -10.9018    1.0384   -1.4010 H   0  0  0  0  0  0  0  0  0  0  0  0
   -8.7865    3.3309   -2.1856 H   0  0  0  0  0  0  0  0  0  0  0  0
   -8.9645    3.2726   -4.7862 H   0  0  0  0  0  0  0  0  0  0  0  0
   17.1104    1.0122   -0.6573 H   0  0  0  0  0  0  0  0  0  0  0  0
   16.8206    0.2049   -2.2222 H   0  0  0  0  0  0  0  0  0  0  0  0
  1  2  1  0
  2  3  2  0
  2  4  1  0
  4  5  1  0
  5  6  1  0
  6  7  1  0
  7  8  1  0
  8  9  1  0
  9 10  1  0
 10 11  1  0
 11 12  2  0
 11 13  1  0
 13 14  1  0
 14 15  1  0
 15 16  1  0
 16 17  1  0
 17 18  1  0
 18 19  2  0
 18 20  1  0
 20 21  1  0
 21 22  1  0
 22 23  1  0
 23 24  2  0
 23 25  1  0
 25 26  1  0
 25 27  1  0
 27 28  1  0
 27 29  1  0
 27 30  1  0
 30 31  1  0
 31 32  1  0
 32 33  2  0
 32 34  1  0
 32 35  1  0
 35 36  1  0
 36 37  2  0
 36 38  1  0
 36 39  1  0
 39 40  1  0
 40 41  1  0
 41 42  1  0
 42 43  1  0
 43 44  1  0
 44 45  1  0
 45 46  2  0
 46 47  1  0
 47 48  2  0
 48 49  1  0
 48 50  1  0
 50 51  2  0
 51 52  1  0
 52 53  2  0
 43 54  1  0
 54 55  1  0
 54 56  1  0
 56 57  1  0
 57 58  1  0
 58 59  2  0
 58 60  1  0
 58 61  1  0
  5 62  1  0
 62 63  1  0
 62 64  2  0
 56 41  1  0
 53 44  1  0
 53 47  1  0
  1 65  1  0
  1 66  1  0
  1 67  1  0
  4 68  1  0
  5 69  1  1
  6 70  1  0
  6 71  1  0
  7 72  1  0
  7 73  1  0
  8 74  1  0
  8 75  1  0
  9 76  1  0
  9 77  1  0
 10 78  1  0
 13 79  1  0
 13 80  1  0
 15 81  1  0
 15 82  1  0
 16 83  1  0
 16 84  1  0
 17 85  1  0
 20 86  1  0
 20 87  1  0
 21 88  1  0
 21 89  1  0
 22 90  1  0
 25 91  1  1
 26 92  1  0
 28 93  1  0
 28 94  1  0
 28 95  1  0
 29 96  1  0
 29 97  1  0
 29 98  1  0
 30 99  1  0
 30100  1  0
 34101  1  0
 38102  1  0
 40103  1  0
 40104  1  0
 41105  1  6
 43106  1  6
 45107  1  0
 49108  1  0
 49109  1  0
 51110  1  0
 54111  1  6
 55112  1  0
 56113  1  1
 60114  1  0
 61115  1  0
 63116  1  0
 63117  1  0
M  END
$$$$
