@<TRIPOS>MOLECULE
*****
 43 46 0 0 0
SMALL
GASTEIGER

@<TRIPOS>ATOM
      1 C           7.5649   -0.2339   -0.9585 C.3     1  UNL1        0.0163
      2 S           6.7581   -0.2192    0.6299 S.O     1  UNL1        0.0507
      3 O           7.1834    0.9562    1.4939 O.2     1  UNL1       -0.2524
      4 C           4.9814   -0.1832    0.4790 C.ar    1  UNL1        0.0386
      5 C           4.2997    1.0114    0.4211 C.ar    1  UNL1       -0.0453
      6 C           2.9282    1.0695    0.3046 C.ar    1  UNL1       -0.0500
      7 C           2.1934   -0.0947    0.2423 C.ar    1  UNL1        0.0173
      8 C           0.7453   -0.0637    0.1197 C.ar    1  UNL1        0.1393
      9 N          -0.0424   -1.1487    0.0535 N.ar    1  UNL1       -0.2271
     10 C          -1.3390   -0.7803   -0.0557 C.ar    1  UNL1        0.0972
     11 C          -2.4829   -1.6738   -0.1511 C.ar    1  UNL1        0.0053
     12 C          -3.4784   -1.7169    0.8028 C.ar    1  UNL1       -0.0343
     13 C          -4.5470   -2.5522    0.7128 C.ar    1  UNL1        0.0282
     14 N          -4.6781   -3.3741   -0.3138 N.ar    1  UNL1       -0.2632
     15 C          -3.7531   -3.3944   -1.2853 C.ar    1  UNL1        0.0282
     16 C          -2.6593   -2.5575   -1.2187 C.ar    1  UNL1       -0.0343
     17 C          -1.3448    0.5911   -0.0565 C.ar    1  UNL1        0.0743
     18 C          -2.5249    1.4207   -0.1561 C.ar    1  UNL1        0.0006
     19 C          -3.2783    1.3292   -1.3202 C.ar    1  UNL1       -0.0499
     20 C          -4.4069    2.0986   -1.4583 C.ar    1  UNL1       -0.0258
     21 C          -4.8524    2.9774   -0.4939 C.ar    1  UNL1        0.1234
     22 F          -5.9673    3.7347   -0.6354 F       1  UNL1       -0.2055
     23 C          -4.0595    3.0304    0.6546 C.ar    1  UNL1       -0.0258
     24 C          -2.9341    2.2815    0.8246 C.ar    1  UNL1       -0.0499
     25 N          -0.0733    1.0079    0.0506 N.ar    1  UNL1       -0.3374
     26 C           2.8950   -1.2778    0.3019 C.ar    1  UNL1       -0.0500
     27 C           4.2590   -1.3483    0.4178 C.ar    1  UNL1       -0.0453
     28 H           6.8045   -0.2228   -1.7881 H       1  UNL1        0.0368
     29 H           8.1677   -1.1800   -1.0151 H       1  UNL1        0.0368
     30 H           8.2707    0.5953   -1.0917 H       1  UNL1        0.0368
     31 H           4.9137    1.9164    0.4731 H       1  UNL1        0.0629
     32 H           2.4528    2.0556    0.2644 H       1  UNL1        0.0625
     33 H          -3.3928   -1.0535    1.6523 H       1  UNL1        0.0639
     34 H          -5.3318   -2.5698    1.4878 H       1  UNL1        0.0830
     35 H          -3.9154   -4.0908   -2.1026 H       1  UNL1        0.0830
     36 H          -1.9141   -2.5730   -1.9997 H       1  UNL1        0.0639
     37 H          -2.9917    0.6525   -2.1371 H       1  UNL1        0.0625
     38 H          -5.0034    2.0300   -2.3734 H       1  UNL1        0.0646
     39 H          -4.4263    3.7356    1.4159 H       1  UNL1        0.0646
     40 H          -2.3709    2.3681    1.7277 H       1  UNL1        0.0625
     41 H           0.2376    2.0064    0.0765 H       1  UNL1        0.1674
     42 H           2.3511   -2.2335    0.2554 H       1  UNL1        0.0625
     43 H           4.7616   -2.3265    0.4607 H       1  UNL1        0.0629
@<TRIPOS>BOND
     1     1     2    1
     2     2     3    2
     3     2     4    1
     4     4     5   ar
     5     5     6   ar
     6     6     7   ar
     7     7     8    1
     8     8     9   ar
     9     9    10   ar
    10    10    11    1
    11    11    12   ar
    12    12    13   ar
    13    13    14   ar
    14    14    15   ar
    15    15    16   ar
    16    10    17   ar
    17    17    18    1
    18    18    19   ar
    19    19    20   ar
    20    20    21   ar
    21    21    22    1
    22    21    23   ar
    23    23    24   ar
    24    17    25   ar
    25     7    26   ar
    26    26    27   ar
    27    27     4   ar
    28    25     8   ar
    29    16    11   ar
    30    24    18   ar
    31     1    28    1
    32     1    29    1
    33     1    30    1
    34     5    31    1
    35     6    32    1
    36    12    33    1
    37    13    34    1
    38    15    35    1
    39    16    36    1
    40    19    37    1
    41    20    38    1
    42    23    39    1
    43    24    40    1
    44    25    41    1
    45    26    42    1
    46    27    43    1
