
     RDKit          3D

 43 46  0  0  0  0  0  0  0  0999 V2000
    7.5649   -0.2339   -0.9585 C   0  0  0  0  0  0  0  0  0  0  0  0
    6.7581   -0.2192    0.6299 S   0  0  0  0  0  4  0  0  0  0  0  0
    7.1834    0.9562    1.4939 O   0  0  0  0  0  0  0  0  0  0  0  0
    4.9814   -0.1832    0.4790 C   0  0  0  0  0  0  0  0  0  0  0  0
    4.2997    1.0114    0.4211 C   0  0  0  0  0  0  0  0  0  0  0  0
    2.9282    1.0695    0.3046 C   0  0  0  0  0  0  0  0  0  0  0  0
    2.1934   -0.0947    0.2423 C   0  0  0  0  0  0  0  0  0  0  0  0
    0.7453   -0.0637    0.1197 C   0  0  0  0  0  0  0  0  0  0  0  0
   -0.0424   -1.1487    0.0535 N   0  0  0  0  0  0  0  0  0  0  0  0
   -1.3390   -0.7803   -0.0557 C   0  0  0  0  0  0  0  0  0  0  0  0
   -2.4829   -1.6738   -0.1511 C   0  0  0  0  0  0  0  0  0  0  0  0
   -3.4784   -1.7169    0.8028 C   0  0  0  0  0  0  0  0  0  0  0  0
   -4.5470   -2.5522    0.7128 C   0  0  0  0  0  0  0  0  0  0  0  0
   -4.6781   -3.3741   -0.3138 N   0  0  0  0  0  0  0  0  0  0  0  0
   -3.7531   -3.3944   -1.2853 C   0  0  0  0  0  0  0  0  0  0  0  0
   -2.6593   -2.5575   -1.2187 C   0  0  0  0  0  0  0  0  0  0  0  0
   -1.3448    0.5911   -0.0565 C   0  0  0  0  0  0  0  0  0  0  0  0
   -2.5249    1.4207   -0.1561 C   0  0  0  0  0  0  0  0  0  0  0  0
   -3.2783    1.3292   -1.3202 C   0  0  0  0  0  0  0  0  0  0  0  0
   -4.4069    2.0986   -1.4583 C   0  0  0  0  0  0  0  0  0  0  0  0
   -4.8524    2.9774   -0.4939 C   0  0  0  0  0  0  0  0  0  0  0  0
   -5.9673    3.7347   -0.6354 F   0  0  0  0  0  0  0  0  0  0  0  0
   -4.0595    3.0304    0.6546 C   0  0  0  0  0  0  0  0  0  0  0  0
   -2.9341    2.2815    0.8246 C   0  0  0  0  0  0  0  0  0  0  0  0
   -0.0733    1.0079    0.0506 N   0  0  0  0  0  0  0  0  0  0  0  0
    2.8950   -1.2778    0.3019 C   0  0  0  0  0  0  0  0  0  0  0  0
    4.2590   -1.3483    0.4178 C   0  0  0  0  0  0  0  0  0  0  0  0
    6.8045   -0.2228   -1.7881 H   0  0  0  0  0  0  0  0  0  0  0  0
    8.1677   -1.1800   -1.0151 H   0  0  0  0  0  0  0  0  0  0  0  0
    8.2707    0.5953   -1.0917 H   0  0  0  0  0  0  0  0  0  0  0  0
    4.9137    1.9164    0.4731 H   0  0  0  0  0  0  0  0  0  0  0  0
    2.4528    2.0556    0.2644 H   0  0  0  0  0  0  0  0  0  0  0  0
   -3.3928   -1.0535    1.6523 H   0  0  0  0  0  0  0  0  0  0  0  0
   -5.3318   -2.5698    1.4878 H   0  0  0  0  0  0  0  0  0  0  0  0
   -3.9154   -4.0908   -2.1026 H   0  0  0  0  0  0  0  0  0  0  0  0
   -1.9141   -2.5730   -1.9997 H   0  0  0  0  0  0  0  0  0  0  0  0
   -2.9917    0.6525   -2.1371 H   0  0  0  0  0  0  0  0  0  0  0  0
   -5.0034    2.0300   -2.3734 H   0  0  0  0  0  0  0  0  0  0  0  0
   -4.4263    3.7356    1.4159 H   0  0  0  0  0  0  0  0  0  0  0  0
   -2.3709    2.3681    1.7277 H   0  0  0  0  0  0  0  0  0  0  0  0
    0.2376    2.0064    0.0765 H   0  0  0  0  0  0  0  0  0  0  0  0
    2.3511   -2.2335    0.2554 H   0  0  0  0  0  0  0  0  0  0  0  0
    4.7616   -2.3265    0.4607 H   0  0  0  0  0  0  0  0  0  0  0  0
  1  2  1  0
  2  3  2  0
  2  4  1  0
  4  5  2  0
  5  6  1  0
  6  7  2  0
  7  8  1  0
  8  9  2  0
  9 10  1  0
 10 11  1  0
 11 12  2  0
 12 13  1  0
 13 14  2  0
 14 15  1  0
 15 16  2  0
 10 17  2  0
 17 18  1  0
 18 19  2  0
 19 20  1  0
 20 21  2  0
 21 22  1  0
 21 23  1  0
 23 24  2  0
 17 25  1  0
  7 26  1  0
 26 27  2  0
 27  4  1  0
 25  8  1  0
 16 11  1  0
 24 18  1  0
  1 28  1  0
  1 29  1  0
  1 30  1  0
  5 31  1  0
  6 32  1  0
 12 33  1  0
 13 34  1  0
 15 35  1  0
 16 36  1  0
 19 37  1  0
 20 38  1  0
 23 39  1  0
 24 40  1  0
 25 41  1  0
 26 42  1  0
 27 43  1  0
M  END
$$$$
