@<TRIPOS>MOLECULE
*****
 42 45 0 0 0
SMALL
GASTEIGER

@<TRIPOS>ATOM
      1 N           0.2401   -3.5522    3.8078 N.1     1  UNL1       -0.1892
      2 C          -0.0095   -3.5773    2.6613 C.1     1  UNL1        0.1208
      3 C          -0.3420   -3.6030    1.2498 C.ar    1  UNL1        0.1618
      4 C          -0.3807   -4.7021    0.4216 C.ar    1  UNL1        0.0659
      5 N          -0.7232   -4.2991   -0.8105 N.ar    1  UNL1       -0.2333
      6 C          -0.9032   -2.9825   -0.7922 C.ar    1  UNL1        0.1555
      7 C          -1.2582   -2.0453   -1.7729 C.ar    1  UNL1       -0.0153
      8 C          -1.3433   -0.7313   -1.3598 C.ar    1  UNL1       -0.0290
      9 C          -1.1105   -0.2893   -0.0838 C.ar    1  UNL1        0.1103
     10 C          -1.2141    1.0928    0.3680 C.ar    1  UNL1        0.0968
     11 C          -0.1042    1.8653    0.7232 C.ar    1  UNL1        0.0982
     12 C           1.2682    1.4025    0.6464 C.ar    1  UNL1        0.0028
     13 C           2.0090    1.4012    1.8312 C.ar    1  UNL1       -0.0525
     14 C           3.3155    0.9772    1.8730 C.ar    1  UNL1       -0.0608
     15 C           3.9022    0.5417    0.7021 C.ar    1  UNL1       -0.0564
     16 C           3.2260    0.5161   -0.5097 C.ar    1  UNL1       -0.0216
     17 C           3.8810    0.0497   -1.7586 C.3     1  UNL1        0.0693
     18 O           4.4803    1.1246   -2.4123 O.3     1  UNL1       -0.3904
     19 C           1.9075    0.9578   -0.4797 C.ar    1  UNL1       -0.0471
     20 N          -0.5840    3.0518    1.1413 N.ar    1  UNL1       -0.2351
     21 C          -1.9065    3.0814    1.0755 C.ar    1  UNL1        0.0973
     22 N          -2.2829    1.8503    0.5903 N.ar    1  UNL1       -0.3229
     23 C          -3.6701    1.4896    0.3280 C.3     1  UNL1        0.0852
     24 C          -4.1762    2.0415   -0.9622 C.3     1  UNL1        0.2569
     25 F          -3.5581    1.6800   -2.0983 F       1  UNL1       -0.2073
     26 F          -5.5265    1.6903   -1.0814 F       1  UNL1       -0.2073
     27 N          -0.7681   -1.2645    0.8185 N.ar    1  UNL1       -0.1623
     28 N          -0.6765   -2.5380    0.4536 N.ar    1  UNL1       -0.2023
     29 H          -0.1725   -5.7372    0.7059 H       1  UNL1        0.0859
     30 H          -1.4366   -2.3923   -2.7578 H       1  UNL1        0.0655
     31 H          -1.5976    0.0142   -2.1041 H       1  UNL1        0.0641
     32 H           1.5382    1.7483    2.7476 H       1  UNL1        0.0624
     33 H           3.9299    0.9575    2.7627 H       1  UNL1        0.0618
     34 H           4.9451    0.2004    0.7177 H       1  UNL1        0.0621
     35 H           4.6953   -0.6494   -1.4077 H       1  UNL1        0.0607
     36 H           3.1803   -0.4988   -2.3870 H       1  UNL1        0.0607
     37 H           4.7453    0.8867   -3.3207 H       1  UNL1        0.2098
     38 H           1.3685    0.9429   -1.4037 H       1  UNL1        0.0628
     39 H          -2.6263    3.8615    1.3270 H       1  UNL1        0.1029
     40 H          -4.3344    1.8835    1.1327 H       1  UNL1        0.0548
     41 H          -3.7895    0.3820    0.3491 H       1  UNL1        0.0548
     42 H          -4.1377    3.1712   -0.9319 H       1  UNL1        0.1037
@<TRIPOS>BOND
     1     1     2    3
     2     2     3    1
     3     3     4   ar
     4     4     5   ar
     5     5     6   ar
     6     6     7   ar
     7     7     8   ar
     8     8     9   ar
     9     9    10    1
    10    10    11   ar
    11    11    12    1
    12    12    13   ar
    13    13    14   ar
    14    14    15   ar
    15    15    16   ar
    16    16    17    1
    17    17    18    1
    18    16    19   ar
    19    11    20   ar
    20    20    21   ar
    21    21    22   ar
    22    22    23    1
    23    23    24    1
    24    24    25    1
    25    24    26    1
    26     9    27   ar
    27    27    28   ar
    28    28     3   ar
    29    28     6   ar
    30    22    10   ar
    31    19    12   ar
    32     4    29    1
    33     7    30    1
    34     8    31    1
    35    13    32    1
    36    14    33    1
    37    15    34    1
    38    17    35    1
    39    17    36    1
    40    18    37    1
    41    19    38    1
    42    21    39    1
    43    23    40    1
    44    23    41    1
    45    24    42    1
