
     RDKit          3D

 46 48  0  0  0  0  0  0  0  0999 V2000
    4.9174    1.1391    3.5205 C   0  0  0  0  0  0  0  0  0  0  0  0
    5.1946    0.3667    2.3403 O   0  0  0  0  0  0  0  0  0  0  0  0
    4.1762    0.1918    1.4277 C   0  0  0  0  0  0  0  0  0  0  0  0
    2.9160    0.6929    1.5610 C   0  0  0  0  0  0  0  0  0  0  0  0
    1.9353    0.4927    0.6225 C   0  0  0  0  0  0  0  0  0  0  0  0
    2.2242   -0.2535   -0.5243 C   0  0  0  0  0  0  0  0  0  0  0  0
    1.1292   -0.4710   -1.4461 C   0  0  0  0  0  0  0  0  0  0  0  0
    1.2862   -1.1320   -2.6329 C   0  0  0  0  0  0  0  0  0  0  0  0
    0.2482   -1.3162   -3.5037 N   0  0  0  0  0  0  0  0  0  0  0  0
   -0.9770   -0.8402   -3.2052 C   0  0  0  0  0  0  0  0  0  0  0  0
   -2.1732   -0.8642   -3.8219 N   0  0  0  0  0  0  0  0  0  0  0  0
   -3.0410   -0.2290   -3.0193 C   0  0  0  0  0  0  0  0  0  0  0  0
   -2.4474    0.2206   -1.8760 C   0  0  0  0  0  0  0  0  0  0  0  0
   -2.9524    0.9224   -0.7116 C   0  0  0  0  0  0  0  0  0  0  0  0
   -2.3998    1.9765   -0.3276 O   0  0  0  0  0  0  0  0  0  0  0  0
   -4.0652    0.4253   -0.0020 N   0  0  0  0  0  0  0  0  0  0  0  0
   -4.6628    0.9967    1.1638 C   0  0  0  0  0  0  0  0  0  0  0  0
   -6.0175    1.5645    0.7604 C   0  0  0  0  0  0  0  0  0  0  0  0
   -4.8740   -0.1296    2.1615 C   0  0  0  0  0  0  0  0  0  0  0  0
   -3.6572   -0.7224    2.4921 O   0  0  0  0  0  0  0  0  0  0  0  0
   -1.1092   -0.1798   -2.0086 C   0  0  0  0  0  0  0  0  0  0  0  0
   -0.1054    0.0095   -1.1461 N   0  0  0  0  0  0  0  0  0  0  0  0
    3.4968   -0.7614   -0.6607 C   0  0  0  0  0  0  0  0  0  0  0  0
    4.4729   -0.5578    0.2833 C   0  0  0  0  0  0  0  0  0  0  0  0
    5.7429   -1.0626    0.1674 O   0  0  0  0  0  0  0  0  0  0  0  0
    6.1064   -1.8333   -0.9428 C   0  0  0  0  0  0  0  0  0  0  0  0
    4.7522    2.1880    3.1293 H   0  0  0  0  0  0  0  0  0  0  0  0
    5.7591    1.1156    4.2151 H   0  0  0  0  0  0  0  0  0  0  0  0
    3.9628    0.8422    3.9770 H   0  0  0  0  0  0  0  0  0  0  0  0
    2.6711    1.2752    2.4487 H   0  0  0  0  0  0  0  0  0  0  0  0
    0.9527    0.9109    0.7714 H   0  0  0  0  0  0  0  0  0  0  0  0
    2.2687   -1.5147   -2.8779 H   0  0  0  0  0  0  0  0  0  0  0  0
   -2.3355   -1.3043   -4.7407 H   0  0  0  0  0  0  0  0  0  0  0  0
   -4.1084   -0.0927   -3.2560 H   0  0  0  0  0  0  0  0  0  0  0  0
   -4.4935   -0.4690   -0.3868 H   0  0  0  0  0  0  0  0  0  0  0  0
   -4.0415    1.8055    1.5964 H   0  0  0  0  0  0  0  0  0  0  0  0
   -6.6676    0.7710    0.3986 H   0  0  0  0  0  0  0  0  0  0  0  0
   -5.8710    2.3062   -0.0623 H   0  0  0  0  0  0  0  0  0  0  0  0
   -6.4692    2.0814    1.6044 H   0  0  0  0  0  0  0  0  0  0  0  0
   -5.4371    0.2377    3.0270 H   0  0  0  0  0  0  0  0  0  0  0  0
   -5.4942   -0.9461    1.7015 H   0  0  0  0  0  0  0  0  0  0  0  0
   -3.0632   -0.1660    3.0257 H   0  0  0  0  0  0  0  0  0  0  0  0
    3.7306   -1.3496   -1.5529 H   0  0  0  0  0  0  0  0  0  0  0  0
    5.2733   -2.5812   -1.1266 H   0  0  0  0  0  0  0  0  0  0  0  0
    7.0053   -2.4778   -0.6880 H   0  0  0  0  0  0  0  0  0  0  0  0
    6.2409   -1.2780   -1.8757 H   0  0  0  0  0  0  0  0  0  0  0  0
  1  2  1  0
  2  3  1  0
  3  4  2  0
  4  5  1  0
  5  6  2  0
  6  7  1  0
  7  8  2  0
  8  9  1  0
  9 10  2  0
 10 11  1  0
 11 12  1  0
 12 13  2  0
 13 14  1  0
 14 15  2  0
 14 16  1  0
 16 17  1  0
 17 18  1  0
 17 19  1  0
 19 20  1  0
 13 21  1  0
 21 22  2  0
  6 23  1  0
 23 24  2  0
 24 25  1  0
 25 26  1  0
 24  3  1  0
 22  7  1  0
 21 10  1  0
  1 27  1  0
  1 28  1  0
  1 29  1  0
  4 30  1  0
  5 31  1  0
  8 32  1  0
 11 33  1  0
 12 34  1  0
 16 35  1  0
 17 36  1  0
 18 37  1  0
 18 38  1  0
 18 39  1  0
 19 40  1  0
 19 41  1  0
 20 42  1  0
 23 43  1  0
 26 44  1  0
 26 45  1  0
 26 46  1  0
M  END
$$$$
