@<TRIPOS>MOLECULE
*****
 46 48 0 0 0
SMALL
GASTEIGER

@<TRIPOS>ATOM
      1 C           4.9174    1.1391    3.5205 C.3     0  UNK0        0.0790
      2 O           5.1946    0.3667    2.3403 O.3     0  UNK0       -0.4915
      3 C           4.1762    0.1918    1.4277 C.ar    0  UNK0        0.1615
      4 C           2.9160    0.6929    1.5610 C.ar    0  UNK0       -0.0157
      5 C           1.9353    0.4927    0.6225 C.ar    0  UNK0       -0.0488
      6 C           2.2242   -0.2535   -0.5243 C.ar    0  UNK0        0.0055
      7 C           1.1292   -0.4710   -1.4461 C.ar    0  UNK0        0.0900
      8 C           1.2862   -1.1320   -2.6329 C.ar    0  UNK0        0.0559
      9 N           0.2482   -1.3162   -3.5037 N.ar    0  UNK0       -0.2338
     10 C          -0.9770   -0.8402   -3.2052 C.ar    0  UNK0        0.1574
     11 N          -2.1732   -0.8642   -3.8219 N.ar    0  UNK0       -0.3438
     12 C          -3.0410   -0.2290   -3.0193 C.ar    0  UNK0        0.0178
     13 C          -2.4474    0.2206   -1.8760 C.ar    0  UNK0        0.0815
     14 C          -2.9524    0.9224   -0.7116 C.2     0  UNK0        0.2479
     15 O          -2.3998    1.9765   -0.3276 O.2     0  UNK0       -0.2701
     16 N          -4.0652    0.4253   -0.0020 N.am    1  ALA1       -0.3065
     17 CA         -4.6628    0.9967    1.1638 C.3     1  ALA1        0.0437
     18 CB         -6.0175    1.5645    0.7604 C.3     1  ALA1       -0.0445
     19 C          -4.8740   -0.1296    2.1615 C.3     1  ALA1        0.0623
     20 O          -3.6572   -0.7224    2.4921 O.3     1  ALA1       -0.3932
     21 C          -1.1092   -0.1798   -2.0086 C.ar    0  UNK0        0.1201
     22 N          -0.1054    0.0095   -1.1461 N.ar    0  UNK0       -0.2413
     23 C           3.4968   -0.7614   -0.6607 C.ar    0  UNK0       -0.0071
     24 C           4.4729   -0.5578    0.2833 C.ar    0  UNK0        0.1621
     25 O           5.7429   -1.0626    0.1674 O.3     0  UNK0       -0.4914
     26 C           6.1064   -1.8333   -0.9428 C.3     0  UNK0        0.0790
     27 H           4.7522    2.1880    3.1293 H       0  UNK0        0.0660
     28 H           5.7591    1.1156    4.2151 H       0  UNK0        0.0660
     29 H           3.9628    0.8422    3.9770 H       0  UNK0        0.0660
     30 H           2.6711    1.2752    2.4487 H       0  UNK0        0.0655
     31 H           0.9527    0.9109    0.7714 H       0  UNK0        0.0625
     32 H           2.2687   -1.5147   -2.8779 H       0  UNK0        0.0852
     33 H          -2.3355   -1.3043   -4.7407 H       0  UNK0        0.1668
     34 H          -4.1084   -0.0927   -3.2560 H       0  UNK0        0.0816
     35 H          -4.4935   -0.4690   -0.3868 H       1  ALA1        0.1494
     36 HA         -4.0415    1.8055    1.5964 H       1  ALA1        0.0518
     37 HB1        -6.6676    0.7710    0.3986 H       1  ALA1        0.0248
     38 HB2        -5.8710    2.3062   -0.0623 H       1  ALA1        0.0248
     39 HB3        -6.4692    2.0814    1.6044 H       1  ALA1        0.0248
     40 H1         -5.4371    0.2377    3.0270 H       1  ALA1        0.0575
     41 H2         -5.4942   -0.9461    1.7015 H       1  ALA1        0.0575
     42 H          -3.0632   -0.1660    3.0257 H       1  ALA1        0.2095
     43 H           3.7306   -1.3496   -1.5529 H       0  UNK0        0.0662
     44 H           5.2733   -2.5812   -1.1266 H       0  UNK0        0.0660
     45 H           7.0053   -2.4778   -0.6880 H       0  UNK0        0.0660
     46 H           6.2409   -1.2780   -1.8757 H       0  UNK0        0.0660
@<TRIPOS>BOND
     1     1     2    1
     2     2     3    1
     3     3     4   ar
     4     4     5   ar
     5     5     6   ar
     6     6     7    1
     7     7     8   ar
     8     8     9   ar
     9     9    10   ar
    10    10    11   ar
    11    11    12   ar
    12    12    13   ar
    13    13    14    1
    14    14    15    2
    15    14    16   am
    16    16    17    1
    17    17    18    1
    18    17    19    1
    19    19    20    1
    20    13    21   ar
    21    21    22   ar
    22     6    23   ar
    23    23    24   ar
    24    24    25    1
    25    25    26    1
    26    24     3   ar
    27    22     7   ar
    28    21    10   ar
    29     1    27    1
    30     1    28    1
    31     1    29    1
    32     4    30    1
    33     5    31    1
    34     8    32    1
    35    11    33    1
    36    12    34    1
    37    16    35    1
    38    17    36    1
    39    18    37    1
    40    18    38    1
    41    18    39    1
    42    19    40    1
    43    19    41    1
    44    20    42    1
    45    23    43    1
    46    26    44    1
    47    26    45    1
    48    26    46    1
