@<TRIPOS>MOLECULE
*****
 62 64 0 0 0
SMALL
GASTEIGER

@<TRIPOS>ATOM
      1 C          -9.6822   -1.0845    3.0795 C.2     1  UNL1       -0.0938
      2 C          -9.8907   -0.3572    2.0219 C.2     1  UNL1       -0.0069
      3 C          -8.8134    0.0675    1.1760 C.2     1  UNL1        0.2366
      4 O          -9.0653    0.7719    0.1609 O.2     1  UNL1       -0.2709
      5 N          -7.4748   -0.2586    1.4133 N.am    1  UNL1       -0.3089
      6 C          -6.4350    0.2034    0.5182 C.3     1  UNL1        0.0258
      7 C          -5.3342    0.9443    1.2289 C.3     1  UNL1       -0.0200
      8 C          -4.3659    1.4358    0.1753 C.3     1  UNL1        0.0222
      9 N          -4.5786    0.7284   -1.0930 N.3     1  UNL1       -0.1765
     10 S          -3.4415    1.2658   -2.2467 S.O2    1  UNL1        0.0609
     11 O          -3.6689    2.7407   -2.4889 O.2     1  UNL1       -0.1528
     12 O          -3.7865    0.5847   -3.5642 O.2     1  UNL1       -0.1528
     13 C          -1.7976    0.9578   -1.7949 C.ar    1  UNL1        0.1055
     14 C          -1.0538    1.8635   -1.0718 C.ar    1  UNL1       -0.0346
     15 C           0.2718    1.5458   -0.7422 C.ar    1  UNL1       -0.0478
     16 C           0.8728    0.3788   -1.1008 C.ar    1  UNL1        0.0368
     17 C           2.2437   -0.0056   -0.7879 C.2     1  UNL1        0.2441
     18 O           2.7142   -1.1182   -1.1673 O.2     1  UNL1       -0.2702
     19 N           3.0697    0.8727   -0.0485 N.am    1  UNL1       -0.3110
     20 C           4.4394    0.4997    0.2674 C.3     1  UNL1        0.0159
     21 C           5.2858    0.2656   -0.9662 C.3     1  UNL1       -0.0120
     22 C           6.6408   -0.1023   -0.4676 C.ar    1  UNL1       -0.0457
     23 C           7.0060   -1.4074   -0.2197 C.ar    1  UNL1       -0.0551
     24 C           8.2880   -1.7098    0.2487 C.ar    1  UNL1       -0.0197
     25 C           9.2192   -0.7251    0.4758 C.ar    1  UNL1        0.1201
     26 O          10.4978   -0.9814    0.9388 O.3     1  UNL1       -0.4951
     27 C          10.9907   -2.2546    1.2275 C.3     1  UNL1        0.0788
     28 C           8.8526    0.5798    0.2275 C.ar    1  UNL1       -0.0197
     29 C           7.5710    0.8840   -0.2410 C.ar    1  UNL1       -0.0551
     30 C           0.1001   -0.5322   -1.8372 C.ar    1  UNL1       -0.0478
     31 C          -1.2029   -0.2313   -2.1668 C.ar    1  UNL1       -0.0346
     32 C          -4.5366   -0.6790   -0.8430 C.3     1  UNL1        0.0222
     33 C          -5.7912   -1.0528   -0.0827 C.3     1  UNL1       -0.0200
     34 H          -8.7115   -1.3949    3.3629 H       1  UNL1        0.0536
     35 H         -10.5024   -1.4042    3.7182 H       1  UNL1        0.0536
     36 H         -10.9139   -0.0649    1.7759 H       1  UNL1        0.0663
     37 H          -7.1617   -0.8344    2.2224 H       1  UNL1        0.1493
     38 H          -6.8246    0.8071   -0.3195 H       1  UNL1        0.0499
     39 H          -5.6997    1.8384    1.7680 H       1  UNL1        0.0296
     40 H          -4.7887    0.2367    1.8834 H       1  UNL1        0.0296
     41 H          -3.3036    1.3552    0.5028 H       1  UNL1        0.0444
     42 H          -4.5225    2.5120   -0.0606 H       1  UNL1        0.0444
     43 H          -1.4680    2.8098   -0.7541 H       1  UNL1        0.0637
     44 H           0.8343    2.2752   -0.1733 H       1  UNL1        0.0626
     45 H           2.7003    1.7950    0.2751 H       1  UNL1        0.1490
     46 H           4.9260    1.3396    0.8269 H       1  UNL1        0.0465
     47 H           4.4567   -0.3618    0.9445 H       1  UNL1        0.0465
     48 H           5.4131    1.2234   -1.5416 H       1  UNL1        0.0328
     49 H           4.8836   -0.4772   -1.6564 H       1  UNL1        0.0328
     50 H           6.2672   -2.1648   -0.4021 H       1  UNL1        0.0621
     51 H           8.5519   -2.7416    0.4361 H       1  UNL1        0.0654
     52 H          10.6927   -2.9849    0.4500 H       1  UNL1        0.0660
     53 H          10.6152   -2.5961    2.2049 H       1  UNL1        0.0660
     54 H          12.0988   -2.2375    1.2718 H       1  UNL1        0.0660
     55 H           9.5714    1.3838    0.3987 H       1  UNL1        0.0654
     56 H           7.2758    1.8946   -0.4372 H       1  UNL1        0.0621
     57 H           0.5607   -1.4742   -2.1357 H       1  UNL1        0.0626
     58 H          -1.8031   -0.9481   -2.7435 H       1  UNL1        0.0637
     59 H          -3.6790   -0.9875   -0.1998 H       1  UNL1        0.0444
     60 H          -4.4639   -1.2654   -1.7675 H       1  UNL1        0.0444
     61 H          -5.5971   -1.7908    0.7042 H       1  UNL1        0.0296
     62 H          -6.5524   -1.4673   -0.7836 H       1  UNL1        0.0296
@<TRIPOS>BOND
     1     1     2    2
     2     2     3    1
     3     3     4    2
     4     3     5   am
     5     5     6    1
     6     6     7    1
     7     7     8    1
     8     8     9    1
     9     9    10    1
    10    10    11    2
    11    10    12    2
    12    10    13    1
    13    13    14   ar
    14    14    15   ar
    15    15    16   ar
    16    16    17    1
    17    17    18    2
    18    17    19   am
    19    19    20    1
    20    20    21    1
    21    21    22    1
    22    22    23   ar
    23    23    24   ar
    24    24    25   ar
    25    25    26    1
    26    26    27    1
    27    25    28   ar
    28    28    29   ar
    29    16    30   ar
    30    30    31   ar
    31     9    32    1
    32    32    33    1
    33    33     6    1
    34    31    13   ar
    35    29    22   ar
    36     1    34    1
    37     1    35    1
    38     2    36    1
    39     5    37    1
    40     6    38    1
    41     7    39    1
    42     7    40    1
    43     8    41    1
    44     8    42    1
    45    14    43    1
    46    15    44    1
    47    19    45    1
    48    20    46    1
    49    20    47    1
    50    21    48    1
    51    21    49    1
    52    23    50    1
    53    24    51    1
    54    27    52    1
    55    27    53    1
    56    27    54    1
    57    28    55    1
    58    29    56    1
    59    30    57    1
    60    31    58    1
    61    32    59    1
    62    32    60    1
    63    33    61    1
    64    33    62    1
