
     RDKit          3D

 62 64  0  0  0  0  0  0  0  0999 V2000
   -9.6822   -1.0845    3.0795 C   0  0  0  0  0  0  0  0  0  0  0  0
   -9.8907   -0.3572    2.0219 C   0  0  0  0  0  0  0  0  0  0  0  0
   -8.8134    0.0675    1.1760 C   0  0  0  0  0  0  0  0  0  0  0  0
   -9.0653    0.7719    0.1609 O   0  0  0  0  0  0  0  0  0  0  0  0
   -7.4748   -0.2586    1.4133 N   0  0  0  0  0  0  0  0  0  0  0  0
   -6.4350    0.2034    0.5182 C   0  0  0  0  0  0  0  0  0  0  0  0
   -5.3342    0.9443    1.2289 C   0  0  0  0  0  0  0  0  0  0  0  0
   -4.3659    1.4358    0.1753 C   0  0  0  0  0  0  0  0  0  0  0  0
   -4.5786    0.7284   -1.0930 N   0  0  0  0  0  0  0  0  0  0  0  0
   -3.4415    1.2658   -2.2467 S   0  0  0  0  0  6  0  0  0  0  0  0
   -3.6689    2.7407   -2.4889 O   0  0  0  0  0  0  0  0  0  0  0  0
   -3.7865    0.5847   -3.5642 O   0  0  0  0  0  0  0  0  0  0  0  0
   -1.7976    0.9578   -1.7949 C   0  0  0  0  0  0  0  0  0  0  0  0
   -1.0538    1.8635   -1.0718 C   0  0  0  0  0  0  0  0  0  0  0  0
    0.2718    1.5458   -0.7422 C   0  0  0  0  0  0  0  0  0  0  0  0
    0.8728    0.3788   -1.1008 C   0  0  0  0  0  0  0  0  0  0  0  0
    2.2437   -0.0056   -0.7879 C   0  0  0  0  0  0  0  0  0  0  0  0
    2.7142   -1.1182   -1.1673 O   0  0  0  0  0  0  0  0  0  0  0  0
    3.0697    0.8727   -0.0485 N   0  0  0  0  0  0  0  0  0  0  0  0
    4.4394    0.4997    0.2674 C   0  0  0  0  0  0  0  0  0  0  0  0
    5.2858    0.2656   -0.9662 C   0  0  0  0  0  0  0  0  0  0  0  0
    6.6408   -0.1023   -0.4676 C   0  0  0  0  0  0  0  0  0  0  0  0
    7.0060   -1.4074   -0.2197 C   0  0  0  0  0  0  0  0  0  0  0  0
    8.2880   -1.7098    0.2487 C   0  0  0  0  0  0  0  0  0  0  0  0
    9.2192   -0.7251    0.4758 C   0  0  0  0  0  0  0  0  0  0  0  0
   10.4978   -0.9814    0.9388 O   0  0  0  0  0  0  0  0  0  0  0  0
   10.9907   -2.2546    1.2275 C   0  0  0  0  0  0  0  0  0  0  0  0
    8.8526    0.5798    0.2275 C   0  0  0  0  0  0  0  0  0  0  0  0
    7.5710    0.8840   -0.2410 C   0  0  0  0  0  0  0  0  0  0  0  0
    0.1001   -0.5322   -1.8372 C   0  0  0  0  0  0  0  0  0  0  0  0
   -1.2029   -0.2313   -2.1668 C   0  0  0  0  0  0  0  0  0  0  0  0
   -4.5366   -0.6790   -0.8430 C   0  0  0  0  0  0  0  0  0  0  0  0
   -5.7912   -1.0528   -0.0827 C   0  0  0  0  0  0  0  0  0  0  0  0
   -8.7115   -1.3949    3.3629 H   0  0  0  0  0  0  0  0  0  0  0  0
  -10.5024   -1.4042    3.7182 H   0  0  0  0  0  0  0  0  0  0  0  0
  -10.9139   -0.0649    1.7759 H   0  0  0  0  0  0  0  0  0  0  0  0
   -7.1617   -0.8344    2.2224 H   0  0  0  0  0  0  0  0  0  0  0  0
   -6.8246    0.8071   -0.3195 H   0  0  0  0  0  0  0  0  0  0  0  0
   -5.6997    1.8384    1.7680 H   0  0  0  0  0  0  0  0  0  0  0  0
   -4.7887    0.2367    1.8834 H   0  0  0  0  0  0  0  0  0  0  0  0
   -3.3036    1.3552    0.5028 H   0  0  0  0  0  0  0  0  0  0  0  0
   -4.5225    2.5120   -0.0606 H   0  0  0  0  0  0  0  0  0  0  0  0
   -1.4680    2.8098   -0.7541 H   0  0  0  0  0  0  0  0  0  0  0  0
    0.8343    2.2752   -0.1733 H   0  0  0  0  0  0  0  0  0  0  0  0
    2.7003    1.7950    0.2751 H   0  0  0  0  0  0  0  0  0  0  0  0
    4.9260    1.3396    0.8269 H   0  0  0  0  0  0  0  0  0  0  0  0
    4.4567   -0.3618    0.9445 H   0  0  0  0  0  0  0  0  0  0  0  0
    5.4131    1.2234   -1.5416 H   0  0  0  0  0  0  0  0  0  0  0  0
    4.8836   -0.4772   -1.6564 H   0  0  0  0  0  0  0  0  0  0  0  0
    6.2672   -2.1648   -0.4021 H   0  0  0  0  0  0  0  0  0  0  0  0
    8.5519   -2.7416    0.4361 H   0  0  0  0  0  0  0  0  0  0  0  0
   10.6927   -2.9849    0.4500 H   0  0  0  0  0  0  0  0  0  0  0  0
   10.6152   -2.5961    2.2049 H   0  0  0  0  0  0  0  0  0  0  0  0
   12.0988   -2.2375    1.2718 H   0  0  0  0  0  0  0  0  0  0  0  0
    9.5714    1.3838    0.3987 H   0  0  0  0  0  0  0  0  0  0  0  0
    7.2758    1.8946   -0.4372 H   0  0  0  0  0  0  0  0  0  0  0  0
    0.5607   -1.4742   -2.1357 H   0  0  0  0  0  0  0  0  0  0  0  0
   -1.8031   -0.9481   -2.7435 H   0  0  0  0  0  0  0  0  0  0  0  0
   -3.6790   -0.9875   -0.1998 H   0  0  0  0  0  0  0  0  0  0  0  0
   -4.4639   -1.2654   -1.7675 H   0  0  0  0  0  0  0  0  0  0  0  0
   -5.5971   -1.7908    0.7042 H   0  0  0  0  0  0  0  0  0  0  0  0
   -6.5524   -1.4673   -0.7836 H   0  0  0  0  0  0  0  0  0  0  0  0
  1  2  2  3
  2  3  1  0
  3  4  2  0
  3  5  1  0
  5  6  1  0
  6  7  1  0
  7  8  1  0
  8  9  1  0
  9 10  1  0
 10 11  2  0
 10 12  2  0
 10 13  1  0
 13 14  2  0
 14 15  1  0
 15 16  2  0
 16 17  1  0
 17 18  2  0
 17 19  1  0
 19 20  1  0
 20 21  1  0
 21 22  1  0
 22 23  2  0
 23 24  1  0
 24 25  2  0
 25 26  1  0
 26 27  1  0
 25 28  1  0
 28 29  2  0
 16 30  1  0
 30 31  2  0
  9 32  1  0
 32 33  1  0
 33  6  1  0
 31 13  1  0
 29 22  1  0
  1 34  1  0
  1 35  1  0
  2 36  1  0
  5 37  1  0
  6 38  1  0
  7 39  1  0
  7 40  1  0
  8 41  1  0
  8 42  1  0
 14 43  1  0
 15 44  1  0
 19 45  1  0
 20 46  1  0
 20 47  1  0
 21 48  1  0
 21 49  1  0
 23 50  1  0
 24 51  1  0
 27 52  1  0
 27 53  1  0
 27 54  1  0
 28 55  1  0
 29 56  1  0
 30 57  1  0
 31 58  1  0
 32 59  1  0
 32 60  1  0
 33 61  1  0
 33 62  1  0
M  END
$$$$
