@<TRIPOS>MOLECULE
*****
 44 47 0 0 0
SMALL
GASTEIGER

@<TRIPOS>ATOM
      1 O          -2.1906   -1.6618   -2.3221 O.2     1  UNL1       -0.2443
      2 C          -2.2996   -1.7831   -1.0820 C.2     1  UNL1        0.3477
      3 O          -3.5080   -2.1071   -0.5350 O.3     1  UNL1       -0.4560
      4 C          -4.7153   -2.3374   -1.1874 C.3     1  UNL1        0.1179
      5 C          -5.2091   -1.1629   -1.9826 C.ar    1  UNL1       -0.0103
      6 C          -5.9528   -0.1734   -1.3495 C.ar    1  UNL1       -0.0554
      7 C          -6.4477    0.9202   -2.0149 C.ar    1  UNL1       -0.0614
      8 C          -6.1916    1.0347   -3.3705 C.ar    1  UNL1       -0.0617
      9 C          -5.4585    0.0699   -4.0220 C.ar    1  UNL1       -0.0614
     10 C          -4.9637   -1.0342   -3.3308 C.ar    1  UNL1       -0.0554
     11 C          -1.1728   -1.5834   -0.2672 C.ar    1  UNL1        0.1146
     12 C           0.1236   -1.2676   -0.4418 C.ar    1  UNL1        0.0358
     13 N           0.9615   -1.1495    0.5561 N.ar    1  UNL1       -0.2618
     14 C           2.3117   -0.8299    0.4881 C.ar    1  UNL1        0.3371
     15 O           2.8560   -0.6188   -0.6443 O.2     1  UNL1       -0.2458
     16 N           3.0889   -0.7318    1.5646 N.ar    1  UNL1       -0.2561
     17 C           4.5127   -0.3746    1.3489 C.3     1  UNL1        0.0560
     18 C           4.7599    1.0773    1.4038 C.ar    1  UNL1       -0.0275
     19 C           4.6381    1.9260    0.3377 C.ar    1  UNL1       -0.0569
     20 C           4.9033    3.2882    0.4930 C.ar    1  UNL1       -0.0614
     21 C           5.2832    3.7973    1.6858 C.ar    1  UNL1       -0.0617
     22 C           5.4147    2.9825    2.7651 C.ar    1  UNL1       -0.0614
     23 C           5.1509    1.6379    2.6035 C.ar    1  UNL1       -0.0569
     24 C           2.6567   -0.9304    2.8170 C.ar    1  UNL1        0.2579
     25 O           3.3931   -0.8380    3.8068 O.2     1  UNL1       -0.2675
     26 C           1.3168   -1.2518    2.9393 C.ar    1  UNL1        0.0339
     27 C           0.5368   -1.3451    1.8045 C.ar    1  UNL1        0.0945
     28 S          -1.2110   -1.7358    1.5884 S.2     1  UNL1       -0.0625
     29 H          -5.4808   -2.6254   -0.4571 H       1  UNL1        0.0749
     30 H          -4.5597   -3.2207   -1.8742 H       1  UNL1        0.0749
     31 H          -6.1239   -0.3168   -0.2770 H       1  UNL1        0.0621
     32 H          -7.0306    1.6827   -1.4860 H       1  UNL1        0.0618
     33 H          -6.5642    1.8771   -3.9183 H       1  UNL1        0.0618
     34 H          -5.2667    0.1769   -5.0899 H       1  UNL1        0.0618
     35 H          -4.3949   -1.7894   -3.8662 H       1  UNL1        0.0621
     36 H           0.4456   -1.1083   -1.5315 H       1  UNL1        0.0828
     37 H           4.8422   -0.7791    0.3574 H       1  UNL1        0.0544
     38 H           5.0887   -0.9494    2.1017 H       1  UNL1        0.0544
     39 H           4.3445    1.5604   -0.6426 H       1  UNL1        0.0621
     40 H           4.7925    3.9275   -0.3857 H       1  UNL1        0.0618
     41 H           5.4965    4.8579    1.8351 H       1  UNL1        0.0618
     42 H           5.7125    3.3248    3.7379 H       1  UNL1        0.0618
     43 H           5.2680    1.0001    3.4511 H       1  UNL1        0.0621
     44 H           0.8428   -1.4357    3.8852 H       1  UNL1        0.0698
@<TRIPOS>BOND
     1     1     2    2
     2     2     3    1
     3     3     4    1
     4     4     5    1
     5     5     6   ar
     6     6     7   ar
     7     7     8   ar
     8     8     9   ar
     9     9    10   ar
    10     2    11    1
    11    11    12   ar
    12    12    13   ar
    13    13    14   ar
    14    14    15    2
    15    14    16   ar
    16    16    17    1
    17    17    18    1
    18    18    19   ar
    19    19    20   ar
    20    20    21   ar
    21    21    22   ar
    22    22    23   ar
    23    16    24   ar
    24    24    25    2
    25    24    26   ar
    26    26    27   ar
    27    27    28   ar
    28    10     5   ar
    29    28    11   ar
    30    27    13   ar
    31    23    18   ar
    32     4    29    1
    33     4    30    1
    34     6    31    1
    35     7    32    1
    36     8    33    1
    37     9    34    1
    38    10    35    1
    39    12    36    1
    40    17    37    1
    41    17    38    1
    42    19    39    1
    43    20    40    1
    44    21    41    1
    45    22    42    1
    46    23    43    1
    47    26    44    1
