
     RDKit          3D

 44 47  0  0  0  0  0  0  0  0999 V2000
   -2.1906   -1.6618   -2.3221 O   0  0  0  0  0  0  0  0  0  0  0  0
   -2.2996   -1.7831   -1.0820 C   0  0  0  0  0  0  0  0  0  0  0  0
   -3.5080   -2.1071   -0.5350 O   0  0  0  0  0  0  0  0  0  0  0  0
   -4.7153   -2.3374   -1.1874 C   0  0  0  0  0  0  0  0  0  0  0  0
   -5.2091   -1.1629   -1.9826 C   0  0  0  0  0  0  0  0  0  0  0  0
   -5.9528   -0.1734   -1.3495 C   0  0  0  0  0  0  0  0  0  0  0  0
   -6.4477    0.9202   -2.0149 C   0  0  0  0  0  0  0  0  0  0  0  0
   -6.1916    1.0347   -3.3705 C   0  0  0  0  0  0  0  0  0  0  0  0
   -5.4585    0.0699   -4.0220 C   0  0  0  0  0  0  0  0  0  0  0  0
   -4.9637   -1.0342   -3.3308 C   0  0  0  0  0  0  0  0  0  0  0  0
   -1.1728   -1.5834   -0.2672 C   0  0  0  0  0  0  0  0  0  0  0  0
    0.1236   -1.2676   -0.4418 C   0  0  0  0  0  0  0  0  0  0  0  0
    0.9615   -1.1495    0.5561 N   0  0  0  0  0  0  0  0  0  0  0  0
    2.3117   -0.8299    0.4881 C   0  0  0  0  0  0  0  0  0  0  0  0
    2.8560   -0.6188   -0.6443 O   0  0  0  0  0  0  0  0  0  0  0  0
    3.0889   -0.7318    1.5646 N   0  0  0  0  0  0  0  0  0  0  0  0
    4.5127   -0.3746    1.3489 C   0  0  0  0  0  0  0  0  0  0  0  0
    4.7599    1.0773    1.4038 C   0  0  0  0  0  0  0  0  0  0  0  0
    4.6381    1.9260    0.3377 C   0  0  0  0  0  0  0  0  0  0  0  0
    4.9033    3.2882    0.4930 C   0  0  0  0  0  0  0  0  0  0  0  0
    5.2832    3.7973    1.6858 C   0  0  0  0  0  0  0  0  0  0  0  0
    5.4147    2.9825    2.7651 C   0  0  0  0  0  0  0  0  0  0  0  0
    5.1509    1.6379    2.6035 C   0  0  0  0  0  0  0  0  0  0  0  0
    2.6567   -0.9304    2.8170 C   0  0  0  0  0  0  0  0  0  0  0  0
    3.3931   -0.8380    3.8068 O   0  0  0  0  0  0  0  0  0  0  0  0
    1.3168   -1.2518    2.9393 C   0  0  0  0  0  0  0  0  0  0  0  0
    0.5368   -1.3451    1.8045 C   0  0  0  0  0  0  0  0  0  0  0  0
   -1.2110   -1.7358    1.5884 S   0  0  0  0  0  0  0  0  0  0  0  0
   -5.4808   -2.6254   -0.4571 H   0  0  0  0  0  0  0  0  0  0  0  0
   -4.5597   -3.2207   -1.8742 H   0  0  0  0  0  0  0  0  0  0  0  0
   -6.1239   -0.3168   -0.2770 H   0  0  0  0  0  0  0  0  0  0  0  0
   -7.0306    1.6827   -1.4860 H   0  0  0  0  0  0  0  0  0  0  0  0
   -6.5642    1.8771   -3.9183 H   0  0  0  0  0  0  0  0  0  0  0  0
   -5.2667    0.1769   -5.0899 H   0  0  0  0  0  0  0  0  0  0  0  0
   -4.3949   -1.7894   -3.8662 H   0  0  0  0  0  0  0  0  0  0  0  0
    0.4456   -1.1083   -1.5315 H   0  0  0  0  0  0  0  0  0  0  0  0
    4.8422   -0.7791    0.3574 H   0  0  0  0  0  0  0  0  0  0  0  0
    5.0887   -0.9494    2.1017 H   0  0  0  0  0  0  0  0  0  0  0  0
    4.3445    1.5604   -0.6426 H   0  0  0  0  0  0  0  0  0  0  0  0
    4.7925    3.9275   -0.3857 H   0  0  0  0  0  0  0  0  0  0  0  0
    5.4965    4.8579    1.8351 H   0  0  0  0  0  0  0  0  0  0  0  0
    5.7125    3.3248    3.7379 H   0  0  0  0  0  0  0  0  0  0  0  0
    5.2680    1.0001    3.4511 H   0  0  0  0  0  0  0  0  0  0  0  0
    0.8428   -1.4357    3.8852 H   0  0  0  0  0  0  0  0  0  0  0  0
  1  2  2  0
  2  3  1  0
  3  4  1  0
  4  5  1  0
  5  6  2  0
  6  7  1  0
  7  8  2  0
  8  9  1  0
  9 10  2  0
  2 11  1  0
 11 12  2  0
 12 13  1  0
 13 14  1  0
 14 15  2  0
 14 16  1  0
 16 17  1  0
 17 18  1  0
 18 19  2  0
 19 20  1  0
 20 21  2  0
 21 22  1  0
 22 23  2  0
 16 24  1  0
 24 25  2  0
 24 26  1  0
 26 27  2  0
 27 28  1  0
 10  5  1  0
 28 11  1  0
 27 13  1  0
 23 18  1  0
  4 29  1  0
  4 30  1  0
  6 31  1  0
  7 32  1  0
  8 33  1  0
  9 34  1  0
 10 35  1  0
 12 36  1  0
 17 37  1  0
 17 38  1  0
 19 39  1  0
 20 40  1  0
 21 41  1  0
 22 42  1  0
 23 43  1  0
 26 44  1  0
M  END
$$$$
