
     RDKit          3D

 51 55  0  0  0  0  0  0  0  0999 V2000
    8.2188   -1.4758   -0.0649 C   0  0  0  0  0  0  0  0  0  0  0  0
    6.8535   -0.8409   -0.1208 C   0  0  0  0  0  0  0  0  0  0  0  0
    6.2203   -0.1419    0.8847 C   0  0  0  0  0  0  0  0  0  0  0  0
    4.9880    0.2687    0.4200 C   0  0  0  0  0  0  0  0  0  0  0  0
    3.9648    0.9802    0.9789 N   0  0  0  0  0  0  0  0  0  0  0  0
    2.8342    1.2639    0.3154 C   0  0  0  0  0  0  0  0  0  0  0  0
    2.7145    0.8122   -0.9833 C   0  0  0  0  0  0  0  0  0  0  0  0
    3.7482    0.1032   -1.5230 C   0  0  0  0  0  0  0  0  0  0  0  0
    4.8944   -0.1820   -0.8439 N   0  0  0  0  0  0  0  0  0  0  0  0
    5.9996   -0.8371   -1.1585 N   0  0  0  0  0  0  0  0  0  0  0  0
    1.3991    1.2398   -1.5079 C   0  0  0  0  0  0  0  0  0  0  0  0
    0.7313    1.8858   -0.4338 N   0  0  0  0  0  0  0  0  0  0  0  0
   -0.5542    1.3752   -0.1030 C   0  0  2  0  0  0  0  0  0  0  0  0
   -0.5794   -0.0654    0.3028 C   0  0  0  0  0  0  0  0  0  0  0  0
   -1.8162   -0.2520    1.1528 C   0  0  0  0  0  0  0  0  0  0  0  0
   -2.9980    0.2218    0.3348 C   0  0  2  0  0  0  0  0  0  0  0  0
   -4.1018   -0.6843    0.5800 C   0  0  0  0  0  0  0  0  0  0  0  0
   -4.9678   -0.3764    1.6336 C   0  0  0  0  0  0  0  0  0  0  0  0
   -6.0463   -1.1502    1.9684 C   0  0  0  0  0  0  0  0  0  0  0  0
   -6.8770   -0.8368    2.9946 F   0  0  0  0  0  0  0  0  0  0  0  0
   -6.3001   -2.2854    1.2420 C   0  0  0  0  0  0  0  0  0  0  0  0
   -5.4731   -2.6173    0.2038 C   0  0  0  0  0  0  0  0  0  0  0  0
   -4.4010   -1.8324   -0.1156 C   0  0  0  0  0  0  0  0  0  0  0  0
   -3.5936   -2.1640   -1.1329 F   0  0  0  0  0  0  0  0  0  0  0  0
   -2.6661    0.4774   -1.1107 C   0  0  1  0  0  0  0  0  0  0  0  0
   -3.8287    1.0892   -1.7217 N   0  0  0  0  0  0  0  0  0  0  0  0
   -1.5703    1.5508   -1.2072 C   0  0  0  0  0  0  0  0  0  0  0  0
    1.6039    2.0016    0.6875 C   0  0  0  0  0  0  0  0  0  0  0  0
    8.9583   -0.8453   -0.5944 H   0  0  0  0  0  0  0  0  0  0  0  0
    8.1316   -2.4222   -0.6545 H   0  0  0  0  0  0  0  0  0  0  0  0
    8.5339   -1.6401    0.9672 H   0  0  0  0  0  0  0  0  0  0  0  0
    6.6143    0.0578    1.8774 H   0  0  0  0  0  0  0  0  0  0  0  0
    3.7187   -0.2813   -2.5394 H   0  0  0  0  0  0  0  0  0  0  0  0
    1.5491    1.9892   -2.3300 H   0  0  0  0  0  0  0  0  0  0  0  0
    0.8338    0.4019   -1.9611 H   0  0  0  0  0  0  0  0  0  0  0  0
   -0.9370    1.9670    0.7665 H   0  0  0  0  0  0  0  0  0  0  0  0
    0.2925   -0.2639    0.9620 H   0  0  0  0  0  0  0  0  0  0  0  0
   -0.6464   -0.7786   -0.5354 H   0  0  0  0  0  0  0  0  0  0  0  0
   -1.8996   -1.3273    1.4174 H   0  0  0  0  0  0  0  0  0  0  0  0
   -1.7158    0.3156    2.1214 H   0  0  0  0  0  0  0  0  0  0  0  0
   -3.2543    1.2351    0.7715 H   0  0  0  0  0  0  0  0  0  0  0  0
   -4.7959    0.5247    2.2373 H   0  0  0  0  0  0  0  0  0  0  0  0
   -7.1599   -2.9374    1.4790 H   0  0  0  0  0  0  0  0  0  0  0  0
   -5.6390   -3.5106   -0.3987 H   0  0  0  0  0  0  0  0  0  0  0  0
   -2.2874   -0.3828   -1.6634 H   0  0  0  0  0  0  0  0  0  0  0  0
   -3.9093    0.8878   -2.7364 H   0  0  0  0  0  0  0  0  0  0  0  0
   -4.6870    0.9969   -1.1791 H   0  0  0  0  0  0  0  0  0  0  0  0
   -2.0135    2.5499   -1.2234 H   0  0  0  0  0  0  0  0  0  0  0  0
   -1.0412    1.3933   -2.1666 H   0  0  0  0  0  0  0  0  0  0  0  0
    1.8183    3.0497    0.9821 H   0  0  0  0  0  0  0  0  0  0  0  0
    1.1390    1.4927    1.5563 H   0  0  0  0  0  0  0  0  0  0  0  0
  1  2  1  0
  2  3  1  0
  3  4  2  0
  4  5  1  0
  5  6  2  0
  6  7  1  0
  7  8  2  0
  8  9  1  0
  9 10  1  0
  7 11  1  0
 11 12  1  0
 12 13  1  0
 13 14  1  0
 14 15  1  0
 15 16  1  0
 16 17  1  0
 17 18  2  0
 18 19  1  0
 19 20  1  0
 19 21  2  0
 21 22  1  0
 22 23  2  0
 23 24  1  0
 16 25  1  0
 25 26  1  0
 25 27  1  0
 12 28  1  0
 10  2  2  0
 27 13  1  0
  9  4  1  0
 23 17  1  0
 28  6  1  0
  1 29  1  0
  1 30  1  0
  1 31  1  0
  3 32  1  0
  8 33  1  0
 11 34  1  0
 11 35  1  0
 13 36  1  1
 14 37  1  0
 14 38  1  0
 15 39  1  0
 15 40  1  0
 16 41  1  1
 18 42  1  0
 21 43  1  0
 22 44  1  0
 25 45  1  6
 26 46  1  0
 26 47  1  0
 27 48  1  0
 27 49  1  0
 28 50  1  0
 28 51  1  0
M  END
$$$$
