@<TRIPOS>MOLECULE
*****
 51 55 0 0 0
SMALL
GASTEIGER

@<TRIPOS>ATOM
      1 C           8.2188   -1.4758   -0.0649 C.3     1  UNL1       -0.0205
      2 C           6.8535   -0.8409   -0.1208 C.ar    1  UNL1        0.0625
      3 C           6.2203   -0.1419    0.8847 C.ar    1  UNL1        0.0052
      4 C           4.9880    0.2687    0.4200 C.ar    1  UNL1        0.1560
      5 N           3.9648    0.9802    0.9789 N.ar    1  UNL1       -0.2311
      6 C           2.8342    1.2639    0.3154 C.ar    1  UNL1        0.0635
      7 C           2.7145    0.8122   -0.9833 C.ar    1  UNL1        0.0074
      8 C           3.7482    0.1032   -1.5230 C.ar    1  UNL1        0.0376
      9 N           4.8944   -0.1820   -0.8439 N.ar    1  UNL1       -0.2212
     10 N           5.9996   -0.8371   -1.1585 N.ar    1  UNL1       -0.1702
     11 C           1.3991    1.2398   -1.5079 C.3     1  UNL1        0.0279
     12 N           0.7313    1.8858   -0.4338 N.3     1  UNL1       -0.2894
     13 C          -0.5542    1.3752   -0.1030 C.3     1  UNL1        0.0126
     14 C          -0.5794   -0.0654    0.3028 C.3     1  UNL1       -0.0367
     15 C          -1.8162   -0.2520    1.1528 C.3     1  UNL1       -0.0433
     16 C          -2.9980    0.2218    0.3348 C.3     1  UNL1        0.0022
     17 C          -4.1018   -0.6843    0.5800 C.ar    1  UNL1       -0.0049
     18 C          -4.9678   -0.3764    1.6336 C.ar    1  UNL1       -0.0202
     19 C          -6.0463   -1.1502    1.9684 C.ar    1  UNL1        0.1238
     20 F          -6.8770   -0.8368    2.9946 F       1  UNL1       -0.2055
     21 C          -6.3001   -2.2854    1.2420 C.ar    1  UNL1       -0.0237
     22 C          -5.4731   -2.6173    0.2038 C.ar    1  UNL1       -0.0235
     23 C          -4.4010   -1.8324   -0.1156 C.ar    1  UNL1        0.1270
     24 F          -3.5936   -2.1640   -1.1329 F       1  UNL1       -0.2052
     25 C          -2.6661    0.4774   -1.1107 C.3     1  UNL1        0.0132
     26 N          -3.8287    1.0892   -1.7217 N.3     1  UNL1       -0.3266
     27 C          -1.5703    1.5508   -1.2072 C.3     1  UNL1       -0.0215
     28 C           1.6039    2.0016    0.6875 C.3     1  UNL1        0.0422
     29 H           8.9583   -0.8453   -0.5944 H       1  UNL1        0.0293
     30 H           8.1316   -2.4222   -0.6545 H       1  UNL1        0.0293
     31 H           8.5339   -1.6401    0.9672 H       1  UNL1        0.0293
     32 H           6.6143    0.0578    1.8774 H       1  UNL1        0.0673
     33 H           3.7187   -0.2813   -2.5394 H       1  UNL1        0.0834
     34 H           1.5491    1.9892   -2.3300 H       1  UNL1        0.0477
     35 H           0.8338    0.4019   -1.9611 H       1  UNL1        0.0477
     36 H          -0.9370    1.9670    0.7665 H       1  UNL1        0.0463
     37 H           0.2925   -0.2639    0.9620 H       1  UNL1        0.0280
     38 H          -0.6464   -0.7786   -0.5354 H       1  UNL1        0.0280
     39 H          -1.8996   -1.3273    1.4174 H       1  UNL1        0.0272
     40 H          -1.7158    0.3156    2.1214 H       1  UNL1        0.0272
     41 H          -3.2543    1.2351    0.7715 H       1  UNL1        0.0365
     42 H          -4.7959    0.5247    2.2373 H       1  UNL1        0.0650
     43 H          -7.1599   -2.9374    1.4790 H       1  UNL1        0.0647
     44 H          -5.6390   -3.5106   -0.3987 H       1  UNL1        0.0647
     45 H          -2.2874   -0.3828   -1.6634 H       1  UNL1        0.0465
     46 H          -3.9093    0.8878   -2.7364 H       1  UNL1        0.1185
     47 H          -4.6870    0.9969   -1.1791 H       1  UNL1        0.1185
     48 H          -2.0135    2.5499   -1.2234 H       1  UNL1        0.0295
     49 H          -1.0412    1.3933   -2.1666 H       1  UNL1        0.0295
     50 H           1.8183    3.0497    0.9821 H       1  UNL1        0.0491
     51 H           1.1390    1.4927    1.5563 H       1  UNL1        0.0491
@<TRIPOS>BOND
     1     1     2    1
     2     2     3   ar
     3     3     4   ar
     4     4     5   ar
     5     5     6   ar
     6     6     7   ar
     7     7     8   ar
     8     8     9   ar
     9     9    10   ar
    10     7    11    1
    11    11    12    1
    12    12    13    1
    13    13    14    1
    14    14    15    1
    15    15    16    1
    16    16    17    1
    17    17    18   ar
    18    18    19   ar
    19    19    20    1
    20    19    21   ar
    21    21    22   ar
    22    22    23   ar
    23    23    24    1
    24    16    25    1
    25    25    26    1
    26    25    27    1
    27    12    28    1
    28    10     2   ar
    29    27    13    1
    30     9     4   ar
    31    23    17   ar
    32    28     6    1
    33     1    29    1
    34     1    30    1
    35     1    31    1
    36     3    32    1
    37     8    33    1
    38    11    34    1
    39    11    35    1
    40    13    36    1
    41    14    37    1
    42    14    38    1
    43    15    39    1
    44    15    40    1
    45    16    41    1
    46    18    42    1
    47    21    43    1
    48    22    44    1
    49    25    45    1
    50    26    46    1
    51    26    47    1
    52    27    48    1
    53    27    49    1
    54    28    50    1
    55    28    51    1
