@<TRIPOS>MOLECULE
*****
 79 83 0 0 0
SMALL
GASTEIGER

@<TRIPOS>ATOM
      1 C           5.3794    0.7547    3.0093 C.3     1  UNL1       -0.0345
      2 C           4.4637    0.1722    1.9358 C.3     1  UNL1        0.0813
      3 O           3.2874    0.9209    1.8827 O.3     1  UNL1       -0.3668
      4 C           2.2251    0.0939    2.1419 C.3     1  UNL1        0.0836
      5 C           1.3987    0.5231    3.3210 C.3     1  UNL1        0.0422
      6 N           0.0128    0.4629    2.9065 N.am    1  UNL1       -0.2915
      7 C          -1.1203    1.1166    3.4159 C.2     1  UNL1        0.2400
      8 O          -1.1459    1.8074    4.4588 O.2     1  UNL1       -0.2706
      9 C          -2.3760    0.9798    2.6660 C.2     1  UNL1        0.0038
     10 C          -2.4123    0.2656    1.5600 C.2     1  UNL1       -0.0377
     11 C          -3.6883    0.1508    0.8348 C.2     1  UNL1       -0.0455
     12 C          -3.7145   -0.5840   -0.2935 C.2     1  UNL1       -0.0666
     13 C          -5.0111   -0.6751   -0.9910 C.3     1  UNL1        0.0181
     14 N          -5.6386    0.6142   -1.1628 N.3     1  UNL1       -0.2935
     15 C          -6.9796    0.4239   -1.6298 C.3     1  UNL1        0.0138
     16 C          -7.8433   -0.3683   -0.6661 C.3     1  UNL1       -0.0471
     17 C          -7.6561    1.7026   -2.0461 C.3     1  UNL1       -0.0471
     18 C          -6.8836   -0.4564   -2.8850 C.3     1  UNL1       -0.0471
     19 C          -5.4995    1.4752   -0.0359 C.3     1  UNL1        0.0037
     20 C          -4.9566    0.7635    1.2126 C.3     1  UNL1       -0.0148
     21 C          -1.2361   -0.4373    0.9888 C.3     1  UNL1       -0.0079
     22 C          -0.0134   -0.4511    1.7948 C.3     1  UNL1        0.0395
     23 C           1.2215    0.0369    1.0246 C.3     1  UNL1        0.0308
     24 C           1.5908   -0.8679   -0.0590 C.ar    1  UNL1       -0.0398
     25 C           1.8489   -2.1867    0.1248 C.ar    1  UNL1       -0.0555
     26 C           2.1932   -2.9873   -0.9438 C.ar    1  UNL1       -0.0262
     27 C           2.2858   -2.4729   -2.2316 C.ar    1  UNL1        0.1234
     28 F           2.6274   -3.3060   -3.2411 F       1  UNL1       -0.2055
     29 C           2.0279   -1.1420   -2.4332 C.ar    1  UNL1       -0.0262
     30 C           1.6843   -0.3527   -1.3542 C.ar    1  UNL1       -0.0555
     31 C           5.2131    0.2113    0.6755 C.ar    1  UNL1       -0.0181
     32 C           5.7379   -0.9371    0.1442 C.ar    1  UNL1       -0.0445
     33 C           6.4558   -0.9165   -1.0587 C.ar    1  UNL1        0.0557
     34 C           7.0147   -2.1669   -1.6163 C.3     1  UNL1        0.4174
     35 F           7.0287   -3.1750   -0.6725 F       1  UNL1       -0.1659
     36 F           8.3091   -1.9732   -2.0486 F       1  UNL1       -0.1659
     37 F           6.2383   -2.5598   -2.7007 F       1  UNL1       -0.1659
     38 C           6.6380    0.2859   -1.7220 C.ar    1  UNL1       -0.0385
     39 C           6.1126    1.4420   -1.1918 C.ar    1  UNL1        0.0557
     40 C           6.3231    2.7117   -1.9214 C.3     1  UNL1        0.4174
     41 F           6.6343    2.4502   -3.2380 F       1  UNL1       -0.1659
     42 F           7.3619    3.3782   -1.3151 F       1  UNL1       -0.1659
     43 F           5.1492    3.4692   -1.8944 F       1  UNL1       -0.1659
     44 C           5.3979    1.3982    0.0126 C.ar    1  UNL1       -0.0445
     45 H           6.4505    0.6252    2.7236 H       1  UNL1        0.0258
     46 H           5.2355    0.2981    3.9877 H       1  UNL1        0.0258
     47 H           5.2117    1.8605    3.0048 H       1  UNL1        0.0258
     48 H           4.2130   -0.8924    2.1749 H       1  UNL1        0.0643
     49 H           2.5456   -0.9662    2.3353 H       1  UNL1        0.0618
     50 H           1.4876   -0.2044    4.1765 H       1  UNL1        0.0490
     51 H           1.7033    1.5222    3.6777 H       1  UNL1        0.0490
     52 H          -3.2770    1.4759    3.0398 H       1  UNL1        0.0672
     53 H          -2.8569   -1.0887   -0.6915 H       1  UNL1        0.0588
     54 H          -5.6620   -1.3402   -0.3628 H       1  UNL1        0.0470
     55 H          -4.8626   -1.1006   -2.0048 H       1  UNL1        0.0470
     56 H          -7.6599   -1.4473   -0.8152 H       1  UNL1        0.0247
     57 H          -8.9022   -0.2002   -1.0167 H       1  UNL1        0.0247
     58 H          -7.7882   -0.0236    0.3639 H       1  UNL1        0.0247
     59 H          -8.6973    1.7197   -1.6642 H       1  UNL1        0.0247
     60 H          -7.1039    2.6080   -1.7158 H       1  UNL1        0.0247
     61 H          -7.7483    1.7891   -3.1636 H       1  UNL1        0.0247
     62 H          -7.7858   -0.3653   -3.4989 H       1  UNL1        0.0247
     63 H          -6.0167   -0.1644   -3.4827 H       1  UNL1        0.0247
     64 H          -6.7955   -1.5278   -2.5359 H       1  UNL1        0.0247
     65 H          -6.4267    2.0313    0.2189 H       1  UNL1        0.0430
     66 H          -4.7423    2.2560   -0.2800 H       1  UNL1        0.0430
     67 H          -4.9109    1.5159    1.9937 H       1  UNL1        0.0326
     68 H          -5.6794   -0.0349    1.5056 H       1  UNL1        0.0326
     69 H          -1.0014   -0.0777   -0.0493 H       1  UNL1        0.0331
     70 H          -1.5734   -1.5043    0.8340 H       1  UNL1        0.0331
     71 H           0.2747   -1.4608    2.1869 H       1  UNL1        0.0510
     72 H           1.0572    1.0696    0.6643 H       1  UNL1        0.0393
     73 H           1.7938   -2.6416    1.0996 H       1  UNL1        0.0621
     74 H           2.3915   -4.0341   -0.7598 H       1  UNL1        0.0646
     75 H           2.0912   -0.7022   -3.4344 H       1  UNL1        0.0646
     76 H           1.4915    0.6933   -1.5737 H       1  UNL1        0.0621
     77 H           5.6356   -1.9129    0.6055 H       1  UNL1        0.0627
     78 H           7.2045    0.2809   -2.6641 H       1  UNL1        0.0629
     79 H           5.0169    2.3496    0.3625 H       1  UNL1        0.0627
@<TRIPOS>BOND
     1     1     2    1
     2     2     3    1
     3     3     4    1
     4     4     5    1
     5     5     6    1
     6     6     7   am
     7     7     8    2
     8     7     9    1
     9     9    10    2
    10    10    11    1
    11    11    12    2
    12    12    13    1
    13    13    14    1
    14    14    15    1
    15    15    16    1
    16    15    17    1
    17    15    18    1
    18    14    19    1
    19    19    20    1
    20    10    21    1
    21    21    22    1
    22    22    23    1
    23    23    24    1
    24    24    25   ar
    25    25    26   ar
    26    26    27   ar
    27    27    28    1
    28    27    29   ar
    29    29    30   ar
    30     2    31    1
    31    31    32   ar
    32    32    33   ar
    33    33    34    1
    34    34    35    1
    35    34    36    1
    36    34    37    1
    37    33    38   ar
    38    38    39   ar
    39    39    40    1
    40    40    41    1
    41    40    42    1
    42    40    43    1
    43    39    44   ar
    44    23     4    1
    45    30    24   ar
    46    44    31   ar
    47    22     6    1
    48    20    11    1
    49     1    45    1
    50     1    46    1
    51     1    47    1
    52     2    48    1
    53     4    49    1
    54     5    50    1
    55     5    51    1
    56     9    52    1
    57    12    53    1
    58    13    54    1
    59    13    55    1
    60    16    56    1
    61    16    57    1
    62    16    58    1
    63    17    59    1
    64    17    60    1
    65    17    61    1
    66    18    62    1
    67    18    63    1
    68    18    64    1
    69    19    65    1
    70    19    66    1
    71    20    67    1
    72    20    68    1
    73    21    69    1
    74    21    70    1
    75    22    71    1
    76    23    72    1
    77    25    73    1
    78    26    74    1
    79    29    75    1
    80    30    76    1
    81    32    77    1
    82    38    78    1
    83    44    79    1
