
     RDKit          3D

 79 83  0  0  0  0  0  0  0  0999 V2000
    5.3794    0.7547    3.0093 C   0  0  0  0  0  0  0  0  0  0  0  0
    4.4637    0.1722    1.9358 C   0  0  1  0  0  0  0  0  0  0  0  0
    3.2874    0.9209    1.8827 O   0  0  0  0  0  0  0  0  0  0  0  0
    2.2251    0.0939    2.1419 C   0  0  1  0  0  0  0  0  0  0  0  0
    1.3987    0.5231    3.3210 C   0  0  0  0  0  0  0  0  0  0  0  0
    0.0128    0.4629    2.9065 N   0  0  0  0  0  0  0  0  0  0  0  0
   -1.1203    1.1166    3.4159 C   0  0  0  0  0  0  0  0  0  0  0  0
   -1.1459    1.8074    4.4588 O   0  0  0  0  0  0  0  0  0  0  0  0
   -2.3760    0.9798    2.6660 C   0  0  0  0  0  0  0  0  0  0  0  0
   -2.4123    0.2656    1.5600 C   0  0  0  0  0  0  0  0  0  0  0  0
   -3.6883    0.1508    0.8348 C   0  0  0  0  0  0  0  0  0  0  0  0
   -3.7145   -0.5840   -0.2935 C   0  0  0  0  0  0  0  0  0  0  0  0
   -5.0111   -0.6751   -0.9910 C   0  0  0  0  0  0  0  0  0  0  0  0
   -5.6386    0.6142   -1.1628 N   0  0  0  0  0  0  0  0  0  0  0  0
   -6.9796    0.4239   -1.6298 C   0  0  0  0  0  0  0  0  0  0  0  0
   -7.8433   -0.3683   -0.6661 C   0  0  0  0  0  0  0  0  0  0  0  0
   -7.6561    1.7026   -2.0461 C   0  0  0  0  0  0  0  0  0  0  0  0
   -6.8836   -0.4564   -2.8850 C   0  0  0  0  0  0  0  0  0  0  0  0
   -5.4995    1.4752   -0.0359 C   0  0  0  0  0  0  0  0  0  0  0  0
   -4.9566    0.7635    1.2126 C   0  0  0  0  0  0  0  0  0  0  0  0
   -1.2361   -0.4373    0.9888 C   0  0  0  0  0  0  0  0  0  0  0  0
   -0.0134   -0.4511    1.7948 C   0  0  0  0  0  0  0  0  0  0  0  0
    1.2215    0.0369    1.0246 C   0  0  2  0  0  0  0  0  0  0  0  0
    1.5908   -0.8679   -0.0590 C   0  0  0  0  0  0  0  0  0  0  0  0
    1.8489   -2.1867    0.1248 C   0  0  0  0  0  0  0  0  0  0  0  0
    2.1932   -2.9873   -0.9438 C   0  0  0  0  0  0  0  0  0  0  0  0
    2.2858   -2.4729   -2.2316 C   0  0  0  0  0  0  0  0  0  0  0  0
    2.6274   -3.3060   -3.2411 F   0  0  0  0  0  0  0  0  0  0  0  0
    2.0279   -1.1420   -2.4332 C   0  0  0  0  0  0  0  0  0  0  0  0
    1.6843   -0.3527   -1.3542 C   0  0  0  0  0  0  0  0  0  0  0  0
    5.2131    0.2113    0.6755 C   0  0  0  0  0  0  0  0  0  0  0  0
    5.7379   -0.9371    0.1442 C   0  0  0  0  0  0  0  0  0  0  0  0
    6.4558   -0.9165   -1.0587 C   0  0  0  0  0  0  0  0  0  0  0  0
    7.0147   -2.1669   -1.6163 C   0  0  0  0  0  0  0  0  0  0  0  0
    7.0287   -3.1750   -0.6725 F   0  0  0  0  0  0  0  0  0  0  0  0
    8.3091   -1.9732   -2.0486 F   0  0  0  0  0  0  0  0  0  0  0  0
    6.2383   -2.5598   -2.7007 F   0  0  0  0  0  0  0  0  0  0  0  0
    6.6380    0.2859   -1.7220 C   0  0  0  0  0  0  0  0  0  0  0  0
    6.1126    1.4420   -1.1918 C   0  0  0  0  0  0  0  0  0  0  0  0
    6.3231    2.7117   -1.9214 C   0  0  0  0  0  0  0  0  0  0  0  0
    6.6343    2.4502   -3.2380 F   0  0  0  0  0  0  0  0  0  0  0  0
    7.3619    3.3782   -1.3151 F   0  0  0  0  0  0  0  0  0  0  0  0
    5.1492    3.4692   -1.8944 F   0  0  0  0  0  0  0  0  0  0  0  0
    5.3979    1.3982    0.0126 C   0  0  0  0  0  0  0  0  0  0  0  0
    6.4505    0.6252    2.7236 H   0  0  0  0  0  0  0  0  0  0  0  0
    5.2355    0.2981    3.9877 H   0  0  0  0  0  0  0  0  0  0  0  0
    5.2117    1.8605    3.0048 H   0  0  0  0  0  0  0  0  0  0  0  0
    4.2130   -0.8924    2.1749 H   0  0  0  0  0  0  0  0  0  0  0  0
    2.5456   -0.9662    2.3353 H   0  0  0  0  0  0  0  0  0  0  0  0
    1.4876   -0.2044    4.1765 H   0  0  0  0  0  0  0  0  0  0  0  0
    1.7033    1.5222    3.6777 H   0  0  0  0  0  0  0  0  0  0  0  0
   -3.2770    1.4759    3.0398 H   0  0  0  0  0  0  0  0  0  0  0  0
   -2.8569   -1.0887   -0.6915 H   0  0  0  0  0  0  0  0  0  0  0  0
   -5.6620   -1.3402   -0.3628 H   0  0  0  0  0  0  0  0  0  0  0  0
   -4.8626   -1.1006   -2.0048 H   0  0  0  0  0  0  0  0  0  0  0  0
   -7.6599   -1.4473   -0.8152 H   0  0  0  0  0  0  0  0  0  0  0  0
   -8.9022   -0.2002   -1.0167 H   0  0  0  0  0  0  0  0  0  0  0  0
   -7.7882   -0.0236    0.3639 H   0  0  0  0  0  0  0  0  0  0  0  0
   -8.6973    1.7197   -1.6642 H   0  0  0  0  0  0  0  0  0  0  0  0
   -7.1039    2.6080   -1.7158 H   0  0  0  0  0  0  0  0  0  0  0  0
   -7.7483    1.7891   -3.1636 H   0  0  0  0  0  0  0  0  0  0  0  0
   -7.7858   -0.3653   -3.4989 H   0  0  0  0  0  0  0  0  0  0  0  0
   -6.0167   -0.1644   -3.4827 H   0  0  0  0  0  0  0  0  0  0  0  0
   -6.7955   -1.5278   -2.5359 H   0  0  0  0  0  0  0  0  0  0  0  0
   -6.4267    2.0313    0.2189 H   0  0  0  0  0  0  0  0  0  0  0  0
   -4.7423    2.2560   -0.2800 H   0  0  0  0  0  0  0  0  0  0  0  0
   -4.9109    1.5159    1.9937 H   0  0  0  0  0  0  0  0  0  0  0  0
   -5.6794   -0.0349    1.5056 H   0  0  0  0  0  0  0  0  0  0  0  0
   -1.0014   -0.0777   -0.0493 H   0  0  0  0  0  0  0  0  0  0  0  0
   -1.5734   -1.5043    0.8340 H   0  0  0  0  0  0  0  0  0  0  0  0
    0.2747   -1.4608    2.1869 H   0  0  0  0  0  0  0  0  0  0  0  0
    1.0572    1.0696    0.6643 H   0  0  0  0  0  0  0  0  0  0  0  0
    1.7938   -2.6416    1.0996 H   0  0  0  0  0  0  0  0  0  0  0  0
    2.3915   -4.0341   -0.7598 H   0  0  0  0  0  0  0  0  0  0  0  0
    2.0912   -0.7022   -3.4344 H   0  0  0  0  0  0  0  0  0  0  0  0
    1.4915    0.6933   -1.5737 H   0  0  0  0  0  0  0  0  0  0  0  0
    5.6356   -1.9129    0.6055 H   0  0  0  0  0  0  0  0  0  0  0  0
    7.2045    0.2809   -2.6641 H   0  0  0  0  0  0  0  0  0  0  0  0
    5.0169    2.3496    0.3625 H   0  0  0  0  0  0  0  0  0  0  0  0
  1  2  1  0
  2  3  1  0
  3  4  1  0
  4  5  1  0
  5  6  1  0
  6  7  1  0
  7  8  2  0
  7  9  1  0
  9 10  2  0
 10 11  1  0
 11 12  2  0
 12 13  1  0
 13 14  1  0
 14 15  1  0
 15 16  1  0
 15 17  1  0
 15 18  1  0
 14 19  1  0
 19 20  1  0
 10 21  1  0
 21 22  1  0
 22 23  1  0
 23 24  1  0
 24 25  2  0
 25 26  1  0
 26 27  2  0
 27 28  1  0
 27 29  1  0
 29 30  2  0
  2 31  1  0
 31 32  2  0
 32 33  1  0
 33 34  1  0
 34 35  1  0
 34 36  1  0
 34 37  1  0
 33 38  2  0
 38 39  1  0
 39 40  1  0
 40 41  1  0
 40 42  1  0
 40 43  1  0
 39 44  2  0
 23  4  1  0
 30 24  1  0
 44 31  1  0
 22  6  1  0
 20 11  1  0
  1 45  1  0
  1 46  1  0
  1 47  1  0
  2 48  1  1
  4 49  1  1
  5 50  1  0
  5 51  1  0
  9 52  1  0
 12 53  1  0
 13 54  1  0
 13 55  1  0
 16 56  1  0
 16 57  1  0
 16 58  1  0
 17 59  1  0
 17 60  1  0
 17 61  1  0
 18 62  1  0
 18 63  1  0
 18 64  1  0
 19 65  1  0
 19 66  1  0
 20 67  1  0
 20 68  1  0
 21 69  1  0
 21 70  1  0
 22 71  1  0
 23 72  1  6
 25 73  1  0
 26 74  1  0
 29 75  1  0
 30 76  1  0
 32 77  1  0
 38 78  1  0
 44 79  1  0
M  END
$$$$
