@<TRIPOS>MOLECULE
*****
 67 71 0 0 0
SMALL
GASTEIGER

@<TRIPOS>ATOM
      1 C           0.2101   -1.3987    0.4061 C.3     1  UNL1       -0.0586
      2 C          -0.5978   -0.3627    1.1994 C.3     1  UNL1       -0.0186
      3 C          -1.8581   -1.0092    1.6998 C.3     1  UNL1       -0.0586
      4 C          -0.8126    0.8626    0.4332 C.ar    1  UNL1       -0.0023
      5 C          -1.6246    1.0257   -0.6539 C.ar    1  UNL1        0.0621
      6 C          -2.4865    0.0267   -1.3485 C.ar    1  UNL1        0.2518
      7 N          -3.2849    0.2907   -2.3963 N.ar    1  UNL1       -0.1058
      8 N          -3.8920   -0.8296   -2.7382 N.ar    1  UNL1       -0.0924
      9 C          -3.4943   -1.8124   -1.9257 C.ar    1  UNL1        0.3081
     10 N          -3.8879   -3.1954   -1.9198 N.pl3   1  UNL1       -0.2976
     11 C          -4.8652   -3.6728   -2.8405 C.3     1  UNL1        0.0133
     12 C          -6.1647   -2.9110   -2.5879 C.3     1  UNL1       -0.0362
     13 C          -6.6000   -3.1580   -1.1444 C.3     1  UNL1       -0.0392
     14 C          -7.8974   -2.3873   -0.8960 C.3     1  UNL1       -0.0069
     15 N          -7.7132   -0.9735   -1.0966 N.3     1  UNL1       -0.3300
     16 O          -2.6294   -1.2446   -1.0847 O.2     1  UNL1       -0.4048
     17 C          -1.5100    2.3455   -1.0361 C.ar    1  UNL1        0.0425
     18 N          -0.6614    3.0017   -0.2273 N.ar    1  UNL1       -0.2341
     19 N          -0.2492    4.2695   -0.1962 N.ar    1  UNL1       -0.1548
     20 C           0.6047    4.7373    0.7153 C.ar    1  UNL1        0.1388
     21 N           1.0645    3.8860    1.6382 N.ar    1  UNL1       -0.2167
     22 C           0.6605    2.5805    1.6314 C.ar    1  UNL1        0.1507
     23 N           1.1672    1.7804    2.6528 N.pl3   1  UNL1       -0.2954
     24 C           2.4735    1.2420    2.5689 C.ar    1  UNL1        0.0690
     25 C           3.2994    1.4837    1.4776 C.ar    1  UNL1       -0.0228
     26 C           4.6052    0.9645    1.4290 C.ar    1  UNL1        0.0737
     27 C           5.4700    1.2580    0.2992 C.2     1  UNL1        0.2471
     28 O           4.9181    1.5812   -0.7891 O.2     1  UNL1       -0.2701
     29 N           6.8809    1.2176    0.2998 N.am    1  UNL1       -0.3084
     30 C           7.7131    1.5065   -0.8821 C.3     1  UNL1        0.0235
     31 C           8.7372    2.5836   -0.7564 C.3     1  UNL1       -0.0328
     32 C           9.1311    1.0848   -0.8632 C.3     1  UNL1       -0.0328
     33 C           5.0174    0.2190    2.4893 C.ar    1  UNL1        0.1383
     34 F           6.2580   -0.3288    2.4896 F       1  UNL1       -0.2046
     35 C           4.1870   -0.0339    3.6045 C.ar    1  UNL1        0.0114
     36 C           2.9184    0.4821    3.6333 C.ar    1  UNL1        0.1472
     37 F           2.0923    0.2461    4.7006 F       1  UNL1       -0.2035
     38 C          -0.2191    2.1085    0.6869 C.ar    1  UNL1        0.1095
     39 H           0.1814   -1.1448   -0.6814 H       1  UNL1        0.0235
     40 H          -0.1037   -2.4251    0.6088 H       1  UNL1        0.0235
     41 H           1.2718   -1.2914    0.6981 H       1  UNL1        0.0235
     42 H           0.0330   -0.1714    2.0922 H       1  UNL1        0.0344
     43 H          -1.9926   -2.0528    1.3700 H       1  UNL1        0.0235
     44 H          -1.8328   -1.0991    2.8326 H       1  UNL1        0.0235
     45 H          -2.7110   -0.3463    1.4851 H       1  UNL1        0.0235
     46 H          -3.4397   -3.8518   -1.2171 H       1  UNL1        0.1504
     47 H          -4.5146   -3.5047   -3.8801 H       1  UNL1        0.0462
     48 H          -5.0342   -4.7572   -2.6564 H       1  UNL1        0.0462
     49 H          -6.0356   -1.8153   -2.7090 H       1  UNL1        0.0281
     50 H          -6.9387   -3.2119   -3.3000 H       1  UNL1        0.0281
     51 H          -6.7557   -4.2480   -1.0147 H       1  UNL1        0.0278
     52 H          -5.8195   -2.8524   -0.4285 H       1  UNL1        0.0278
     53 H          -8.1994   -2.5835    0.1545 H       1  UNL1        0.0422
     54 H          -8.6831   -2.7436   -1.6116 H       1  UNL1        0.0422
     55 H          -8.3627   -0.4651   -0.4294 H       1  UNL1        0.1182
     56 H          -6.7481   -0.6741   -0.8271 H       1  UNL1        0.1182
     57 H          -2.0380    2.7811   -1.8781 H       1  UNL1        0.0838
     58 H           0.9257    5.7976    0.7100 H       1  UNL1        0.1066
     59 H           0.5644    1.5970    3.4908 H       1  UNL1        0.1537
     60 H           2.9792    2.0675    0.6423 H       1  UNL1        0.0645
     61 H           7.3616    0.9819    1.2050 H       1  UNL1        0.1493
     62 H           7.1744    1.5230   -1.8418 H       1  UNL1        0.0498
     63 H           8.9524    3.0728    0.1972 H       1  UNL1        0.0284
     64 H           9.0245    3.1601   -1.6571 H       1  UNL1        0.0284
     65 H           9.6652    0.7608   -1.7620 H       1  UNL1        0.0284
     66 H           9.5552    0.6604    0.0825 H       1  UNL1        0.0284
     67 H           4.5602   -0.6301    4.4216 H       1  UNL1        0.0676
@<TRIPOS>BOND
     1     1     2    1
     2     2     3    1
     3     2     4    1
     4     4     5   ar
     5     5     6    1
     6     6     7   ar
     7     7     8   ar
     8     8     9   ar
     9     9    10    1
    10    10    11    1
    11    11    12    1
    12    12    13    1
    13    13    14    1
    14    14    15    1
    15     9    16   ar
    16     5    17   ar
    17    17    18   ar
    18    18    19   ar
    19    19    20   ar
    20    20    21   ar
    21    21    22   ar
    22    22    23    1
    23    23    24    1
    24    24    25   ar
    25    25    26   ar
    26    26    27    1
    27    27    28    2
    28    27    29   am
    29    29    30    1
    30    30    31    1
    31    31    32    1
    32    26    33   ar
    33    33    34    1
    34    33    35   ar
    35    35    36   ar
    36    36    37    1
    37    22    38   ar
    38    38     4   ar
    39    16     6   ar
    40    38    18   ar
    41    36    24   ar
    42    32    30    1
    43     1    39    1
    44     1    40    1
    45     1    41    1
    46     2    42    1
    47     3    43    1
    48     3    44    1
    49     3    45    1
    50    10    46    1
    51    11    47    1
    52    11    48    1
    53    12    49    1
    54    12    50    1
    55    13    51    1
    56    13    52    1
    57    14    53    1
    58    14    54    1
    59    15    55    1
    60    15    56    1
    61    17    57    1
    62    20    58    1
    63    23    59    1
    64    25    60    1
    65    29    61    1
    66    30    62    1
    67    31    63    1
    68    31    64    1
    69    32    65    1
    70    32    66    1
    71    35    67    1
