
     RDKit          3D

 67 71  0  0  0  0  0  0  0  0999 V2000
    0.2101   -1.3987    0.4061 C   0  0  0  0  0  0  0  0  0  0  0  0
   -0.5978   -0.3627    1.1994 C   0  0  0  0  0  0  0  0  0  0  0  0
   -1.8581   -1.0092    1.6998 C   0  0  0  0  0  0  0  0  0  0  0  0
   -0.8126    0.8626    0.4332 C   0  0  0  0  0  0  0  0  0  0  0  0
   -1.6246    1.0257   -0.6539 C   0  0  0  0  0  0  0  0  0  0  0  0
   -2.4865    0.0267   -1.3485 C   0  0  0  0  0  0  0  0  0  0  0  0
   -3.2849    0.2907   -2.3963 N   0  0  0  0  0  0  0  0  0  0  0  0
   -3.8920   -0.8296   -2.7382 N   0  0  0  0  0  0  0  0  0  0  0  0
   -3.4943   -1.8124   -1.9257 C   0  0  0  0  0  0  0  0  0  0  0  0
   -3.8879   -3.1954   -1.9198 N   0  0  0  0  0  0  0  0  0  0  0  0
   -4.8652   -3.6728   -2.8405 C   0  0  0  0  0  0  0  0  0  0  0  0
   -6.1647   -2.9110   -2.5879 C   0  0  0  0  0  0  0  0  0  0  0  0
   -6.6000   -3.1580   -1.1444 C   0  0  0  0  0  0  0  0  0  0  0  0
   -7.8974   -2.3873   -0.8960 C   0  0  0  0  0  0  0  0  0  0  0  0
   -7.7132   -0.9735   -1.0966 N   0  0  0  0  0  0  0  0  0  0  0  0
   -2.6294   -1.2446   -1.0847 O   0  0  0  0  0  0  0  0  0  0  0  0
   -1.5100    2.3455   -1.0361 C   0  0  0  0  0  0  0  0  0  0  0  0
   -0.6614    3.0017   -0.2273 N   0  0  0  0  0  0  0  0  0  0  0  0
   -0.2492    4.2695   -0.1962 N   0  0  0  0  0  0  0  0  0  0  0  0
    0.6047    4.7373    0.7153 C   0  0  0  0  0  0  0  0  0  0  0  0
    1.0645    3.8860    1.6382 N   0  0  0  0  0  0  0  0  0  0  0  0
    0.6605    2.5805    1.6314 C   0  0  0  0  0  0  0  0  0  0  0  0
    1.1672    1.7804    2.6528 N   0  0  0  0  0  0  0  0  0  0  0  0
    2.4735    1.2420    2.5689 C   0  0  0  0  0  0  0  0  0  0  0  0
    3.2994    1.4837    1.4776 C   0  0  0  0  0  0  0  0  0  0  0  0
    4.6052    0.9645    1.4290 C   0  0  0  0  0  0  0  0  0  0  0  0
    5.4700    1.2580    0.2992 C   0  0  0  0  0  0  0  0  0  0  0  0
    4.9181    1.5812   -0.7891 O   0  0  0  0  0  0  0  0  0  0  0  0
    6.8809    1.2176    0.2998 N   0  0  0  0  0  0  0  0  0  0  0  0
    7.7131    1.5065   -0.8821 C   0  0  0  0  0  0  0  0  0  0  0  0
    8.7372    2.5836   -0.7564 C   0  0  0  0  0  0  0  0  0  0  0  0
    9.1311    1.0848   -0.8632 C   0  0  0  0  0  0  0  0  0  0  0  0
    5.0174    0.2190    2.4893 C   0  0  0  0  0  0  0  0  0  0  0  0
    6.2580   -0.3288    2.4896 F   0  0  0  0  0  0  0  0  0  0  0  0
    4.1870   -0.0339    3.6045 C   0  0  0  0  0  0  0  0  0  0  0  0
    2.9184    0.4821    3.6333 C   0  0  0  0  0  0  0  0  0  0  0  0
    2.0923    0.2461    4.7006 F   0  0  0  0  0  0  0  0  0  0  0  0
   -0.2191    2.1085    0.6869 C   0  0  0  0  0  0  0  0  0  0  0  0
    0.1814   -1.1448   -0.6814 H   0  0  0  0  0  0  0  0  0  0  0  0
   -0.1037   -2.4251    0.6088 H   0  0  0  0  0  0  0  0  0  0  0  0
    1.2718   -1.2914    0.6981 H   0  0  0  0  0  0  0  0  0  0  0  0
    0.0330   -0.1714    2.0922 H   0  0  0  0  0  0  0  0  0  0  0  0
   -1.9926   -2.0528    1.3700 H   0  0  0  0  0  0  0  0  0  0  0  0
   -1.8328   -1.0991    2.8326 H   0  0  0  0  0  0  0  0  0  0  0  0
   -2.7110   -0.3463    1.4851 H   0  0  0  0  0  0  0  0  0  0  0  0
   -3.4397   -3.8518   -1.2171 H   0  0  0  0  0  0  0  0  0  0  0  0
   -4.5146   -3.5047   -3.8801 H   0  0  0  0  0  0  0  0  0  0  0  0
   -5.0342   -4.7572   -2.6564 H   0  0  0  0  0  0  0  0  0  0  0  0
   -6.0356   -1.8153   -2.7090 H   0  0  0  0  0  0  0  0  0  0  0  0
   -6.9387   -3.2119   -3.3000 H   0  0  0  0  0  0  0  0  0  0  0  0
   -6.7557   -4.2480   -1.0147 H   0  0  0  0  0  0  0  0  0  0  0  0
   -5.8195   -2.8524   -0.4285 H   0  0  0  0  0  0  0  0  0  0  0  0
   -8.1994   -2.5835    0.1545 H   0  0  0  0  0  0  0  0  0  0  0  0
   -8.6831   -2.7436   -1.6116 H   0  0  0  0  0  0  0  0  0  0  0  0
   -8.3627   -0.4651   -0.4294 H   0  0  0  0  0  0  0  0  0  0  0  0
   -6.7481   -0.6741   -0.8271 H   0  0  0  0  0  0  0  0  0  0  0  0
   -2.0380    2.7811   -1.8781 H   0  0  0  0  0  0  0  0  0  0  0  0
    0.9257    5.7976    0.7100 H   0  0  0  0  0  0  0  0  0  0  0  0
    0.5644    1.5970    3.4908 H   0  0  0  0  0  0  0  0  0  0  0  0
    2.9792    2.0675    0.6423 H   0  0  0  0  0  0  0  0  0  0  0  0
    7.3616    0.9819    1.2050 H   0  0  0  0  0  0  0  0  0  0  0  0
    7.1744    1.5230   -1.8418 H   0  0  0  0  0  0  0  0  0  0  0  0
    8.9524    3.0728    0.1972 H   0  0  0  0  0  0  0  0  0  0  0  0
    9.0245    3.1601   -1.6571 H   0  0  0  0  0  0  0  0  0  0  0  0
    9.6652    0.7608   -1.7620 H   0  0  0  0  0  0  0  0  0  0  0  0
    9.5552    0.6604    0.0825 H   0  0  0  0  0  0  0  0  0  0  0  0
    4.5602   -0.6301    4.4216 H   0  0  0  0  0  0  0  0  0  0  0  0
  1  2  1  0
  2  3  1  0
  2  4  1  0
  4  5  1  0
  5  6  1  0
  6  7  2  0
  7  8  1  0
  8  9  2  0
  9 10  1  0
 10 11  1  0
 11 12  1  0
 12 13  1  0
 13 14  1  0
 14 15  1  0
  9 16  1  0
  5 17  2  0
 17 18  1  0
 18 19  1  0
 19 20  2  0
 20 21  1  0
 21 22  2  0
 22 23  1  0
 23 24  1  0
 24 25  2  0
 25 26  1  0
 26 27  1  0
 27 28  2  0
 27 29  1  0
 29 30  1  0
 30 31  1  0
 31 32  1  0
 26 33  2  0
 33 34  1  0
 33 35  1  0
 35 36  2  0
 36 37  1  0
 22 38  1  0
 38  4  2  0
 16  6  1  0
 38 18  1  0
 36 24  1  0
 32 30  1  0
  1 39  1  0
  1 40  1  0
  1 41  1  0
  2 42  1  0
  3 43  1  0
  3 44  1  0
  3 45  1  0
 10 46  1  0
 11 47  1  0
 11 48  1  0
 12 49  1  0
 12 50  1  0
 13 51  1  0
 13 52  1  0
 14 53  1  0
 14 54  1  0
 15 55  1  0
 15 56  1  0
 17 57  1  0
 20 58  1  0
 23 59  1  0
 25 60  1  0
 29 61  1  0
 30 62  1  0
 31 63  1  0
 31 64  1  0
 32 65  1  0
 32 66  1  0
 35 67  1  0
M  END
$$$$
