@<TRIPOS>MOLECULE
*****
 62 65 0 0 0
SMALL
GASTEIGER

@<TRIPOS>ATOM
      1 C          -3.4278    7.1647    3.8801 C.3     1  UNL1       -0.0319
      2 C          -2.4568    6.2265    3.3666 C.ar    1  UNL1        0.0068
      3 C          -1.0996    6.0731    3.4642 C.ar    1  UNL1        0.0383
      4 N          -0.5179    5.1105    2.8781 N.ar    1  UNL1       -0.2471
      5 C          -1.1274    4.2014    2.1495 C.ar    1  UNL1        0.1086
      6 C          -0.7268    3.0462    1.4028 C.ar    1  UNL1        0.0113
      7 C          -1.6358    2.2818    0.7319 C.ar    1  UNL1       -0.0102
      8 C          -1.2139    1.1808    0.0273 C.ar    1  UNL1        0.1220
      9 O          -2.1776    0.4311   -0.6413 O.3     1  UNL1       -0.4893
     10 C          -1.7569   -0.6952   -1.3630 C.3     1  UNL1        0.1168
     11 C          -2.8770   -1.4182   -2.0353 C.3     1  UNL1        0.1052
     12 C          -3.9336   -1.9115   -1.0934 C.3     1  UNL1        0.0282
     13 N          -4.8326   -2.7530   -1.8463 N.3     1  UNL1       -0.3006
     14 C          -4.3527   -4.0976   -1.9925 C.3     1  UNL1       -0.0126
     15 C          -5.3295   -2.1560   -3.0476 C.3     1  UNL1        0.0222
     16 C          -4.3389   -1.3267   -3.8018 C.3     1  UNL1        0.0609
     17 O          -3.5286   -0.5613   -2.9470 O.3     1  UNL1       -0.3707
     18 C           0.1321    0.8355   -0.0105 C.ar    1  UNL1       -0.0078
     19 C           1.0601    1.6004    0.6636 C.ar    1  UNL1        0.0408
     20 C           2.4795    1.3186    0.6813 C.2     1  UNL1        0.2447
     21 O           3.2394    2.0841    1.3231 O.2     1  UNL1       -0.2702
     22 N           3.0787    0.2282    0.0187 N.am    1  UNL1       -0.3047
     23 C           4.4985   -0.0523    0.0369 C.3     1  UNL1        0.0487
     24 C           5.1016    0.0129   -1.3509 C.3     1  UNL1       -0.0423
     25 C           4.8000   -1.3985    0.5880 C.ar    1  UNL1        0.0087
     26 C           4.0897   -2.5252    0.1965 C.ar    1  UNL1        0.0363
     27 N           4.3997   -3.7220    0.7251 N.ar    1  UNL1       -0.2321
     28 C           5.3736   -3.9049    1.6275 C.ar    1  UNL1        0.2339
     29 C           5.6965   -5.2480    2.1961 C.3     1  UNL1        0.4522
     30 F           4.8431   -6.1871    1.6604 F       1  UNL1       -0.1632
     31 F           5.7043   -5.2522    3.5648 F       1  UNL1       -0.1632
     32 F           6.9832   -5.6010    1.7810 F       1  UNL1       -0.1632
     33 N           6.0744   -2.8225    2.0200 N.ar    1  UNL1       -0.2321
     34 C           5.8009   -1.5882    1.5161 C.ar    1  UNL1        0.0363
     35 C           0.5884    2.6943    1.3559 C.ar    1  UNL1       -0.0397
     36 S          -2.8446    4.7879    2.3008 S.2     1  UNL1       -0.0725
     37 H          -4.4627    6.7542    3.9453 H       1  UNL1        0.0283
     38 H          -3.1994    7.4976    4.9304 H       1  UNL1        0.0283
     39 H          -3.4830    8.0781    3.2617 H       1  UNL1        0.0283
     40 H          -0.5321    6.8295    4.0809 H       1  UNL1        0.0838
     41 H          -2.6936    2.5691    0.7725 H       1  UNL1        0.0661
     42 H          -0.9973   -0.4146   -2.1240 H       1  UNL1        0.0723
     43 H          -1.3064   -1.4102   -0.6198 H       1  UNL1        0.0723
     44 H          -2.4869   -2.2940   -2.5826 H       1  UNL1        0.0643
     45 H          -4.5076   -1.0426   -0.7406 H       1  UNL1        0.0453
     46 H          -3.5305   -2.5177   -0.2597 H       1  UNL1        0.0453
     47 H          -4.9687   -4.7643   -1.3484 H       1  UNL1        0.0391
     48 H          -3.3222   -4.1446   -1.5585 H       1  UNL1        0.0391
     49 H          -4.2749   -4.4521   -3.0294 H       1  UNL1        0.0391
     50 H          -6.2588   -1.5713   -2.8007 H       1  UNL1        0.0449
     51 H          -5.6794   -2.9786   -3.7092 H       1  UNL1        0.0449
     52 H          -3.7086   -1.9599   -4.4688 H       1  UNL1        0.0573
     53 H          -4.8896   -0.6264   -4.4497 H       1  UNL1        0.0573
     54 H           0.4357   -0.0202   -0.5624 H       1  UNL1        0.0662
     55 H           2.4447   -0.4138   -0.5180 H       1  UNL1        0.1496
     56 H           4.9939    0.7154    0.6477 H       1  UNL1        0.0546
     57 H           5.2882    1.0208   -1.7180 H       1  UNL1        0.0251
     58 H           6.0168   -0.6190   -1.3409 H       1  UNL1        0.0251
     59 H           4.3843   -0.5283   -2.0195 H       1  UNL1        0.0251
     60 H           3.3034   -2.3862   -0.5306 H       1  UNL1        0.0834
     61 H           6.3728   -0.7124    1.8373 H       1  UNL1        0.0834
     62 H           1.2965    3.3349    1.9099 H       1  UNL1        0.0632
@<TRIPOS>BOND
     1     1     2    1
     2     2     3   ar
     3     3     4   ar
     4     4     5   ar
     5     5     6    1
     6     6     7   ar
     7     7     8   ar
     8     8     9    1
     9     9    10    1
    10    10    11    1
    11    11    12    1
    12    12    13    1
    13    13    14    1
    14    13    15    1
    15    15    16    1
    16    16    17    1
    17     8    18   ar
    18    18    19   ar
    19    19    20    1
    20    20    21    2
    21    20    22   am
    22    22    23    1
    23    23    24    1
    24    23    25    1
    25    25    26   ar
    26    26    27   ar
    27    27    28   ar
    28    28    29    1
    29    29    30    1
    30    29    31    1
    31    29    32    1
    32    28    33   ar
    33    33    34   ar
    34    19    35   ar
    35     5    36   ar
    36    36     2   ar
    37    35     6   ar
    38    17    11    1
    39    34    25   ar
    40     1    37    1
    41     1    38    1
    42     1    39    1
    43     3    40    1
    44     7    41    1
    45    10    42    1
    46    10    43    1
    47    11    44    1
    48    12    45    1
    49    12    46    1
    50    14    47    1
    51    14    48    1
    52    14    49    1
    53    15    50    1
    54    15    51    1
    55    16    52    1
    56    16    53    1
    57    18    54    1
    58    22    55    1
    59    23    56    1
    60    24    57    1
    61    24    58    1
    62    24    59    1
    63    26    60    1
    64    34    61    1
    65    35    62    1
