
     RDKit          3D

 62 65  0  0  0  0  0  0  0  0999 V2000
   -3.4278    7.1647    3.8801 C   0  0  0  0  0  0  0  0  0  0  0  0
   -2.4568    6.2265    3.3666 C   0  0  0  0  0  0  0  0  0  0  0  0
   -1.0996    6.0731    3.4642 C   0  0  0  0  0  0  0  0  0  0  0  0
   -0.5179    5.1105    2.8781 N   0  0  0  0  0  0  0  0  0  0  0  0
   -1.1274    4.2014    2.1495 C   0  0  0  0  0  0  0  0  0  0  0  0
   -0.7268    3.0462    1.4028 C   0  0  0  0  0  0  0  0  0  0  0  0
   -1.6358    2.2818    0.7319 C   0  0  0  0  0  0  0  0  0  0  0  0
   -1.2139    1.1808    0.0273 C   0  0  0  0  0  0  0  0  0  0  0  0
   -2.1776    0.4311   -0.6413 O   0  0  0  0  0  0  0  0  0  0  0  0
   -1.7569   -0.6952   -1.3630 C   0  0  0  0  0  0  0  0  0  0  0  0
   -2.8770   -1.4182   -2.0353 C   0  0  1  0  0  0  0  0  0  0  0  0
   -3.9336   -1.9115   -1.0934 C   0  0  0  0  0  0  0  0  0  0  0  0
   -4.8326   -2.7530   -1.8463 N   0  0  0  0  0  0  0  0  0  0  0  0
   -4.3527   -4.0976   -1.9925 C   0  0  0  0  0  0  0  0  0  0  0  0
   -5.3295   -2.1560   -3.0476 C   0  0  0  0  0  0  0  0  0  0  0  0
   -4.3389   -1.3267   -3.8018 C   0  0  0  0  0  0  0  0  0  0  0  0
   -3.5286   -0.5613   -2.9470 O   0  0  0  0  0  0  0  0  0  0  0  0
    0.1321    0.8355   -0.0105 C   0  0  0  0  0  0  0  0  0  0  0  0
    1.0601    1.6004    0.6636 C   0  0  0  0  0  0  0  0  0  0  0  0
    2.4795    1.3186    0.6813 C   0  0  0  0  0  0  0  0  0  0  0  0
    3.2394    2.0841    1.3231 O   0  0  0  0  0  0  0  0  0  0  0  0
    3.0787    0.2282    0.0187 N   0  0  0  0  0  0  0  0  0  0  0  0
    4.4985   -0.0523    0.0369 C   0  0  2  0  0  0  0  0  0  0  0  0
    5.1016    0.0129   -1.3509 C   0  0  0  0  0  0  0  0  0  0  0  0
    4.8000   -1.3985    0.5880 C   0  0  0  0  0  0  0  0  0  0  0  0
    4.0897   -2.5252    0.1965 C   0  0  0  0  0  0  0  0  0  0  0  0
    4.3997   -3.7220    0.7251 N   0  0  0  0  0  0  0  0  0  0  0  0
    5.3736   -3.9049    1.6275 C   0  0  0  0  0  0  0  0  0  0  0  0
    5.6965   -5.2480    2.1961 C   0  0  0  0  0  0  0  0  0  0  0  0
    4.8431   -6.1871    1.6604 F   0  0  0  0  0  0  0  0  0  0  0  0
    5.7043   -5.2522    3.5648 F   0  0  0  0  0  0  0  0  0  0  0  0
    6.9832   -5.6010    1.7810 F   0  0  0  0  0  0  0  0  0  0  0  0
    6.0744   -2.8225    2.0200 N   0  0  0  0  0  0  0  0  0  0  0  0
    5.8009   -1.5882    1.5161 C   0  0  0  0  0  0  0  0  0  0  0  0
    0.5884    2.6943    1.3559 C   0  0  0  0  0  0  0  0  0  0  0  0
   -2.8446    4.7879    2.3008 S   0  0  0  0  0  0  0  0  0  0  0  0
   -4.4627    6.7542    3.9453 H   0  0  0  0  0  0  0  0  0  0  0  0
   -3.1994    7.4976    4.9304 H   0  0  0  0  0  0  0  0  0  0  0  0
   -3.4830    8.0781    3.2617 H   0  0  0  0  0  0  0  0  0  0  0  0
   -0.5321    6.8295    4.0809 H   0  0  0  0  0  0  0  0  0  0  0  0
   -2.6936    2.5691    0.7725 H   0  0  0  0  0  0  0  0  0  0  0  0
   -0.9973   -0.4146   -2.1240 H   0  0  0  0  0  0  0  0  0  0  0  0
   -1.3064   -1.4102   -0.6198 H   0  0  0  0  0  0  0  0  0  0  0  0
   -2.4869   -2.2940   -2.5826 H   0  0  0  0  0  0  0  0  0  0  0  0
   -4.5076   -1.0426   -0.7406 H   0  0  0  0  0  0  0  0  0  0  0  0
   -3.5305   -2.5177   -0.2597 H   0  0  0  0  0  0  0  0  0  0  0  0
   -4.9687   -4.7643   -1.3484 H   0  0  0  0  0  0  0  0  0  0  0  0
   -3.3222   -4.1446   -1.5585 H   0  0  0  0  0  0  0  0  0  0  0  0
   -4.2749   -4.4521   -3.0294 H   0  0  0  0  0  0  0  0  0  0  0  0
   -6.2588   -1.5713   -2.8007 H   0  0  0  0  0  0  0  0  0  0  0  0
   -5.6794   -2.9786   -3.7092 H   0  0  0  0  0  0  0  0  0  0  0  0
   -3.7086   -1.9599   -4.4688 H   0  0  0  0  0  0  0  0  0  0  0  0
   -4.8896   -0.6264   -4.4497 H   0  0  0  0  0  0  0  0  0  0  0  0
    0.4357   -0.0202   -0.5624 H   0  0  0  0  0  0  0  0  0  0  0  0
    2.4447   -0.4138   -0.5180 H   0  0  0  0  0  0  0  0  0  0  0  0
    4.9939    0.7154    0.6477 H   0  0  0  0  0  0  0  0  0  0  0  0
    5.2882    1.0208   -1.7180 H   0  0  0  0  0  0  0  0  0  0  0  0
    6.0168   -0.6190   -1.3409 H   0  0  0  0  0  0  0  0  0  0  0  0
    4.3843   -0.5283   -2.0195 H   0  0  0  0  0  0  0  0  0  0  0  0
    3.3034   -2.3862   -0.5306 H   0  0  0  0  0  0  0  0  0  0  0  0
    6.3728   -0.7124    1.8373 H   0  0  0  0  0  0  0  0  0  0  0  0
    1.2965    3.3349    1.9099 H   0  0  0  0  0  0  0  0  0  0  0  0
  1  2  1  0
  2  3  2  0
  3  4  1  0
  4  5  2  0
  5  6  1  0
  6  7  2  0
  7  8  1  0
  8  9  1  0
  9 10  1  0
 10 11  1  0
 11 12  1  0
 12 13  1  0
 13 14  1  0
 13 15  1  0
 15 16  1  0
 16 17  1  0
  8 18  2  0
 18 19  1  0
 19 20  1  0
 20 21  2  0
 20 22  1  0
 22 23  1  0
 23 24  1  0
 23 25  1  0
 25 26  2  0
 26 27  1  0
 27 28  2  0
 28 29  1  0
 29 30  1  0
 29 31  1  0
 29 32  1  0
 28 33  1  0
 33 34  2  0
 19 35  2  0
  5 36  1  0
 36  2  1  0
 35  6  1  0
 17 11  1  0
 34 25  1  0
  1 37  1  0
  1 38  1  0
  1 39  1  0
  3 40  1  0
  7 41  1  0
 10 42  1  0
 10 43  1  0
 11 44  1  6
 12 45  1  0
 12 46  1  0
 14 47  1  0
 14 48  1  0
 14 49  1  0
 15 50  1  0
 15 51  1  0
 16 52  1  0
 16 53  1  0
 18 54  1  0
 22 55  1  0
 23 56  1  1
 24 57  1  0
 24 58  1  0
 24 59  1  0
 26 60  1  0
 34 61  1  0
 35 62  1  0
M  END
$$$$
