@<TRIPOS>MOLECULE
*****
 19 19 0 0 0
SMALL
GASTEIGER

@<TRIPOS>ATOM
      1 N           3.4050    0.2974    0.2266 N.pl3   1  UNL1       -0.3580
      2 C           2.0036    0.0968    0.0687 C.ar    1  UNL1        0.0247
      3 C           1.3413   -0.8163    0.8889 C.ar    1  UNL1       -0.0392
      4 C          -0.0207   -1.0311    0.7571 C.ar    1  UNL1       -0.0336
      5 C          -0.7507   -0.3514   -0.1826 C.ar    1  UNL1        0.1051
      6 C          -0.1185    0.5710   -1.0210 C.ar    1  UNL1       -0.0336
      7 C           1.2515    0.7659   -0.8653 C.ar    1  UNL1       -0.0392
      8 S          -2.4719   -0.5325   -0.4478 S.O2    1  UNL1        0.0559
      9 N          -3.2811    0.6115    0.5686 N.3     1  UNL1       -0.2035
     10 O          -2.8276   -0.2680   -1.8842 O.2     1  UNL1       -0.1533
     11 O          -2.9204   -1.8982    0.0013 O.2     1  UNL1       -0.1533
     12 H           4.1310    0.4784   -0.4753 H       1  UNL1        0.1423
     13 H           3.7927    0.2608    1.2055 H       1  UNL1        0.1423
     14 H           1.8963   -1.3703    1.6441 H       1  UNL1        0.0636
     15 H          -0.5641   -1.7319    1.3771 H       1  UNL1        0.0638
     16 H          -0.6543    1.1295   -1.7759 H       1  UNL1        0.0638
     17 H           1.7240    1.4876   -1.5273 H       1  UNL1        0.0636
     18 H          -2.6797    0.7733    1.4076 H       1  UNL1        0.1442
     19 H          -3.2563    1.5273    0.0338 H       1  UNL1        0.1442
@<TRIPOS>BOND
     1     1     2    1
     2     2     3   ar
     3     3     4   ar
     4     4     5   ar
     5     5     6   ar
     6     6     7   ar
     7     5     8    1
     8     8     9    1
     9     8    10    2
    10     8    11    2
    11     7     2   ar
    12     1    12    1
    13     1    13    1
    14     3    14    1
    15     4    15    1
    16     6    16    1
    17     7    17    1
    18     9    18    1
    19     9    19    1
