@<TRIPOS>MOLECULE
*****
 50 53 0 0 0
SMALL
GASTEIGER

@<TRIPOS>ATOM
      1 N          -6.4108    1.7507   -1.2113 N.pl3   1  UNL1       -0.3565
      2 C          -7.1262    0.7742   -0.4468 C.ar    1  UNL1        0.0461
      3 C          -8.4826    0.6293   -0.5233 C.ar    1  UNL1       -0.0392
      4 C          -9.1737   -0.3111    0.2125 C.ar    1  UNL1       -0.0599
      5 C          -8.4118   -1.1145    1.0465 C.ar    1  UNL1       -0.0599
      6 C          -7.0431   -0.9787    1.1331 C.ar    1  UNL1       -0.0387
      7 C          -6.3822   -0.0280    0.3834 C.ar    1  UNL1        0.0545
      8 N          -4.9541    0.1203    0.4678 N.am    1  UNL1       -0.2800
      9 C          -4.0499   -0.5836   -0.3634 C.2     1  UNL1        0.2483
     10 O          -4.5503   -1.3689   -1.2061 O.2     1  UNL1       -0.2699
     11 C          -2.5940   -0.4329   -0.2779 C.ar    1  UNL1        0.0370
     12 C          -1.7713   -1.1557   -1.1253 C.ar    1  UNL1       -0.0493
     13 C          -0.3967   -1.0530   -1.0885 C.ar    1  UNL1       -0.0564
     14 C           0.2302   -0.2125   -0.1919 C.ar    1  UNL1       -0.0303
     15 C           1.7112   -0.0919   -0.1412 C.3     1  UNL1        0.0370
     16 N           2.2437   -1.0527    0.7776 N.pl3   1  UNL1       -0.3093
     17 C           3.6530   -1.1027    0.9739 C.ar    1  UNL1        0.2159
     18 N           4.1482   -2.0083    1.8392 N.ar    1  UNL1       -0.2229
     19 C           5.4599   -2.1083    2.0699 C.ar    1  UNL1        0.0332
     20 C           6.3013   -1.2322    1.3748 C.ar    1  UNL1       -0.0174
     21 C           5.8168   -0.3045    0.4908 C.ar    1  UNL1        0.0775
     22 C           6.7053    0.6089   -0.2327 C.ar    1  UNL1        0.0186
     23 C           8.0720    0.6111   -0.0877 C.ar    1  UNL1       -0.0497
     24 C           8.8179    1.5200   -0.8225 C.ar    1  UNL1       -0.0430
     25 C           8.2628    2.4272   -1.6957 C.ar    1  UNL1        0.0276
     26 N           6.9269    2.4042   -1.8187 N.ar    1  UNL1       -0.2626
     27 C           6.1686    1.5401   -1.1253 C.ar    1  UNL1        0.0367
     28 N           4.4862   -0.2646    0.3120 N.ar    1  UNL1       -0.2145
     29 C          -0.5798    0.5119    0.6565 C.ar    1  UNL1       -0.0564
     30 C          -1.9694    0.4059    0.6168 C.ar    1  UNL1       -0.0493
     31 H          -5.7598    2.4281   -0.7581 H       1  UNL1        0.1424
     32 H          -6.5308    1.7981   -2.2316 H       1  UNL1        0.1424
     33 H          -9.0449    1.2834   -1.1936 H       1  UNL1        0.0636
     34 H         -10.2507   -0.4015    0.1298 H       1  UNL1        0.0618
     35 H          -8.9566   -1.8642    1.6341 H       1  UNL1        0.0618
     36 H          -6.4955   -1.6340    1.8022 H       1  UNL1        0.0637
     37 H          -4.6071    0.7858    1.1863 H       1  UNL1        0.1552
     38 H          -2.2452   -1.8221   -1.8374 H       1  UNL1        0.0625
     39 H           0.2471   -1.6226   -1.7558 H       1  UNL1        0.0621
     40 H           1.9414    0.9608    0.1479 H       1  UNL1        0.0512
     41 H           2.1572   -0.2071   -1.1714 H       1  UNL1        0.0512
     42 H           1.6108   -1.6988    1.2890 H       1  UNL1        0.1492
     43 H           5.8297   -2.8340    2.7604 H       1  UNL1        0.0831
     44 H           7.3402   -1.3428    1.5857 H       1  UNL1        0.0654
     45 H           8.5439   -0.0853    0.5875 H       1  UNL1        0.0625
     46 H           9.8944    1.5291   -0.7149 H       1  UNL1        0.0633
     47 H           8.8341    3.1389   -2.2724 H       1  UNL1        0.0829
     48 H           5.0905    1.5308   -1.2329 H       1  UNL1        0.0836
     49 H          -0.1093    1.1800    1.3707 H       1  UNL1        0.0621
     50 H          -2.5976    0.9774    1.2855 H       1  UNL1        0.0625
@<TRIPOS>BOND
     1     1     2    1
     2     2     3   ar
     3     3     4   ar
     4     4     5   ar
     5     5     6   ar
     6     6     7   ar
     7     7     8    1
     8     8     9   am
     9     9    10    2
    10     9    11    1
    11    11    12   ar
    12    12    13   ar
    13    13    14   ar
    14    14    15    1
    15    15    16    1
    16    16    17    1
    17    17    18   ar
    18    18    19   ar
    19    19    20   ar
    20    20    21   ar
    21    21    22    1
    22    22    23   ar
    23    23    24   ar
    24    24    25   ar
    25    25    26   ar
    26    26    27   ar
    27    21    28   ar
    28    14    29   ar
    29    29    30   ar
    30     7     2   ar
    31    30    11   ar
    32    28    17   ar
    33    27    22   ar
    34     1    31    1
    35     1    32    1
    36     3    33    1
    37     4    34    1
    38     5    35    1
    39     6    36    1
    40     8    37    1
    41    12    38    1
    42    13    39    1
    43    15    40    1
    44    15    41    1
    45    16    42    1
    46    19    43    1
    47    20    44    1
    48    23    45    1
    49    24    46    1
    50    25    47    1
    51    27    48    1
    52    29    49    1
    53    30    50    1
