
     RDKit          3D

 50 53  0  0  0  0  0  0  0  0999 V2000
   -6.4108    1.7507   -1.2113 N   0  0  0  0  0  0  0  0  0  0  0  0
   -7.1262    0.7742   -0.4468 C   0  0  0  0  0  0  0  0  0  0  0  0
   -8.4826    0.6293   -0.5233 C   0  0  0  0  0  0  0  0  0  0  0  0
   -9.1737   -0.3111    0.2125 C   0  0  0  0  0  0  0  0  0  0  0  0
   -8.4118   -1.1145    1.0465 C   0  0  0  0  0  0  0  0  0  0  0  0
   -7.0431   -0.9787    1.1331 C   0  0  0  0  0  0  0  0  0  0  0  0
   -6.3822   -0.0280    0.3834 C   0  0  0  0  0  0  0  0  0  0  0  0
   -4.9541    0.1203    0.4678 N   0  0  0  0  0  0  0  0  0  0  0  0
   -4.0499   -0.5836   -0.3634 C   0  0  0  0  0  0  0  0  0  0  0  0
   -4.5503   -1.3689   -1.2061 O   0  0  0  0  0  0  0  0  0  0  0  0
   -2.5940   -0.4329   -0.2779 C   0  0  0  0  0  0  0  0  0  0  0  0
   -1.7713   -1.1557   -1.1253 C   0  0  0  0  0  0  0  0  0  0  0  0
   -0.3967   -1.0530   -1.0885 C   0  0  0  0  0  0  0  0  0  0  0  0
    0.2302   -0.2125   -0.1919 C   0  0  0  0  0  0  0  0  0  0  0  0
    1.7112   -0.0919   -0.1412 C   0  0  0  0  0  0  0  0  0  0  0  0
    2.2437   -1.0527    0.7776 N   0  0  0  0  0  0  0  0  0  0  0  0
    3.6530   -1.1027    0.9739 C   0  0  0  0  0  0  0  0  0  0  0  0
    4.1482   -2.0083    1.8392 N   0  0  0  0  0  0  0  0  0  0  0  0
    5.4599   -2.1083    2.0699 C   0  0  0  0  0  0  0  0  0  0  0  0
    6.3013   -1.2322    1.3748 C   0  0  0  0  0  0  0  0  0  0  0  0
    5.8168   -0.3045    0.4908 C   0  0  0  0  0  0  0  0  0  0  0  0
    6.7053    0.6089   -0.2327 C   0  0  0  0  0  0  0  0  0  0  0  0
    8.0720    0.6111   -0.0877 C   0  0  0  0  0  0  0  0  0  0  0  0
    8.8179    1.5200   -0.8225 C   0  0  0  0  0  0  0  0  0  0  0  0
    8.2628    2.4272   -1.6957 C   0  0  0  0  0  0  0  0  0  0  0  0
    6.9269    2.4042   -1.8187 N   0  0  0  0  0  0  0  0  0  0  0  0
    6.1686    1.5401   -1.1253 C   0  0  0  0  0  0  0  0  0  0  0  0
    4.4862   -0.2646    0.3120 N   0  0  0  0  0  0  0  0  0  0  0  0
   -0.5798    0.5119    0.6565 C   0  0  0  0  0  0  0  0  0  0  0  0
   -1.9694    0.4059    0.6168 C   0  0  0  0  0  0  0  0  0  0  0  0
   -5.7598    2.4281   -0.7581 H   0  0  0  0  0  0  0  0  0  0  0  0
   -6.5308    1.7981   -2.2316 H   0  0  0  0  0  0  0  0  0  0  0  0
   -9.0449    1.2834   -1.1936 H   0  0  0  0  0  0  0  0  0  0  0  0
  -10.2507   -0.4015    0.1298 H   0  0  0  0  0  0  0  0  0  0  0  0
   -8.9566   -1.8642    1.6341 H   0  0  0  0  0  0  0  0  0  0  0  0
   -6.4955   -1.6340    1.8022 H   0  0  0  0  0  0  0  0  0  0  0  0
   -4.6071    0.7858    1.1863 H   0  0  0  0  0  0  0  0  0  0  0  0
   -2.2452   -1.8221   -1.8374 H   0  0  0  0  0  0  0  0  0  0  0  0
    0.2471   -1.6226   -1.7558 H   0  0  0  0  0  0  0  0  0  0  0  0
    1.9414    0.9608    0.1479 H   0  0  0  0  0  0  0  0  0  0  0  0
    2.1572   -0.2071   -1.1714 H   0  0  0  0  0  0  0  0  0  0  0  0
    1.6108   -1.6988    1.2890 H   0  0  0  0  0  0  0  0  0  0  0  0
    5.8297   -2.8340    2.7604 H   0  0  0  0  0  0  0  0  0  0  0  0
    7.3402   -1.3428    1.5857 H   0  0  0  0  0  0  0  0  0  0  0  0
    8.5439   -0.0853    0.5875 H   0  0  0  0  0  0  0  0  0  0  0  0
    9.8944    1.5291   -0.7149 H   0  0  0  0  0  0  0  0  0  0  0  0
    8.8341    3.1389   -2.2724 H   0  0  0  0  0  0  0  0  0  0  0  0
    5.0905    1.5308   -1.2329 H   0  0  0  0  0  0  0  0  0  0  0  0
   -0.1093    1.1800    1.3707 H   0  0  0  0  0  0  0  0  0  0  0  0
   -2.5976    0.9774    1.2855 H   0  0  0  0  0  0  0  0  0  0  0  0
  1  2  1  0
  2  3  2  0
  3  4  1  0
  4  5  2  0
  5  6  1  0
  6  7  2  0
  7  8  1  0
  8  9  1  0
  9 10  2  0
  9 11  1  0
 11 12  2  0
 12 13  1  0
 13 14  2  0
 14 15  1  0
 15 16  1  0
 16 17  1  0
 17 18  2  0
 18 19  1  0
 19 20  2  0
 20 21  1  0
 21 22  1  0
 22 23  2  0
 23 24  1  0
 24 25  2  0
 25 26  1  0
 26 27  2  0
 21 28  2  0
 14 29  1  0
 29 30  2  0
  7  2  1  0
 30 11  1  0
 28 17  1  0
 27 22  1  0
  1 31  1  0
  1 32  1  0
  3 33  1  0
  4 34  1  0
  5 35  1  0
  6 36  1  0
  8 37  1  0
 12 38  1  0
 13 39  1  0
 15 40  1  0
 15 41  1  0
 16 42  1  0
 19 43  1  0
 20 44  1  0
 23 45  1  0
 24 46  1  0
 25 47  1  0
 27 48  1  0
 29 49  1  0
 30 50  1  0
M  END
$$$$
