@<TRIPOS>MOLECULE
*****
 56 60 0 0 0
SMALL
GASTEIGER

@<TRIPOS>ATOM
      1 C          -5.0184   -2.7536    1.4292 C.3     1  UNL1       -0.0229
      2 C          -4.6847   -2.0260    0.1395 C.3     1  UNL1        0.1324
      3 C          -5.9773   -1.5329   -0.4756 C.3     1  UNL1       -0.0229
      4 O          -4.0786   -2.8701   -0.7995 O.3     1  UNL1       -0.4418
      5 C          -2.9249   -2.2440   -1.2897 C.2     1  UNL1        0.4084
      6 O          -2.3896   -2.5656   -2.3965 O.2     1  UNL1       -0.2258
      7 N          -2.5109   -1.2537   -0.3663 N.am    1  UNL1       -0.2261
      8 C          -1.2127   -0.7193   -0.2348 C.ar    1  UNL1        0.0403
      9 C          -0.9395    0.2693    0.7211 C.ar    1  UNL1       -0.0396
     10 C           0.3141    0.7921    0.8599 C.ar    1  UNL1       -0.0522
     11 C           1.3736    0.3836    0.0771 C.ar    1  UNL1       -0.0163
     12 C           2.6885    0.9926    0.2908 C.ar    1  UNL1        0.0010
     13 C           2.8367    2.2936    0.7062 C.ar    1  UNL1        0.0374
     14 N           4.0315    2.8758    0.9105 N.ar    1  UNL1       -0.2394
     15 C           5.1451    2.1439    0.6963 C.ar    1  UNL1        0.1269
     16 N           6.4548    2.6967    0.8937 N.pl3   1  UNL1       -0.3426
     17 C           5.1003    0.8317    0.2789 C.ar    1  UNL1        0.0591
     18 C           6.3021    0.0386    0.0474 C.ar    1  UNL1        0.1630
     19 N           7.5247    0.5636    0.2350 N.ar    1  UNL1       -0.2356
     20 C           8.6551   -0.1437    0.0296 C.ar    1  UNL1        0.0314
     21 C           8.5933   -1.4569   -0.3887 C.ar    1  UNL1       -0.0254
     22 C           7.3340   -1.9900   -0.5795 C.ar    1  UNL1        0.0314
     23 N           6.2214   -1.2382   -0.3597 N.ar    1  UNL1       -0.2356
     24 C           3.8597    0.2652    0.0788 C.ar    1  UNL1       -0.0386
     25 C           1.1378   -0.5753   -0.8597 C.ar    1  UNL1       -0.0522
     26 C          -0.1372   -1.1068   -1.0005 C.ar    1  UNL1       -0.0396
     27 C          -3.6990   -0.9411    0.3818 C.3     1  UNL1        0.0984
     28 C          -4.2253    0.4101    0.0737 C.ar    1  UNL1       -0.0228
     29 C          -4.3361    0.9041   -1.1990 C.ar    1  UNL1       -0.0567
     30 C          -4.8314    2.1659   -1.4596 C.ar    1  UNL1       -0.0614
     31 C          -5.2206    2.9377   -0.4028 C.ar    1  UNL1       -0.0617
     32 C          -5.1227    2.4714    0.8954 C.ar    1  UNL1       -0.0614
     33 C          -4.6248    1.2085    1.1239 C.ar    1  UNL1       -0.0567
     34 H          -5.7296   -2.1348    1.9801 H       1  UNL1        0.0269
     35 H          -5.3297   -3.7833    1.2386 H       1  UNL1        0.0269
     36 H          -4.0723   -2.7625    2.0472 H       1  UNL1        0.0269
     37 H          -6.7416   -2.3211   -0.2488 H       1  UNL1        0.0269
     38 H          -5.8615   -1.5035   -1.5769 H       1  UNL1        0.0269
     39 H          -6.3216   -0.5753   -0.0445 H       1  UNL1        0.0269
     40 H          -1.7607    0.5969    1.3400 H       1  UNL1        0.0636
     41 H           0.5206    1.5640    1.6076 H       1  UNL1        0.0624
     42 H           1.9190    2.8713    0.8756 H       1  UNL1        0.0836
     43 H           7.0067    2.5219    1.7647 H       1  UNL1        0.1437
     44 H           6.8400    3.2838    0.1307 H       1  UNL1        0.1437
     45 H           9.6375    0.2796    0.1810 H       1  UNL1        0.0831
     46 H           9.4864   -2.0556   -0.5631 H       1  UNL1        0.0648
     47 H           7.2729   -3.0232   -0.9088 H       1  UNL1        0.0831
     48 H           3.7562   -0.7472   -0.2441 H       1  UNL1        0.0632
     49 H           1.9627   -0.9196   -1.4957 H       1  UNL1        0.0624
     50 H          -0.2872   -1.8661   -1.7537 H       1  UNL1        0.0636
     51 H          -3.3870   -0.9811    1.4633 H       1  UNL1        0.0595
     52 H          -4.0172    0.2601   -2.0085 H       1  UNL1        0.0621
     53 H          -4.9113    2.5392   -2.4756 H       1  UNL1        0.0618
     54 H          -5.6188    3.9432   -0.5763 H       1  UNL1        0.0618
     55 H          -5.4407    3.1120    1.6969 H       1  UNL1        0.0618
     56 H          -4.5617    0.8739    2.1500 H       1  UNL1        0.0621
@<TRIPOS>BOND
     1     1     2    1
     2     2     3    1
     3     2     4    1
     4     4     5    1
     5     5     6    2
     6     5     7   am
     7     7     8    1
     8     8     9   ar
     9     9    10   ar
    10    10    11   ar
    11    11    12    1
    12    12    13   ar
    13    13    14   ar
    14    14    15   ar
    15    15    16    1
    16    15    17   ar
    17    17    18    1
    18    18    19   ar
    19    19    20   ar
    20    20    21   ar
    21    21    22   ar
    22    22    23   ar
    23    17    24   ar
    24    11    25   ar
    25    25    26   ar
    26     7    27    1
    27    27    28    1
    28    28    29   ar
    29    29    30   ar
    30    30    31   ar
    31    31    32   ar
    32    32    33   ar
    33    27     2    1
    34    33    28   ar
    35    26     8   ar
    36    24    12   ar
    37    23    18   ar
    38     1    34    1
    39     1    35    1
    40     1    36    1
    41     3    37    1
    42     3    38    1
    43     3    39    1
    44     9    40    1
    45    10    41    1
    46    13    42    1
    47    16    43    1
    48    16    44    1
    49    20    45    1
    50    21    46    1
    51    22    47    1
    52    24    48    1
    53    25    49    1
    54    26    50    1
    55    27    51    1
    56    29    52    1
    57    30    53    1
    58    31    54    1
    59    32    55    1
    60    33    56    1
