
     RDKit          3D

 56 60  0  0  0  0  0  0  0  0999 V2000
   -5.0184   -2.7536    1.4292 C   0  0  0  0  0  0  0  0  0  0  0  0
   -4.6847   -2.0260    0.1395 C   0  0  0  0  0  0  0  0  0  0  0  0
   -5.9773   -1.5329   -0.4756 C   0  0  0  0  0  0  0  0  0  0  0  0
   -4.0786   -2.8701   -0.7995 O   0  0  0  0  0  0  0  0  0  0  0  0
   -2.9249   -2.2440   -1.2897 C   0  0  0  0  0  0  0  0  0  0  0  0
   -2.3896   -2.5656   -2.3965 O   0  0  0  0  0  0  0  0  0  0  0  0
   -2.5109   -1.2537   -0.3663 N   0  0  0  0  0  0  0  0  0  0  0  0
   -1.2127   -0.7193   -0.2348 C   0  0  0  0  0  0  0  0  0  0  0  0
   -0.9395    0.2693    0.7211 C   0  0  0  0  0  0  0  0  0  0  0  0
    0.3141    0.7921    0.8599 C   0  0  0  0  0  0  0  0  0  0  0  0
    1.3736    0.3836    0.0771 C   0  0  0  0  0  0  0  0  0  0  0  0
    2.6885    0.9926    0.2908 C   0  0  0  0  0  0  0  0  0  0  0  0
    2.8367    2.2936    0.7062 C   0  0  0  0  0  0  0  0  0  0  0  0
    4.0315    2.8758    0.9105 N   0  0  0  0  0  0  0  0  0  0  0  0
    5.1451    2.1439    0.6963 C   0  0  0  0  0  0  0  0  0  0  0  0
    6.4548    2.6967    0.8937 N   0  0  0  0  0  0  0  0  0  0  0  0
    5.1003    0.8317    0.2789 C   0  0  0  0  0  0  0  0  0  0  0  0
    6.3021    0.0386    0.0474 C   0  0  0  0  0  0  0  0  0  0  0  0
    7.5247    0.5636    0.2350 N   0  0  0  0  0  0  0  0  0  0  0  0
    8.6551   -0.1437    0.0296 C   0  0  0  0  0  0  0  0  0  0  0  0
    8.5933   -1.4569   -0.3887 C   0  0  0  0  0  0  0  0  0  0  0  0
    7.3340   -1.9900   -0.5795 C   0  0  0  0  0  0  0  0  0  0  0  0
    6.2214   -1.2382   -0.3597 N   0  0  0  0  0  0  0  0  0  0  0  0
    3.8597    0.2652    0.0788 C   0  0  0  0  0  0  0  0  0  0  0  0
    1.1378   -0.5753   -0.8597 C   0  0  0  0  0  0  0  0  0  0  0  0
   -0.1372   -1.1068   -1.0005 C   0  0  0  0  0  0  0  0  0  0  0  0
   -3.6990   -0.9411    0.3818 C   0  0  1  0  0  0  0  0  0  0  0  0
   -4.2253    0.4101    0.0737 C   0  0  0  0  0  0  0  0  0  0  0  0
   -4.3361    0.9041   -1.1990 C   0  0  0  0  0  0  0  0  0  0  0  0
   -4.8314    2.1659   -1.4596 C   0  0  0  0  0  0  0  0  0  0  0  0
   -5.2206    2.9377   -0.4028 C   0  0  0  0  0  0  0  0  0  0  0  0
   -5.1227    2.4714    0.8954 C   0  0  0  0  0  0  0  0  0  0  0  0
   -4.6248    1.2085    1.1239 C   0  0  0  0  0  0  0  0  0  0  0  0
   -5.7296   -2.1348    1.9801 H   0  0  0  0  0  0  0  0  0  0  0  0
   -5.3297   -3.7833    1.2386 H   0  0  0  0  0  0  0  0  0  0  0  0
   -4.0723   -2.7625    2.0472 H   0  0  0  0  0  0  0  0  0  0  0  0
   -6.7416   -2.3211   -0.2488 H   0  0  0  0  0  0  0  0  0  0  0  0
   -5.8615   -1.5035   -1.5769 H   0  0  0  0  0  0  0  0  0  0  0  0
   -6.3216   -0.5753   -0.0445 H   0  0  0  0  0  0  0  0  0  0  0  0
   -1.7607    0.5969    1.3400 H   0  0  0  0  0  0  0  0  0  0  0  0
    0.5206    1.5640    1.6076 H   0  0  0  0  0  0  0  0  0  0  0  0
    1.9190    2.8713    0.8756 H   0  0  0  0  0  0  0  0  0  0  0  0
    7.0067    2.5219    1.7647 H   0  0  0  0  0  0  0  0  0  0  0  0
    6.8400    3.2838    0.1307 H   0  0  0  0  0  0  0  0  0  0  0  0
    9.6375    0.2796    0.1810 H   0  0  0  0  0  0  0  0  0  0  0  0
    9.4864   -2.0556   -0.5631 H   0  0  0  0  0  0  0  0  0  0  0  0
    7.2729   -3.0232   -0.9088 H   0  0  0  0  0  0  0  0  0  0  0  0
    3.7562   -0.7472   -0.2441 H   0  0  0  0  0  0  0  0  0  0  0  0
    1.9627   -0.9196   -1.4957 H   0  0  0  0  0  0  0  0  0  0  0  0
   -0.2872   -1.8661   -1.7537 H   0  0  0  0  0  0  0  0  0  0  0  0
   -3.3870   -0.9811    1.4633 H   0  0  0  0  0  0  0  0  0  0  0  0
   -4.0172    0.2601   -2.0085 H   0  0  0  0  0  0  0  0  0  0  0  0
   -4.9113    2.5392   -2.4756 H   0  0  0  0  0  0  0  0  0  0  0  0
   -5.6188    3.9432   -0.5763 H   0  0  0  0  0  0  0  0  0  0  0  0
   -5.4407    3.1120    1.6969 H   0  0  0  0  0  0  0  0  0  0  0  0
   -4.5617    0.8739    2.1500 H   0  0  0  0  0  0  0  0  0  0  0  0
  1  2  1  0
  2  3  1  0
  2  4  1  0
  4  5  1  0
  5  6  2  0
  5  7  1  0
  7  8  1  0
  8  9  2  0
  9 10  1  0
 10 11  2  0
 11 12  1  0
 12 13  2  0
 13 14  1  0
 14 15  2  0
 15 16  1  0
 15 17  1  0
 17 18  1  0
 18 19  2  0
 19 20  1  0
 20 21  2  0
 21 22  1  0
 22 23  2  0
 17 24  2  0
 11 25  1  0
 25 26  2  0
  7 27  1  0
 27 28  1  0
 28 29  2  0
 29 30  1  0
 30 31  2  0
 31 32  1  0
 32 33  2  0
 27  2  1  0
 33 28  1  0
 26  8  1  0
 24 12  1  0
 23 18  1  0
  1 34  1  0
  1 35  1  0
  1 36  1  0
  3 37  1  0
  3 38  1  0
  3 39  1  0
  9 40  1  0
 10 41  1  0
 13 42  1  0
 16 43  1  0
 16 44  1  0
 20 45  1  0
 21 46  1  0
 22 47  1  0
 24 48  1  0
 25 49  1  0
 26 50  1  0
 27 51  1  1
 29 52  1  0
 30 53  1  0
 31 54  1  0
 32 55  1  0
 33 56  1  0
M  END
$$$$
