@<TRIPOS>MOLECULE
*****
 111 110 0 0 0
SMALL
GASTEIGER

@<TRIPOS>ATOM
      1 C         -11.3687    2.8507    2.2231 C.3     1  UNL1       -0.0622
      2 C         -10.6543    1.7171    1.5154 C.3     1  UNL1       -0.0385
      3 C         -11.6291    1.0775    0.5568 C.3     1  UNL1       -0.0622
      4 C          -9.4058    2.1958    0.8038 C.3     1  UNL1        0.0263
      5 C          -8.7550    1.0408    0.1468 C.2     1  UNL1        0.2139
      6 O          -9.3083   -0.1015    0.2257 O.2     1  UNL1       -0.2758
      7 N          -7.5370    1.1224   -0.5758 N.am    1  UNL1       -0.3037
      8 C          -6.9635   -0.0597   -1.1881 C.3     1  UNL1        0.1017
      9 C          -5.7165   -0.4658   -0.4517 C.2     1  UNL1        0.2342
     10 O          -5.1470   -1.4873   -0.8524 O.2     1  UNL1       -0.2738
     11 N          -5.2233    0.2625    0.6306 N.am    1  UNL1       -0.3022
     12 C          -4.0604    0.0097    1.4391 C.3     1  UNL1        0.1017
     13 C          -2.9000   -0.3449    0.5980 C.2     1  UNL1        0.2339
     14 O          -3.0142   -0.3162   -0.6332 O.2     1  UNL1       -0.2738
     15 N          -1.6769   -0.7127    1.1869 N.am    1  UNL1       -0.3084
     16 C          -0.4594   -1.1184    0.5256 C.3     1  UNL1        0.0498
     17 C          -0.6342   -1.6115   -0.8816 C.3     1  UNL1       -0.0297
     18 C          -1.4683   -2.8578   -0.9033 C.3     1  UNL1       -0.0450
     19 C          -0.7490   -3.9453   -0.0778 C.3     1  UNL1       -0.0626
     20 C          -1.4683   -3.3744   -2.3462 C.3     1  UNL1       -0.0626
     21 C           0.6690   -0.1860    0.7736 C.3     1  UNL1        0.0817
     22 O           0.8302   -0.0758    2.2036 O.3     1  UNL1       -0.3895
     23 C           1.9956   -0.8568    0.3861 C.3     1  UNL1        0.0517
     24 C           3.0760    0.1150    0.6882 C.2     1  UNL1        0.2161
     25 O           2.8053    1.2949    0.9334 O.2     1  UNL1       -0.2757
     26 N           4.4063   -0.3656    0.6886 N.am    1  UNL1       -0.3042
     27 C           5.5109    0.5612    0.9905 C.3     1  UNL1        0.0966
     28 C           5.7566    0.3663    2.4954 C.3     1  UNL1       -0.0381
     29 C           6.7009    0.1698    0.2664 C.2     1  UNL1        0.2334
     30 O           6.6511   -0.8576   -0.4973 O.2     1  UNL1       -0.2738
     31 N           7.9605    0.8661    0.3462 N.am    1  UNL1       -0.3085
     32 C           9.1269    0.4303   -0.3965 C.3     1  UNL1        0.0498
     33 C           9.4059    1.5219   -1.3971 C.3     1  UNL1       -0.0297
     34 C          10.5718    1.3206   -2.2906 C.3     1  UNL1       -0.0450
     35 C          10.6090    2.5628   -3.2117 C.3     1  UNL1       -0.0626
     36 C          10.3761    0.1344   -3.1754 C.3     1  UNL1       -0.0626
     37 C          10.2465   -0.1344    0.3396 C.3     1  UNL1        0.0836
     38 O          11.2550   -0.5226   -0.5807 O.3     1  UNL1       -0.3894
     39 C          10.8356    0.4919    1.5213 C.3     1  UNL1        0.0724
     40 C          10.0667    0.6857    2.7235 C.2     1  UNL1        0.3072
     41 O           8.9223    0.2471    2.9452 O.2     1  UNL1       -0.2509
     42 O          10.6309    1.4359    3.7725 O.3     1  UNL1       -0.4806
     43 C          -4.4528   -0.9270    2.5078 C.3     1  UNL1       -0.0197
     44 C          -4.9518   -2.2681    2.0354 C.3     1  UNL1       -0.0605
     45 C          -3.5707   -1.0962    3.6837 C.3     1  UNL1       -0.0605
     46 C          -6.7184    0.1284   -2.6495 C.3     1  UNL1       -0.0197
     47 C          -8.0045    0.4342   -3.4017 C.3     1  UNL1       -0.0605
     48 C          -5.7279    1.2068   -2.9722 C.3     1  UNL1       -0.0605
     49 H         -11.0769    3.8413    1.8681 H       1  UNL1        0.0232
     50 H         -11.1591    2.8221    3.3350 H       1  UNL1        0.0232
     51 H         -12.4844    2.7585    2.1390 H       1  UNL1        0.0232
     52 H         -10.3864    0.9692    2.2891 H       1  UNL1        0.0300
     53 H         -11.8564    0.0634    0.9114 H       1  UNL1        0.0232
     54 H         -12.6010    1.6385    0.5481 H       1  UNL1        0.0232
     55 H         -11.2283    1.0002   -0.4724 H       1  UNL1        0.0232
     56 H          -8.7308    2.7457    1.4696 H       1  UNL1        0.0361
     57 H          -9.7505    2.8678   -0.0278 H       1  UNL1        0.0361
     58 H          -7.0771    2.0556   -0.6445 H       1  UNL1        0.1495
     59 H          -7.7269   -0.8873   -1.0769 H       1  UNL1        0.0597
     60 H          -5.7959    1.1309    0.8969 H       1  UNL1        0.1495
     61 H          -3.7571    0.9889    1.9101 H       1  UNL1        0.0597
     62 H          -1.5733   -0.6978    2.2666 H       1  UNL1        0.1491
     63 H          -0.1970   -2.1177    1.0693 H       1  UNL1        0.0524
     64 H          -1.0014   -0.8493   -1.5953 H       1  UNL1        0.0286
     65 H           0.3863   -1.8786   -1.2722 H       1  UNL1        0.0286
     66 H          -2.5006   -2.7858   -0.6019 H       1  UNL1        0.0296
     67 H          -1.0858   -3.9338    0.9702 H       1  UNL1        0.0232
     68 H           0.3181   -3.6892   -0.0995 H       1  UNL1        0.0232
     69 H          -0.9374   -4.9200   -0.5761 H       1  UNL1        0.0232
     70 H          -0.7051   -2.8506   -2.9408 H       1  UNL1        0.0232
     71 H          -2.4836   -3.2041   -2.8088 H       1  UNL1        0.0232
     72 H          -1.2389   -4.4482   -2.3828 H       1  UNL1        0.0232
     73 H           0.6194    0.7887    0.3019 H       1  UNL1        0.0616
     74 H           0.6415    0.8600    2.4526 H       1  UNL1        0.2099
     75 H           2.0876   -1.7368    1.0818 H       1  UNL1        0.0384
     76 H           2.0392   -1.1590   -0.6662 H       1  UNL1        0.0384
     77 H           4.6185   -1.3649    0.4743 H       1  UNL1        0.1494
     78 H           5.1444    1.5852    0.8739 H       1  UNL1        0.0592
     79 H           6.3117    1.2202    2.9094 H       1  UNL1        0.0252
     80 H           4.7640    0.2959    3.0167 H       1  UNL1        0.0252
     81 H           6.3299   -0.5610    2.6722 H       1  UNL1        0.0252
     82 H           7.9514    1.7079    0.9609 H       1  UNL1        0.1491
     83 H           8.7321   -0.4267   -1.0464 H       1  UNL1        0.0524
     84 H           9.4029    2.5416   -0.9105 H       1  UNL1        0.0286
     85 H           8.4990    1.5673   -2.0619 H       1  UNL1        0.0286
     86 H          11.5622    1.3644   -1.7827 H       1  UNL1        0.0296
     87 H          10.0493    2.3319   -4.1362 H       1  UNL1        0.0232
     88 H          11.6643    2.7703   -3.5230 H       1  UNL1        0.0232
     89 H          10.1290    3.4184   -2.7299 H       1  UNL1        0.0232
     90 H           9.6849   -0.6253   -2.8206 H       1  UNL1        0.0232
     91 H           9.9819    0.4678   -4.1734 H       1  UNL1        0.0232
     92 H          11.3678   -0.3783   -3.3230 H       1  UNL1        0.0232
     93 H           9.8782   -1.1727    0.6882 H       1  UNL1        0.0617
     94 H          11.8029   -1.2393   -0.1664 H       1  UNL1        0.2099
     95 H          11.7716   -0.0740    1.8400 H       1  UNL1        0.0404
     96 H          11.3094    1.4705    1.1701 H       1  UNL1        0.0404
     97 H          10.0523    1.9280    4.4445 H       1  UNL1        0.2951
     98 H          -5.4133   -0.4482    2.9457 H       1  UNL1        0.0318
     99 H          -4.2413   -2.8022    1.3773 H       1  UNL1        0.0233
    100 H          -5.9836   -2.2076    1.6530 H       1  UNL1        0.0233
    101 H          -5.0039   -2.9164    2.9607 H       1  UNL1        0.0233
    102 H          -2.9285   -2.0224    3.6352 H       1  UNL1        0.0233
    103 H          -3.0343   -0.1968    4.0183 H       1  UNL1        0.0233
    104 H          -4.2246   -1.3426    4.5952 H       1  UNL1        0.0233
    105 H          -6.3301   -0.8271   -3.0728 H       1  UNL1        0.0318
    106 H          -8.0979    1.5302   -3.5793 H       1  UNL1        0.0233
    107 H          -8.8975    0.0731   -2.8516 H       1  UNL1        0.0233
    108 H          -8.0358   -0.0502   -4.4009 H       1  UNL1        0.0233
    109 H          -4.7596    0.7720   -3.3245 H       1  UNL1        0.0233
    110 H          -6.0879    1.8403   -3.8319 H       1  UNL1        0.0233
    111 H          -5.5509    1.8339   -2.0606 H       1  UNL1        0.0233
@<TRIPOS>BOND
     1     1     2    1
     2     2     3    1
     3     2     4    1
     4     4     5    1
     5     5     6    2
     6     5     7   am
     7     7     8    1
     8     8     9    1
     9     9    10    2
    10     9    11   am
    11    11    12    1
    12    12    13    1
    13    13    14    2
    14    13    15   am
    15    15    16    1
    16    16    17    1
    17    17    18    1
    18    18    19    1
    19    18    20    1
    20    16    21    1
    21    21    22    1
    22    21    23    1
    23    23    24    1
    24    24    25    2
    25    24    26   am
    26    26    27    1
    27    27    28    1
    28    27    29    1
    29    29    30    2
    30    29    31   am
    31    31    32    1
    32    32    33    1
    33    33    34    1
    34    34    35    1
    35    34    36    1
    36    32    37    1
    37    37    38    1
    38    37    39    1
    39    39    40    1
    40    40    41    2
    41    40    42    1
    42    12    43    1
    43    43    44    1
    44    43    45    1
    45     8    46    1
    46    46    47    1
    47    46    48    1
    48     1    49    1
    49     1    50    1
    50     1    51    1
    51     2    52    1
    52     3    53    1
    53     3    54    1
    54     3    55    1
    55     4    56    1
    56     4    57    1
    57     7    58    1
    58     8    59    1
    59    11    60    1
    60    12    61    1
    61    15    62    1
    62    16    63    1
    63    17    64    1
    64    17    65    1
    65    18    66    1
    66    19    67    1
    67    19    68    1
    68    19    69    1
    69    20    70    1
    70    20    71    1
    71    20    72    1
    72    21    73    1
    73    22    74    1
    74    23    75    1
    75    23    76    1
    76    26    77    1
    77    27    78    1
    78    28    79    1
    79    28    80    1
    80    28    81    1
    81    31    82    1
    82    32    83    1
    83    33    84    1
    84    33    85    1
    85    34    86    1
    86    35    87    1
    87    35    88    1
    88    35    89    1
    89    36    90    1
    90    36    91    1
    91    36    92    1
    92    37    93    1
    93    38    94    1
    94    39    95    1
    95    39    96    1
    96    42    97    1
    97    43    98    1
    98    44    99    1
    99    44   100    1
   100    44   101    1
   101    45   102    1
   102    45   103    1
   103    45   104    1
   104    46   105    1
   105    47   106    1
   106    47   107    1
   107    47   108    1
   108    48   109    1
   109    48   110    1
   110    48   111    1
