
     RDKit          3D

111110  0  0  0  0  0  0  0  0999 V2000
  -11.3687    2.8507    2.2231 C   0  0  0  0  0  0  0  0  0  0  0  0
  -10.6543    1.7171    1.5154 C   0  0  0  0  0  0  0  0  0  0  0  0
  -11.6291    1.0775    0.5568 C   0  0  0  0  0  0  0  0  0  0  0  0
   -9.4058    2.1958    0.8038 C   0  0  0  0  0  0  0  0  0  0  0  0
   -8.7550    1.0408    0.1468 C   0  0  0  0  0  0  0  0  0  0  0  0
   -9.3083   -0.1015    0.2257 O   0  0  0  0  0  0  0  0  0  0  0  0
   -7.5370    1.1224   -0.5758 N   0  0  0  0  0  0  0  0  0  0  0  0
   -6.9635   -0.0597   -1.1881 C   0  0  2  0  0  0  0  0  0  0  0  0
   -5.7165   -0.4658   -0.4517 C   0  0  0  0  0  0  0  0  0  0  0  0
   -5.1470   -1.4873   -0.8524 O   0  0  0  0  0  0  0  0  0  0  0  0
   -5.2233    0.2625    0.6306 N   0  0  0  0  0  0  0  0  0  0  0  0
   -4.0604    0.0097    1.4391 C   0  0  2  0  0  0  0  0  0  0  0  0
   -2.9000   -0.3449    0.5980 C   0  0  0  0  0  0  0  0  0  0  0  0
   -3.0142   -0.3162   -0.6332 O   0  0  0  0  0  0  0  0  0  0  0  0
   -1.6769   -0.7127    1.1869 N   0  0  0  0  0  0  0  0  0  0  0  0
   -0.4594   -1.1184    0.5256 C   0  0  1  0  0  0  0  0  0  0  0  0
   -0.6342   -1.6115   -0.8816 C   0  0  0  0  0  0  0  0  0  0  0  0
   -1.4683   -2.8578   -0.9033 C   0  0  0  0  0  0  0  0  0  0  0  0
   -0.7490   -3.9453   -0.0778 C   0  0  0  0  0  0  0  0  0  0  0  0
   -1.4683   -3.3744   -2.3462 C   0  0  0  0  0  0  0  0  0  0  0  0
    0.6690   -0.1860    0.7736 C   0  0  1  0  0  0  0  0  0  0  0  0
    0.8302   -0.0758    2.2036 O   0  0  0  0  0  0  0  0  0  0  0  0
    1.9956   -0.8568    0.3861 C   0  0  0  0  0  0  0  0  0  0  0  0
    3.0760    0.1150    0.6882 C   0  0  0  0  0  0  0  0  0  0  0  0
    2.8053    1.2949    0.9334 O   0  0  0  0  0  0  0  0  0  0  0  0
    4.4063   -0.3656    0.6886 N   0  0  0  0  0  0  0  0  0  0  0  0
    5.5109    0.5612    0.9905 C   0  0  1  0  0  0  0  0  0  0  0  0
    5.7566    0.3663    2.4954 C   0  0  0  0  0  0  0  0  0  0  0  0
    6.7009    0.1698    0.2664 C   0  0  0  0  0  0  0  0  0  0  0  0
    6.6511   -0.8576   -0.4973 O   0  0  0  0  0  0  0  0  0  0  0  0
    7.9605    0.8661    0.3462 N   0  0  0  0  0  0  0  0  0  0  0  0
    9.1269    0.4303   -0.3965 C   0  0  1  0  0  0  0  0  0  0  0  0
    9.4059    1.5219   -1.3971 C   0  0  0  0  0  0  0  0  0  0  0  0
   10.5718    1.3206   -2.2906 C   0  0  0  0  0  0  0  0  0  0  0  0
   10.6090    2.5628   -3.2117 C   0  0  0  0  0  0  0  0  0  0  0  0
   10.3761    0.1344   -3.1754 C   0  0  0  0  0  0  0  0  0  0  0  0
   10.2465   -0.1344    0.3396 C   0  0  1  0  0  0  0  0  0  0  0  0
   11.2550   -0.5226   -0.5807 O   0  0  0  0  0  0  0  0  0  0  0  0
   10.8356    0.4919    1.5213 C   0  0  0  0  0  0  0  0  0  0  0  0
   10.0667    0.6857    2.7235 C   0  0  0  0  0  0  0  0  0  0  0  0
    8.9223    0.2471    2.9452 O   0  0  0  0  0  0  0  0  0  0  0  0
   10.6309    1.4359    3.7725 O   0  0  0  0  0  0  0  0  0  0  0  0
   -4.4528   -0.9270    2.5078 C   0  0  0  0  0  0  0  0  0  0  0  0
   -4.9518   -2.2681    2.0354 C   0  0  0  0  0  0  0  0  0  0  0  0
   -3.5707   -1.0962    3.6837 C   0  0  0  0  0  0  0  0  0  0  0  0
   -6.7184    0.1284   -2.6495 C   0  0  0  0  0  0  0  0  0  0  0  0
   -8.0045    0.4342   -3.4017 C   0  0  0  0  0  0  0  0  0  0  0  0
   -5.7279    1.2068   -2.9722 C   0  0  0  0  0  0  0  0  0  0  0  0
  -11.0769    3.8413    1.8681 H   0  0  0  0  0  0  0  0  0  0  0  0
  -11.1591    2.8221    3.3350 H   0  0  0  0  0  0  0  0  0  0  0  0
  -12.4844    2.7585    2.1390 H   0  0  0  0  0  0  0  0  0  0  0  0
  -10.3864    0.9692    2.2891 H   0  0  0  0  0  0  0  0  0  0  0  0
  -11.8564    0.0634    0.9114 H   0  0  0  0  0  0  0  0  0  0  0  0
  -12.6010    1.6385    0.5481 H   0  0  0  0  0  0  0  0  0  0  0  0
  -11.2283    1.0002   -0.4724 H   0  0  0  0  0  0  0  0  0  0  0  0
   -8.7308    2.7457    1.4696 H   0  0  0  0  0  0  0  0  0  0  0  0
   -9.7505    2.8678   -0.0278 H   0  0  0  0  0  0  0  0  0  0  0  0
   -7.0771    2.0556   -0.6445 H   0  0  0  0  0  0  0  0  0  0  0  0
   -7.7269   -0.8873   -1.0769 H   0  0  0  0  0  0  0  0  0  0  0  0
   -5.7959    1.1309    0.8969 H   0  0  0  0  0  0  0  0  0  0  0  0
   -3.7571    0.9889    1.9101 H   0  0  0  0  0  0  0  0  0  0  0  0
   -1.5733   -0.6978    2.2666 H   0  0  0  0  0  0  0  0  0  0  0  0
   -0.1970   -2.1177    1.0693 H   0  0  0  0  0  0  0  0  0  0  0  0
   -1.0014   -0.8493   -1.5953 H   0  0  0  0  0  0  0  0  0  0  0  0
    0.3863   -1.8786   -1.2722 H   0  0  0  0  0  0  0  0  0  0  0  0
   -2.5006   -2.7858   -0.6019 H   0  0  0  0  0  0  0  0  0  0  0  0
   -1.0858   -3.9338    0.9702 H   0  0  0  0  0  0  0  0  0  0  0  0
    0.3181   -3.6892   -0.0995 H   0  0  0  0  0  0  0  0  0  0  0  0
   -0.9374   -4.9200   -0.5761 H   0  0  0  0  0  0  0  0  0  0  0  0
   -0.7051   -2.8506   -2.9408 H   0  0  0  0  0  0  0  0  0  0  0  0
   -2.4836   -3.2041   -2.8088 H   0  0  0  0  0  0  0  0  0  0  0  0
   -1.2389   -4.4482   -2.3828 H   0  0  0  0  0  0  0  0  0  0  0  0
    0.6194    0.7887    0.3019 H   0  0  0  0  0  0  0  0  0  0  0  0
    0.6415    0.8600    2.4526 H   0  0  0  0  0  0  0  0  0  0  0  0
    2.0876   -1.7368    1.0818 H   0  0  0  0  0  0  0  0  0  0  0  0
    2.0392   -1.1590   -0.6662 H   0  0  0  0  0  0  0  0  0  0  0  0
    4.6185   -1.3649    0.4743 H   0  0  0  0  0  0  0  0  0  0  0  0
    5.1444    1.5852    0.8739 H   0  0  0  0  0  0  0  0  0  0  0  0
    6.3117    1.2202    2.9094 H   0  0  0  0  0  0  0  0  0  0  0  0
    4.7640    0.2959    3.0167 H   0  0  0  0  0  0  0  0  0  0  0  0
    6.3299   -0.5610    2.6722 H   0  0  0  0  0  0  0  0  0  0  0  0
    7.9514    1.7079    0.9609 H   0  0  0  0  0  0  0  0  0  0  0  0
    8.7321   -0.4267   -1.0464 H   0  0  0  0  0  0  0  0  0  0  0  0
    9.4029    2.5416   -0.9105 H   0  0  0  0  0  0  0  0  0  0  0  0
    8.4990    1.5673   -2.0619 H   0  0  0  0  0  0  0  0  0  0  0  0
   11.5622    1.3644   -1.7827 H   0  0  0  0  0  0  0  0  0  0  0  0
   10.0493    2.3319   -4.1362 H   0  0  0  0  0  0  0  0  0  0  0  0
   11.6643    2.7703   -3.5230 H   0  0  0  0  0  0  0  0  0  0  0  0
   10.1290    3.4184   -2.7299 H   0  0  0  0  0  0  0  0  0  0  0  0
    9.6849   -0.6253   -2.8206 H   0  0  0  0  0  0  0  0  0  0  0  0
    9.9819    0.4678   -4.1734 H   0  0  0  0  0  0  0  0  0  0  0  0
   11.3678   -0.3783   -3.3230 H   0  0  0  0  0  0  0  0  0  0  0  0
    9.8782   -1.1727    0.6882 H   0  0  0  0  0  0  0  0  0  0  0  0
   11.8029   -1.2393   -0.1664 H   0  0  0  0  0  0  0  0  0  0  0  0
   11.7716   -0.0740    1.8400 H   0  0  0  0  0  0  0  0  0  0  0  0
   11.3094    1.4705    1.1701 H   0  0  0  0  0  0  0  0  0  0  0  0
   10.0523    1.9280    4.4445 H   0  0  0  0  0  0  0  0  0  0  0  0
   -5.4133   -0.4482    2.9457 H   0  0  0  0  0  0  0  0  0  0  0  0
   -4.2413   -2.8022    1.3773 H   0  0  0  0  0  0  0  0  0  0  0  0
   -5.9836   -2.2076    1.6530 H   0  0  0  0  0  0  0  0  0  0  0  0
   -5.0039   -2.9164    2.9607 H   0  0  0  0  0  0  0  0  0  0  0  0
   -2.9285   -2.0224    3.6352 H   0  0  0  0  0  0  0  0  0  0  0  0
   -3.0343   -0.1968    4.0183 H   0  0  0  0  0  0  0  0  0  0  0  0
   -4.2246   -1.3426    4.5952 H   0  0  0  0  0  0  0  0  0  0  0  0
   -6.3301   -0.8271   -3.0728 H   0  0  0  0  0  0  0  0  0  0  0  0
   -8.0979    1.5302   -3.5793 H   0  0  0  0  0  0  0  0  0  0  0  0
   -8.8975    0.0731   -2.8516 H   0  0  0  0  0  0  0  0  0  0  0  0
   -8.0358   -0.0502   -4.4009 H   0  0  0  0  0  0  0  0  0  0  0  0
   -4.7596    0.7720   -3.3245 H   0  0  0  0  0  0  0  0  0  0  0  0
   -6.0879    1.8403   -3.8319 H   0  0  0  0  0  0  0  0  0  0  0  0
   -5.5509    1.8339   -2.0606 H   0  0  0  0  0  0  0  0  0  0  0  0
  1  2  1  0
  2  3  1  0
  2  4  1  0
  4  5  1  0
  5  6  2  0
  5  7  1  0
  7  8  1  0
  8  9  1  0
  9 10  2  0
  9 11  1  0
 11 12  1  0
 12 13  1  0
 13 14  2  0
 13 15  1  0
 15 16  1  0
 16 17  1  0
 17 18  1  0
 18 19  1  0
 18 20  1  0
 16 21  1  0
 21 22  1  0
 21 23  1  0
 23 24  1  0
 24 25  2  0
 24 26  1  0
 26 27  1  0
 27 28  1  0
 27 29  1  0
 29 30  2  0
 29 31  1  0
 31 32  1  0
 32 33  1  0
 33 34  1  0
 34 35  1  0
 34 36  1  0
 32 37  1  0
 37 38  1  0
 37 39  1  0
 39 40  1  0
 40 41  2  0
 40 42  1  0
 12 43  1  0
 43 44  1  0
 43 45  1  0
  8 46  1  0
 46 47  1  0
 46 48  1  0
  1 49  1  0
  1 50  1  0
  1 51  1  0
  2 52  1  0
  3 53  1  0
  3 54  1  0
  3 55  1  0
  4 56  1  0
  4 57  1  0
  7 58  1  0
  8 59  1  6
 11 60  1  0
 12 61  1  1
 15 62  1  0
 16 63  1  1
 17 64  1  0
 17 65  1  0
 18 66  1  0
 19 67  1  0
 19 68  1  0
 19 69  1  0
 20 70  1  0
 20 71  1  0
 20 72  1  0
 21 73  1  6
 22 74  1  0
 23 75  1  0
 23 76  1  0
 26 77  1  0
 27 78  1  1
 28 79  1  0
 28 80  1  0
 28 81  1  0
 31 82  1  0
 32 83  1  6
 33 84  1  0
 33 85  1  0
 34 86  1  0
 35 87  1  0
 35 88  1  0
 35 89  1  0
 36 90  1  0
 36 91  1  0
 36 92  1  0
 37 93  1  1
 38 94  1  0
 39 95  1  0
 39 96  1  0
 42 97  1  0
 43 98  1  0
 44 99  1  0
 44100  1  0
 44101  1  0
 45102  1  0
 45103  1  0
 45104  1  0
 46105  1  0
 47106  1  0
 47107  1  0
 47108  1  0
 48109  1  0
 48110  1  0
 48111  1  0
M  END
$$$$
