
     RDKit          3D

 55 58  0  0  0  0  0  0  0  0999 V2000
    1.3545   -0.0595   -2.7975 O   0  0  0  0  0  0  0  0  0  0  0  0
    1.2794    0.9362   -2.0483 C   0  0  0  0  0  0  0  0  0  0  0  0
    2.4260    1.8528   -1.9212 C   0  0  0  0  0  0  0  0  0  0  0  0
    3.5418    1.3534   -2.8100 C   0  0  0  0  0  0  0  0  0  0  0  0
    3.9928   -0.3147   -2.2641 S   0  0  0  0  0  0  0  0  0  0  0  0
    4.7158   -0.2066   -0.6155 C   0  0  0  0  0  0  0  0  0  0  0  0
    6.0387   -0.0372   -0.4472 N   0  0  0  0  0  0  0  0  0  0  0  0
    6.5447    0.0386    0.8173 C   0  0  0  0  0  0  0  0  0  0  0  0
    7.9128    0.2131    0.9585 C   0  0  0  0  0  0  0  0  0  0  0  0
    8.4747    0.2956    2.2138 C   0  0  0  0  0  0  0  0  0  0  0  0
    7.6478    0.2008    3.3146 C   0  0  0  0  0  0  0  0  0  0  0  0
    6.2967    0.0285    3.1876 C   0  0  0  0  0  0  0  0  0  0  0  0
    5.7409   -0.0532    1.9318 C   0  0  0  0  0  0  0  0  0  0  0  0
    4.3836   -0.2272    1.7305 C   0  0  0  0  0  0  0  0  0  0  0  0
    3.6624   -0.3094    2.7529 O   0  0  0  0  0  0  0  0  0  0  0  0
    3.9402   -0.2949    0.4797 N   0  0  0  0  0  0  0  0  0  0  0  0
    0.0982    1.1980   -1.3138 N   0  0  0  0  0  0  0  0  0  0  0  0
   -1.0692    0.3426   -1.3859 C   0  0  1  0  0  0  0  0  0  0  0  0
   -1.2625   -0.2749   -0.0164 C   0  0  0  0  0  0  0  0  0  0  0  0
   -2.5655   -1.0126   -0.0513 C   0  0  0  0  0  0  0  0  0  0  0  0
   -3.7200   -0.0270   -0.0779 C   0  0  2  0  0  0  0  0  0  0  0  0
   -4.8266   -0.6984   -0.5988 O   0  0  0  0  0  0  0  0  0  0  0  0
   -5.9891   -0.9744    0.0484 C   0  0  0  0  0  0  0  0  0  0  0  0
   -6.2605   -0.6294    1.3417 C   0  0  0  0  0  0  0  0  0  0  0  0
   -7.4770   -0.9444    1.9465 C   0  0  0  0  0  0  0  0  0  0  0  0
   -8.4527   -1.6162    1.2624 C   0  0  0  0  0  0  0  0  0  0  0  0
   -8.2084   -1.9773   -0.0428 C   0  0  0  0  0  0  0  0  0  0  0  0
   -9.4578   -2.8411   -0.9267 Cl  0  0  0  0  0  0  0  0  0  0  0  0
   -6.9995   -1.6601   -0.6322 C   0  0  0  0  0  0  0  0  0  0  0  0
   -3.3773    1.2112   -0.8758 C   0  0  0  0  0  0  0  0  0  0  0  0
   -2.2990    1.0250   -1.8849 C   0  0  0  0  0  0  0  0  0  0  0  0
    2.0579    2.8625   -2.2660 H   0  0  0  0  0  0  0  0  0  0  0  0
    2.7695    1.9571   -0.8640 H   0  0  0  0  0  0  0  0  0  0  0  0
    3.1714    1.3555   -3.8379 H   0  0  0  0  0  0  0  0  0  0  0  0
    4.3924    2.0666   -2.6831 H   0  0  0  0  0  0  0  0  0  0  0  0
    8.5616    0.2874    0.0928 H   0  0  0  0  0  0  0  0  0  0  0  0
    9.5617    0.4339    2.3352 H   0  0  0  0  0  0  0  0  0  0  0  0
    8.0624    0.2623    4.3135 H   0  0  0  0  0  0  0  0  0  0  0  0
    5.6241   -0.0490    4.0463 H   0  0  0  0  0  0  0  0  0  0  0  0
    2.9157   -0.4262    0.3221 H   0  0  0  0  0  0  0  0  0  0  0  0
    0.0827    2.0422   -0.7018 H   0  0  0  0  0  0  0  0  0  0  0  0
   -0.8128   -0.4971   -2.0968 H   0  0  0  0  0  0  0  0  0  0  0  0
   -0.4111   -0.9219    0.2067 H   0  0  0  0  0  0  0  0  0  0  0  0
   -1.3717    0.5845    0.6943 H   0  0  0  0  0  0  0  0  0  0  0  0
   -2.6507   -1.6420    0.8668 H   0  0  0  0  0  0  0  0  0  0  0  0
   -2.6017   -1.7106   -0.9224 H   0  0  0  0  0  0  0  0  0  0  0  0
   -3.8406    0.3127    0.9664 H   0  0  0  0  0  0  0  0  0  0  0  0
   -5.5029   -0.0883    1.9280 H   0  0  0  0  0  0  0  0  0  0  0  0
   -7.6570   -0.6583    2.9647 H   0  0  0  0  0  0  0  0  0  0  0  0
   -9.4153   -1.8785    1.7039 H   0  0  0  0  0  0  0  0  0  0  0  0
   -6.7973   -1.9366   -1.6492 H   0  0  0  0  0  0  0  0  0  0  0  0
   -3.1831    2.0936   -0.2421 H   0  0  0  0  0  0  0  0  0  0  0  0
   -4.3174    1.4656   -1.4484 H   0  0  0  0  0  0  0  0  0  0  0  0
   -1.9903    2.0607   -2.2102 H   0  0  0  0  0  0  0  0  0  0  0  0
   -2.7334    0.5621   -2.7944 H   0  0  0  0  0  0  0  0  0  0  0  0
  1  2  2  0
  2  3  1  0
  3  4  1  0
  4  5  1  0
  5  6  1  0
  6  7  2  0
  7  8  1  0
  8  9  2  0
  9 10  1  0
 10 11  2  0
 11 12  1  0
 12 13  2  0
 13 14  1  0
 14 15  2  0
 14 16  1  0
  2 17  1  0
 17 18  1  0
 18 19  1  0
 19 20  1  0
 20 21  1  0
 21 22  1  0
 22 23  1  0
 23 24  2  0
 24 25  1  0
 25 26  2  0
 26 27  1  0
 27 28  1  0
 27 29  2  0
 21 30  1  0
 30 31  1  0
 16  6  1  0
 31 18  1  0
 13  8  1  0
 29 23  1  0
  3 32  1  0
  3 33  1  0
  4 34  1  0
  4 35  1  0
  9 36  1  0
 10 37  1  0
 11 38  1  0
 12 39  1  0
 16 40  1  0
 17 41  1  0
 18 42  1  6
 19 43  1  0
 19 44  1  0
 20 45  1  0
 20 46  1  0
 21 47  1  1
 24 48  1  0
 25 49  1  0
 26 50  1  0
 29 51  1  0
 30 52  1  0
 30 53  1  0
 31 54  1  0
 31 55  1  0
M  END
$$$$
