@<TRIPOS>MOLECULE
*****
 55 58 0 0 0
SMALL
GASTEIGER

@<TRIPOS>ATOM
      1 O           1.3545   -0.0595   -2.7975 O.2     1  UNL1       -0.2758
      2 C           1.2794    0.9362   -2.0483 C.2     1  UNL1        0.2140
      3 C           2.4260    1.8528   -1.9212 C.3     1  UNL1        0.0334
      4 C           3.5418    1.3534   -2.8100 C.3     1  UNL1        0.0093
      5 S           3.9928   -0.3147   -2.2641 S.3     1  UNL1       -0.0873
      6 C           4.7158   -0.2066   -0.6155 C.ar    1  UNL1        0.1695
      7 N           6.0387   -0.0372   -0.4472 N.ar    1  UNL1       -0.2232
      8 C           6.5447    0.0386    0.8173 C.ar    1  UNL1        0.0790
      9 C           7.9128    0.2131    0.9585 C.ar    1  UNL1       -0.0355
     10 C           8.4747    0.2956    2.2138 C.ar    1  UNL1       -0.0597
     11 C           7.6478    0.2008    3.3146 C.ar    1  UNL1       -0.0609
     12 C           6.2967    0.0285    3.1876 C.ar    1  UNL1       -0.0474
     13 C           5.7409   -0.0532    1.9318 C.ar    1  UNL1        0.0647
     14 C           4.3836   -0.2272    1.7305 C.ar    1  UNL1        0.2598
     15 O           3.6624   -0.3094    2.7529 O.2     1  UNL1       -0.2671
     16 N           3.9402   -0.2949    0.4797 N.ar    1  UNL1       -0.3015
     17 N           0.0982    1.1980   -1.3138 N.am    1  UNL1       -0.3124
     18 C          -1.0692    0.3426   -1.3859 C.3     1  UNL1        0.0233
     19 C          -1.2625   -0.2749   -0.0164 C.3     1  UNL1       -0.0312
     20 C          -2.5655   -1.0126   -0.0513 C.3     1  UNL1       -0.0141
     21 C          -3.7200   -0.0270   -0.0779 C.3     1  UNL1        0.1003
     22 O          -4.8266   -0.6984   -0.5988 O.3     1  UNL1       -0.4888
     23 C          -5.9891   -0.9744    0.0484 C.ar    1  UNL1        0.1223
     24 C          -6.2605   -0.6294    1.3417 C.ar    1  UNL1       -0.0198
     25 C          -7.4770   -0.9444    1.9465 C.ar    1  UNL1       -0.0569
     26 C          -8.4527   -1.6162    1.2624 C.ar    1  UNL1       -0.0432
     27 C          -8.2084   -1.9773   -0.0428 C.ar    1  UNL1        0.0444
     28 CL         -9.4578   -2.8411   -0.9267 Cl      1  UNL1       -0.0834
     29 C          -6.9995   -1.6601   -0.6322 C.ar    1  UNL1       -0.0016
     30 C          -3.3773    1.2112   -0.8758 C.3     1  UNL1       -0.0141
     31 C          -2.2990    1.0250   -1.8849 C.3     1  UNL1       -0.0312
     32 H           2.0579    2.8625   -2.2660 H       1  UNL1        0.0366
     33 H           2.7695    1.9571   -0.8640 H       1  UNL1        0.0366
     34 H           3.1714    1.3555   -3.8379 H       1  UNL1        0.0385
     35 H           4.3924    2.0666   -2.6831 H       1  UNL1        0.0385
     36 H           8.5616    0.2874    0.0928 H       1  UNL1        0.0639
     37 H           9.5617    0.4339    2.3352 H       1  UNL1        0.0618
     38 H           8.0624    0.2623    4.3135 H       1  UNL1        0.0618
     39 H           5.6241   -0.0490    4.0463 H       1  UNL1        0.0626
     40 H           2.9157   -0.4262    0.3221 H       1  UNL1        0.1709
     41 H           0.0827    2.0422   -0.7018 H       1  UNL1        0.1490
     42 H          -0.8128   -0.4971   -2.0968 H       1  UNL1        0.0498
     43 H          -0.4111   -0.9219    0.2067 H       1  UNL1        0.0284
     44 H          -1.3717    0.5845    0.6943 H       1  UNL1        0.0284
     45 H          -2.6507   -1.6420    0.8668 H       1  UNL1        0.0301
     46 H          -2.6017   -1.7106   -0.9224 H       1  UNL1        0.0301
     47 H          -3.8406    0.3127    0.9664 H       1  UNL1        0.0733
     48 H          -5.5029   -0.0883    1.9280 H       1  UNL1        0.0654
     49 H          -7.6570   -0.6583    2.9647 H       1  UNL1        0.0619
     50 H          -9.4153   -1.8785    1.7039 H       1  UNL1        0.0632
     51 H          -6.7973   -1.9366   -1.6492 H       1  UNL1        0.0669
     52 H          -3.1831    2.0936   -0.2421 H       1  UNL1        0.0301
     53 H          -4.3174    1.4656   -1.4484 H       1  UNL1        0.0301
     54 H          -1.9903    2.0607   -2.2102 H       1  UNL1        0.0284
     55 H          -2.7334    0.5621   -2.7944 H       1  UNL1        0.0284
@<TRIPOS>BOND
     1     1     2    2
     2     2     3    1
     3     3     4    1
     4     4     5    1
     5     5     6    1
     6     6     7   ar
     7     7     8   ar
     8     8     9   ar
     9     9    10   ar
    10    10    11   ar
    11    11    12   ar
    12    12    13   ar
    13    13    14   ar
    14    14    15    2
    15    14    16   ar
    16     2    17   am
    17    17    18    1
    18    18    19    1
    19    19    20    1
    20    20    21    1
    21    21    22    1
    22    22    23    1
    23    23    24   ar
    24    24    25   ar
    25    25    26   ar
    26    26    27   ar
    27    27    28    1
    28    27    29   ar
    29    21    30    1
    30    30    31    1
    31    16     6   ar
    32    31    18    1
    33    13     8   ar
    34    29    23   ar
    35     3    32    1
    36     3    33    1
    37     4    34    1
    38     4    35    1
    39     9    36    1
    40    10    37    1
    41    11    38    1
    42    12    39    1
    43    16    40    1
    44    17    41    1
    45    18    42    1
    46    19    43    1
    47    19    44    1
    48    20    45    1
    49    20    46    1
    50    21    47    1
    51    24    48    1
    52    25    49    1
    53    26    50    1
    54    29    51    1
    55    30    52    1
    56    30    53    1
    57    31    54    1
    58    31    55    1
