@<TRIPOS>MOLECULE
*****
 39 41 0 0 0
SMALL
GASTEIGER

@<TRIPOS>ATOM
      1 N          -3.7109   -1.8735    2.1269 N.pl3   1  UNL1       -0.3577
      2 C          -3.7362   -0.8055    1.1492 C.ar    1  UNL1        0.0281
      3 C          -4.7767    0.0957    1.1207 C.ar    1  UNL1       -0.0408
      4 C          -4.8184    1.1192    0.1975 C.ar    1  UNL1       -0.0597
      5 C          -3.8031    1.2598   -0.7273 C.ar    1  UNL1       -0.0569
      6 C          -2.7526    0.3453   -0.6941 C.ar    1  UNL1       -0.0267
      7 C          -2.7283   -0.6652    0.2307 C.ar    1  UNL1       -0.0210
      8 C          -1.5620   -1.5786    0.1727 C.3     1  UNL1       -0.0112
      9 C          -0.3465   -0.7160   -0.0575 C.3     1  UNL1        0.0249
     10 N          -0.3796    0.0547   -1.2479 N.3     1  UNL1       -0.1720
     11 S           0.7461    1.3569   -1.1058 S.O2    1  UNL1        0.0612
     12 O           0.3615    2.3008    0.0017 O.2     1  UNL1       -0.1528
     13 O           0.6548    2.1492   -2.3951 O.2     1  UNL1       -0.1528
     14 C           2.3794    0.7697   -0.9055 C.ar    1  UNL1        0.1063
     15 C           3.1700    0.5414   -2.0217 C.ar    1  UNL1       -0.0353
     16 C           4.4654    0.0764   -1.8787 C.ar    1  UNL1       -0.0591
     17 C           5.0142   -0.1753   -0.6300 C.ar    1  UNL1       -0.0477
     18 C           4.2269    0.0521    0.4812 C.ar    1  UNL1        0.0607
     19 C           4.7737   -0.2033    1.8233 C.2     1  UNL1        0.3369
     20 O           5.9189   -0.6177    2.0224 O.2     1  UNL1       -0.2451
     21 O           3.9603    0.0339    2.9217 O.3     1  UNL1       -0.4771
     22 C           2.9378    0.5155    0.3220 C.ar    1  UNL1       -0.0214
     23 C          -1.6459    0.5018   -1.7066 C.3     1  UNL1        0.0458
     24 H          -2.8582   -1.9796    2.7175 H       1  UNL1        0.1423
     25 H          -4.5393   -2.4751    2.1884 H       1  UNL1        0.1423
     26 H          -5.5693   -0.0235    1.8514 H       1  UNL1        0.0636
     27 H          -5.6637    1.8181    0.2052 H       1  UNL1        0.0618
     28 H          -3.8077    2.0571   -1.4683 H       1  UNL1        0.0621
     29 H          -1.4076   -2.1351    1.1152 H       1  UNL1        0.0327
     30 H          -1.6296   -2.2764   -0.7087 H       1  UNL1        0.0327
     31 H           0.5767   -1.3359   -0.0177 H       1  UNL1        0.0447
     32 H          -0.2822   -0.0117    0.8155 H       1  UNL1        0.0447
     33 H           2.8198    0.7118   -3.0302 H       1  UNL1        0.0637
     34 H           5.0999   -0.1080   -2.7494 H       1  UNL1        0.0618
     35 H           6.0251   -0.5391   -0.4990 H       1  UNL1        0.0626
     36 H           4.0933   -0.5480    3.7638 H       1  UNL1        0.2954
     37 H           2.3282    0.6909    1.1963 H       1  UNL1        0.0645
     38 H          -1.9554    0.0282   -2.6671 H       1  UNL1        0.0493
     39 H          -1.5791    1.5892   -1.9123 H       1  UNL1        0.0493
@<TRIPOS>BOND
     1     1     2    1
     2     2     3   ar
     3     3     4   ar
     4     4     5   ar
     5     5     6   ar
     6     6     7   ar
     7     7     8    1
     8     8     9    1
     9     9    10    1
    10    10    11    1
    11    11    12    2
    12    11    13    2
    13    11    14    1
    14    14    15   ar
    15    15    16   ar
    16    16    17   ar
    17    17    18   ar
    18    18    19    1
    19    19    20    2
    20    19    21    1
    21    18    22   ar
    22    10    23    1
    23     7     2   ar
    24    22    14   ar
    25    23     6    1
    26     1    24    1
    27     1    25    1
    28     3    26    1
    29     4    27    1
    30     5    28    1
    31     8    29    1
    32     8    30    1
    33     9    31    1
    34     9    32    1
    35    15    33    1
    36    16    34    1
    37    17    35    1
    38    21    36    1
    39    22    37    1
    40    23    38    1
    41    23    39    1
