@<TRIPOS>MOLECULE
*****
 25 26 0 0 0
SMALL
GASTEIGER

@<TRIPOS>ATOM
      1 N          -3.7315   -1.2737   -0.2365 N.3     1  UNL1       -0.3297
      2 C          -2.6145   -0.5014    0.2661 C.3     1  UNL1       -0.0029
      3 C          -1.7974   -0.0442   -0.9392 C.3     1  UNL1       -0.0133
      4 C          -0.6173    0.7482   -0.5549 C.ar    1  UNL1       -0.0211
      5 C          -0.4762    2.1226   -0.5894 C.ar    1  UNL1        0.0059
      6 N           0.7464    2.4562   -0.1468 N.ar    1  UNL1       -0.3604
      7 C           1.4462    1.3312    0.1893 C.ar    1  UNL1        0.0470
      8 C           2.7167    1.1265    0.6822 C.ar    1  UNL1       -0.0343
      9 C           3.1791   -0.1445    0.9352 C.ar    1  UNL1       -0.0182
     10 C           2.3113   -1.1818    0.6722 C.ar    1  UNL1        0.1176
     11 O           2.7711   -2.4715    0.9249 O.3     1  UNL1       -0.5067
     12 C           1.0516   -1.0061    0.1867 C.ar    1  UNL1       -0.0108
     13 C           0.5851    0.2832   -0.0694 C.ar    1  UNL1        0.0063
     14 H          -3.4953   -2.2808   -0.1230 H       1  UNL1        0.1182
     15 H          -3.8072   -1.0928   -1.2564 H       1  UNL1        0.1182
     16 H          -2.0391   -1.0905    0.9872 H       1  UNL1        0.0425
     17 H          -3.0521    0.4188    0.7459 H       1  UNL1        0.0425
     18 H          -2.4581    0.6079   -1.5506 H       1  UNL1        0.0326
     19 H          -1.4642   -0.9552   -1.4720 H       1  UNL1        0.0326
     20 H          -1.2495    2.8077   -0.9277 H       1  UNL1        0.0810
     21 H           1.1662    3.4118   -0.0500 H       1  UNL1        0.1653
     22 H           3.3699    1.9668    0.8760 H       1  UNL1        0.0639
     23 H           4.1962   -0.3053    1.3272 H       1  UNL1        0.0655
     24 H           2.9064   -3.1339    0.1490 H       1  UNL1        0.2921
     25 H           0.3563   -1.7993   -0.0260 H       1  UNL1        0.0661
@<TRIPOS>BOND
     1     1     2    1
     2     2     3    1
     3     3     4    1
     4     4     5   ar
     5     5     6   ar
     6     6     7   ar
     7     7     8   ar
     8     8     9   ar
     9     9    10   ar
    10    10    11    1
    11    10    12   ar
    12    12    13   ar
    13    13     4   ar
    14    13     7   ar
    15     1    14    1
    16     1    15    1
    17     2    16    1
    18     2    17    1
    19     3    18    1
    20     3    19    1
    21     5    20    1
    22     6    21    1
    23     8    22    1
    24     9    23    1
    25    11    24    1
    26    12    25    1
