@<TRIPOS>MOLECULE
*****
 54 57 0 0 0
SMALL
GASTEIGER

@<TRIPOS>ATOM
      1 C          -1.6715   -0.0670   -4.0652 C.3     1  UNL1        0.0817
      2 O          -1.8249   -0.7052   -2.8012 O.3     1  UNL1       -0.4676
      3 C          -1.3266   -0.1824   -1.6246 C.2     1  UNL1        0.3140
      4 O          -0.7115    0.9045   -1.6774 O.2     1  UNL1       -0.2504
      5 C          -1.4852   -0.8410   -0.3226 C.3     1  UNL1        0.0980
      6 C          -2.9705   -0.9521    0.0506 C.3     1  UNL1        0.0258
      7 C          -3.5532    0.4074   -0.2221 C.3     1  UNL1       -0.0351
      8 C          -3.8952    0.9119    1.1565 C.3     1  UNL1       -0.0358
      9 C          -2.8874    0.1708    1.9957 C.3     1  UNL1        0.0128
     10 C          -1.5137    0.7127    1.6500 C.3     1  UNL1       -0.0100
     11 C          -0.7188   -0.1739    0.7849 C.3     1  UNL1        0.0757
     12 O           0.3514    0.4900    0.1934 O.3     1  UNL1       -0.3632
     13 C           1.5709   -0.0204    0.5600 C.3     1  UNL1        0.1090
     14 C           2.2331   -0.7204   -0.6007 C.ar    1  UNL1       -0.0143
     15 C           2.3584   -0.1488   -1.8453 C.ar    1  UNL1       -0.0531
     16 C           2.9727   -0.8388   -2.8887 C.ar    1  UNL1       -0.0261
     17 C           3.4674   -2.1008   -2.7049 C.ar    1  UNL1        0.1234
     18 F           4.0714   -2.7775   -3.7334 F       1  UNL1       -0.2055
     19 C           3.3518   -2.6911   -1.4644 C.ar    1  UNL1       -0.0261
     20 C           2.7421   -1.9905   -0.4523 C.ar    1  UNL1       -0.0531
     21 C           2.4635    1.0361    1.0792 C.ar    1  UNL1       -0.0143
     22 C           1.9916    1.9762    1.9451 C.ar    1  UNL1       -0.0531
     23 C           2.8284    2.9697    2.4370 C.ar    1  UNL1       -0.0261
     24 C           4.1470    3.0362    2.0699 C.ar    1  UNL1        0.1234
     25 F           4.9824    4.0144    2.5506 F       1  UNL1       -0.2055
     26 C           4.6066    2.0787    1.1946 C.ar    1  UNL1       -0.0261
     27 C           3.7980    1.0958    0.7019 C.ar    1  UNL1       -0.0531
     28 N          -2.9776   -1.1649    1.4579 N.3     1  UNL1       -0.2985
     29 C          -4.0411   -1.9438    1.9669 C.3     1  UNL1       -0.0122
     30 H          -2.3521    0.8211   -4.0840 H       1  UNL1        0.0661
     31 H          -0.6318    0.1701   -4.3000 H       1  UNL1        0.0661
     32 H          -2.0567   -0.7735   -4.8357 H       1  UNL1        0.0661
     33 H          -1.1303   -1.8877   -0.4213 H       1  UNL1        0.0455
     34 H          -3.4813   -1.7268   -0.5398 H       1  UNL1        0.0471
     35 H          -4.4389    0.3677   -0.8873 H       1  UNL1        0.0281
     36 H          -2.8415    1.1216   -0.6846 H       1  UNL1        0.0281
     37 H          -3.7276    2.0014    1.2643 H       1  UNL1        0.0281
     38 H          -4.9387    0.6296    1.3944 H       1  UNL1        0.0281
     39 H          -3.1269    0.1924    3.0606 H       1  UNL1        0.0463
     40 H          -1.5803    1.7432    1.2581 H       1  UNL1        0.0305
     41 H          -1.0166    0.8050    2.6627 H       1  UNL1        0.0305
     42 H          -0.2536   -0.9736    1.4368 H       1  UNL1        0.0605
     43 H           1.4609   -0.8039    1.3277 H       1  UNL1        0.0697
     44 H           1.9803    0.8446   -2.0032 H       1  UNL1        0.0622
     45 H           3.0498   -0.3516   -3.8513 H       1  UNL1        0.0646
     46 H           3.7487   -3.7007   -1.3210 H       1  UNL1        0.0646
     47 H           2.6702   -2.4921    0.5143 H       1  UNL1        0.0622
     48 H           0.9595    1.9906    2.2808 H       1  UNL1        0.0622
     49 H           2.4385    3.7266    3.1374 H       1  UNL1        0.0646
     50 H           5.6531    2.1134    0.8894 H       1  UNL1        0.0646
     51 H           4.1716    0.3458    0.0120 H       1  UNL1        0.0622
     52 H          -4.8536   -2.0001    1.2361 H       1  UNL1        0.0391
     53 H          -4.3982   -1.6477    2.9721 H       1  UNL1        0.0391
     54 H          -3.6641   -3.0017    2.0903 H       1  UNL1        0.0391
@<TRIPOS>BOND
     1     1     2    1
     2     2     3    1
     3     3     4    2
     4     3     5    1
     5     5     6    1
     6     6     7    1
     7     7     8    1
     8     8     9    1
     9     9    10    1
    10    10    11    1
    11    11    12    1
    12    12    13    1
    13    13    14    1
    14    14    15   ar
    15    15    16   ar
    16    16    17   ar
    17    17    18    1
    18    17    19   ar
    19    19    20   ar
    20    13    21    1
    21    21    22   ar
    22    22    23   ar
    23    23    24   ar
    24    24    25    1
    25    24    26   ar
    26    26    27   ar
    27     9    28    1
    28    28    29    1
    29    11     5    1
    30    20    14   ar
    31    27    21   ar
    32    28     6    1
    33     1    30    1
    34     1    31    1
    35     1    32    1
    36     5    33    1
    37     6    34    1
    38     7    35    1
    39     7    36    1
    40     8    37    1
    41     8    38    1
    42     9    39    1
    43    10    40    1
    44    10    41    1
    45    11    42    1
    46    13    43    1
    47    15    44    1
    48    16    45    1
    49    19    46    1
    50    20    47    1
    51    22    48    1
    52    23    49    1
    53    26    50    1
    54    27    51    1
    55    29    52    1
    56    29    53    1
    57    29    54    1
