@<TRIPOS>MOLECULE
*****
 33 35 0 0 0
SMALL
GASTEIGER

@<TRIPOS>ATOM
      1 C          -3.6149   -0.9263    1.0578 C.3     1  UNL1        0.0084
      2 N          -2.4511   -1.0566    0.2323 N.am    1  UNL1       -0.2723
      3 C          -1.8837    0.2288   -0.1224 C.ar    1  UNL1        0.0452
      4 C          -0.5416    0.4750   -0.4467 C.ar    1  UNL1        0.0233
      5 C          -0.0513    1.7051   -0.8521 C.ar    1  UNL1       -0.0324
      6 C          -0.9998    2.7049   -0.9108 C.ar    1  UNL1        0.0417
      7 CL         -0.4246    4.2767   -1.4127 Cl      1  UNL1       -0.0835
      8 C          -2.3258    2.4999   -0.5957 C.ar    1  UNL1       -0.0416
      9 C          -2.8086    1.2759   -0.1974 C.ar    1  UNL1       -0.0383
     10 C           0.5746   -0.4945   -0.3717 C.2     1  UNL1        0.0750
     11 N           0.4524   -1.7477   -0.6934 N.2     1  UNL1       -0.2734
     12 C          -0.7018   -2.4911   -1.1672 C.3     1  UNL1        0.1169
     13 C          -1.8665   -2.2978   -0.2405 C.2     1  UNL1        0.2410
     14 O          -2.5400   -3.2509    0.2879 O.2     1  UNL1       -0.2732
     15 C           1.8702   -0.0333    0.0785 C.ar    1  UNL1        0.0006
     16 C           2.8768   -1.0003   -0.0850 C.ar    1  UNL1       -0.0526
     17 C           4.1840   -0.8571    0.3181 C.ar    1  UNL1       -0.0611
     18 C           4.5796    0.3094    0.9342 C.ar    1  UNL1       -0.0617
     19 C           3.6331    1.2824    1.1174 C.ar    1  UNL1       -0.0611
     20 C           2.3501    1.0632    0.6883 C.ar    1  UNL1       -0.0526
     21 H          -3.4918   -0.1583    1.8531 H       1  UNL1        0.0433
     22 H          -3.7059   -1.8835    1.6256 H       1  UNL1        0.0433
     23 H          -4.5755   -0.8548    0.5048 H       1  UNL1        0.0433
     24 H           0.9714    1.7992   -1.1230 H       1  UNL1        0.0639
     25 H          -3.0595    3.2819   -0.6422 H       1  UNL1        0.0633
     26 H          -3.8038    0.9767    0.0751 H       1  UNL1        0.0637
     27 H          -0.4233   -3.5575   -1.1044 H       1  UNL1        0.0605
     28 H          -0.9573   -2.2284   -2.2050 H       1  UNL1        0.0605
     29 H           2.7158   -1.9775   -0.5572 H       1  UNL1        0.0624
     30 H           4.9506   -1.6018    0.1898 H       1  UNL1        0.0618
     31 H           5.5754    0.5092    1.2801 H       1  UNL1        0.0618
     32 H           3.8700    2.2155    1.5898 H       1  UNL1        0.0618
     33 H           1.6230    1.8137    0.8950 H       1  UNL1        0.0624
@<TRIPOS>BOND
     1     1     2    1
     2     2     3    1
     3     3     4   ar
     4     4     5   ar
     5     5     6   ar
     6     6     7    1
     7     6     8   ar
     8     8     9   ar
     9     4    10    1
    10    10    11    2
    11    11    12    1
    12    12    13    1
    13    13    14    2
    14    10    15    1
    15    15    16   ar
    16    16    17   ar
    17    17    18   ar
    18    18    19   ar
    19    19    20   ar
    20    13     2   am
    21    20    15   ar
    22     9     3   ar
    23     1    21    1
    24     1    22    1
    25     1    23    1
    26     5    24    1
    27     8    25    1
    28     9    26    1
    29    12    27    1
    30    12    28    1
    31    16    29    1
    32    17    30    1
    33    18    31    1
    34    19    32    1
    35    20    33    1
