@<TRIPOS>MOLECULE
*****
 52 55 0 0 0
SMALL
GASTEIGER

@<TRIPOS>ATOM
      1 C          -5.0489   -1.0261   -0.2500 C.3     1  UNL1       -0.0121
      2 N          -3.7802   -1.3678    0.1863 N.3     1  UNL1       -0.2976
      3 C          -3.1811   -2.5786   -0.3435 C.3     1  UNL1        0.0171
      4 C          -1.7635   -2.6441    0.1486 C.2     1  UNL1       -0.0739
      5 C          -0.6054   -2.6020   -0.4195 C.2     1  UNL1       -0.0835
      6 C           0.8064   -2.6426    0.0113 C.3     1  UNL1       -0.0004
      7 C           1.7070   -3.6810   -0.5139 C.3     1  UNL1        0.0930
      8 O           3.0828   -3.2671   -0.0269 O.3     1  UNL1       -0.4916
      9 C           3.5623   -1.9498   -0.3075 C.ar    1  UNL1        0.1211
     10 C           4.5366   -1.8571   -1.2778 C.ar    1  UNL1       -0.0199
     11 C           5.0933   -0.6545   -1.7054 C.ar    1  UNL1       -0.0577
     12 C           4.5893    0.4759   -1.0818 C.ar    1  UNL1       -0.0523
     13 C           3.5976    0.3994   -0.0913 C.ar    1  UNL1        0.0040
     14 C           3.0764   -0.7945    0.3273 C.ar    1  UNL1       -0.0108
     15 C           3.0627    1.7862    0.1677 C.ar    1  UNL1        0.0761
     16 C           3.9162    2.8393    0.3961 C.ar    1  UNL1       -0.0174
     17 C           3.3963    4.0902    0.5595 C.ar    1  UNL1        0.0332
     18 N           2.0782    4.2411    0.4903 N.ar    1  UNL1       -0.2226
     19 C           1.2004    3.2423    0.2682 C.ar    1  UNL1        0.2200
     20 N           1.7173    2.0496    0.1154 N.ar    1  UNL1       -0.2142
     21 N          -0.2180    3.4008    0.1558 N.pl3   1  UNL1       -0.2836
     22 C          -1.3354    2.6079    0.5471 C.ar    1  UNL1        0.0339
     23 C          -2.3899    3.4653    0.9729 C.ar    1  UNL1       -0.0405
     24 C          -3.6083    3.0410    1.4139 C.ar    1  UNL1       -0.0597
     25 C          -3.7686    1.6755    1.4271 C.ar    1  UNL1       -0.0572
     26 C          -2.7746    0.7694    1.0240 C.ar    1  UNL1       -0.0316
     27 C          -1.5511    1.2441    0.5787 C.ar    1  UNL1       -0.0361
     28 C          -3.2228   -0.6489    1.2107 C.3     1  UNL1        0.0241
     29 H          -5.0922    0.0424   -0.5681 H       1  UNL1        0.0391
     30 H          -5.8574   -1.2822    0.4698 H       1  UNL1        0.0391
     31 H          -5.3017   -1.6197   -1.1787 H       1  UNL1        0.0391
     32 H          -3.4504   -2.6100   -1.3663 H       1  UNL1        0.0470
     33 H          -3.7938   -3.4336    0.1112 H       1  UNL1        0.0470
     34 H          -1.9304   -2.8227    1.2858 H       1  UNL1        0.0582
     35 H          -0.4323   -2.5314   -1.5735 H       1  UNL1        0.0570
     36 H           1.0669   -2.5167    1.0674 H       1  UNL1        0.0340
     37 H           1.2600   -1.6501   -0.4425 H       1  UNL1        0.0340
     38 H           1.7010   -3.9287   -1.5489 H       1  UNL1        0.0699
     39 H           1.5853   -4.6331    0.0727 H       1  UNL1        0.0699
     40 H           4.9987   -2.7120   -1.8025 H       1  UNL1        0.0654
     41 H           5.8504   -0.6118   -2.4560 H       1  UNL1        0.0619
     42 H           5.0442    1.4127   -1.4186 H       1  UNL1        0.0624
     43 H           2.4128   -0.8992    1.2564 H       1  UNL1        0.0661
     44 H           4.9741    2.6023    0.4238 H       1  UNL1        0.0654
     45 H           4.0781    4.9241    0.7422 H       1  UNL1        0.0831
     46 H          -0.4095    4.3739   -0.3462 H       1  UNL1        0.1550
     47 H          -2.2634    4.5707    0.9604 H       1  UNL1        0.0636
     48 H          -4.3924    3.7158    1.7315 H       1  UNL1        0.0618
     49 H          -4.7633    1.3237    1.7765 H       1  UNL1        0.0621
     50 H          -0.7515    0.5070    0.2060 H       1  UNL1        0.0639
     51 H          -4.1291   -0.5712    1.9895 H       1  UNL1        0.0476
     52 H          -2.5795   -1.2641    1.8733 H       1  UNL1        0.0476
@<TRIPOS>BOND
     1     1     2    1
     2     2     3    1
     3     3     4    1
     4     4     5    2
     5     5     6    1
     6     6     7    1
     7     7     8    1
     8     8     9    1
     9     9    10   ar
    10    10    11   ar
    11    11    12   ar
    12    12    13   ar
    13    13    14   ar
    14    13    15    1
    15    15    16   ar
    16    16    17   ar
    17    17    18   ar
    18    18    19   ar
    19    19    20   ar
    20    19    21    1
    21    21    22    1
    22    22    23   ar
    23    23    24   ar
    24    24    25   ar
    25    25    26   ar
    26    26    27   ar
    27    26    28    1
    28    28     2    1
    29    14     9   ar
    30    20    15   ar
    31    27    22   ar
    32     1    29    1
    33     1    30    1
    34     1    31    1
    35     3    32    1
    36     3    33    1
    37     4    34    1
    38     5    35    1
    39     6    36    1
    40     6    37    1
    41     7    38    1
    42     7    39    1
    43    10    40    1
    44    11    41    1
    45    12    42    1
    46    14    43    1
    47    16    44    1
    48    17    45    1
    49    21    46    1
    50    23    47    1
    51    24    48    1
    52    25    49    1
    53    27    50    1
    54    28    51    1
    55    28    52    1
