
     RDKit          3D

 65 68  0  0  0  0  0  0  0  0999 V2000
    0.3171   -1.7888    3.1947 C   0  0  0  0  0  0  0  0  0  0  0  0
    0.1664   -1.2945    1.7417 C   0  0  0  0  0  0  0  0  0  0  0  0
    0.4357   -2.6023    0.9234 C   0  0  0  0  0  0  0  0  0  0  0  0
   -1.2270   -0.9325    1.4578 C   0  0  0  0  0  0  0  0  0  0  0  0
   -2.0931   -1.2260    2.3593 O   0  0  0  0  0  0  0  0  0  0  0  0
   -1.7209   -0.3024    0.3040 N   0  0  0  0  0  0  0  0  0  0  0  0
   -3.1429    0.0229    0.1347 C   0  0  0  0  0  0  0  0  0  0  0  0
   -4.0309   -1.1738    0.1772 C   0  0  0  0  0  0  0  0  0  0  0  0
   -5.4504   -0.7822   -0.1607 C   0  0  0  0  0  0  0  0  0  0  0  0
   -5.5176    0.7098   -0.3923 C   0  0  0  0  0  0  0  0  0  0  0  0
   -6.9075    1.1386   -0.6498 C   0  0  0  0  0  0  0  0  0  0  0  0
   -7.2787    2.4769   -0.9019 N   0  0  0  0  0  0  0  0  0  0  0  0
   -7.8190    0.2509   -0.6439 O   0  0  0  0  0  0  0  0  0  0  0  0
   -4.6556    0.9659   -1.6382 C   0  0  0  0  0  0  0  0  0  0  0  0
   -3.2405    0.7587   -1.2042 C   0  0  0  0  0  0  0  0  0  0  0  0
   -4.9876    1.4740    0.7929 C   0  0  0  0  0  0  0  0  0  0  0  0
   -3.6071    1.0021    1.1931 C   0  0  0  0  0  0  0  0  0  0  0  0
    1.1802   -0.3572    1.5156 N   0  0  0  0  0  0  0  0  0  0  0  0
    1.2890    0.3901    0.3386 C   0  0  0  0  0  0  0  0  0  0  0  0
    2.6762    1.0973    0.4101 C   0  0  0  0  0  0  0  0  0  0  0  0
    3.6963    0.0850    0.2388 N   0  0  0  0  0  0  0  0  0  0  0  0
    4.9038    0.3157   -0.4661 C   0  0  0  0  0  0  0  0  0  0  0  0
    5.8549   -0.6732   -0.5955 C   0  0  0  0  0  0  0  0  0  0  0  0
    7.0452   -0.4464   -1.2927 C   0  0  0  0  0  0  0  0  0  0  0  0
    7.2816    0.7759   -1.8615 C   0  0  0  0  0  0  0  0  0  0  0  0
    8.5394    1.0357   -2.6071 C   0  0  0  0  0  0  0  0  0  0  0  0
    8.9785   -0.1739   -3.1113 F   0  0  0  0  0  0  0  0  0  0  0  0
    8.3641    1.9409   -3.6210 F   0  0  0  0  0  0  0  0  0  0  0  0
    9.5040    1.4815   -1.7077 F   0  0  0  0  0  0  0  0  0  0  0  0
    6.3033    1.7504   -1.7131 C   0  0  0  0  0  0  0  0  0  0  0  0
    5.1589    1.5056   -1.0331 N   0  0  0  0  0  0  0  0  0  0  0  0
    3.3919   -1.2066    0.8468 C   0  0  0  0  0  0  0  0  0  0  0  0
    2.4383   -0.9055    1.9869 C   0  0  0  0  0  0  0  0  0  0  0  0
    0.8609   -1.0001    3.7494 H   0  0  0  0  0  0  0  0  0  0  0  0
   -0.7348   -1.7818    3.6084 H   0  0  0  0  0  0  0  0  0  0  0  0
    0.7417   -2.7870    3.2676 H   0  0  0  0  0  0  0  0  0  0  0  0
    0.6127   -2.3724   -0.1302 H   0  0  0  0  0  0  0  0  0  0  0  0
    1.2995   -3.1359    1.3285 H   0  0  0  0  0  0  0  0  0  0  0  0
   -0.4311   -3.2669    0.9937 H   0  0  0  0  0  0  0  0  0  0  0  0
   -1.0457   -0.0855   -0.4607 H   0  0  0  0  0  0  0  0  0  0  0  0
   -4.0721   -1.5508    1.2206 H   0  0  0  0  0  0  0  0  0  0  0  0
   -3.6707   -2.0099   -0.4649 H   0  0  0  0  0  0  0  0  0  0  0  0
   -6.1825   -1.0652    0.6387 H   0  0  0  0  0  0  0  0  0  0  0  0
   -5.7820   -1.3106   -1.0756 H   0  0  0  0  0  0  0  0  0  0  0  0
   -7.3944    3.1479   -0.1282 H   0  0  0  0  0  0  0  0  0  0  0  0
   -7.4348    2.7816   -1.8737 H   0  0  0  0  0  0  0  0  0  0  0  0
   -4.9012    0.1118   -2.3386 H   0  0  0  0  0  0  0  0  0  0  0  0
   -4.8679    1.9345   -2.0989 H   0  0  0  0  0  0  0  0  0  0  0  0
   -2.6161    0.2519   -1.9784 H   0  0  0  0  0  0  0  0  0  0  0  0
   -2.7835    1.7574   -1.0387 H   0  0  0  0  0  0  0  0  0  0  0  0
   -5.6971    1.3560    1.6197 H   0  0  0  0  0  0  0  0  0  0  0  0
   -4.8935    2.5371    0.4887 H   0  0  0  0  0  0  0  0  0  0  0  0
   -3.6786    0.4775    2.1657 H   0  0  0  0  0  0  0  0  0  0  0  0
   -2.8972    1.8493    1.3043 H   0  0  0  0  0  0  0  0  0  0  0  0
    0.5701    1.2459    0.3778 H   0  0  0  0  0  0  0  0  0  0  0  0
    1.2799   -0.1252   -0.6218 H   0  0  0  0  0  0  0  0  0  0  0  0
    2.6923    1.5313    1.4310 H   0  0  0  0  0  0  0  0  0  0  0  0
    2.6720    1.8603   -0.3789 H   0  0  0  0  0  0  0  0  0  0  0  0
    5.7361   -1.6622   -0.1729 H   0  0  0  0  0  0  0  0  0  0  0  0
    7.7805   -1.2332   -1.3839 H   0  0  0  0  0  0  0  0  0  0  0  0
    6.5216    2.7098   -2.1772 H   0  0  0  0  0  0  0  0  0  0  0  0
    4.2853   -1.6915    1.2739 H   0  0  0  0  0  0  0  0  0  0  0  0
    2.9375   -1.8990    0.1361 H   0  0  0  0  0  0  0  0  0  0  0  0
    2.8983   -0.1030    2.6343 H   0  0  0  0  0  0  0  0  0  0  0  0
    2.3487   -1.7849    2.6259 H   0  0  0  0  0  0  0  0  0  0  0  0
  1  2  1  0
  2  3  1  0
  2  4  1  0
  4  5  2  0
  4  6  1  0
  6  7  1  0
  7  8  1  0
  8  9  1  0
  9 10  1  0
 10 11  1  0
 11 12  1  0
 11 13  2  0
 10 14  1  0
 14 15  1  0
 10 16  1  0
 16 17  1  0
  2 18  1  0
 18 19  1  0
 19 20  1  0
 20 21  1  0
 21 22  1  0
 22 23  2  0
 23 24  1  0
 24 25  2  0
 25 26  1  0
 26 27  1  0
 26 28  1  0
 26 29  1  0
 25 30  1  0
 30 31  2  0
 21 32  1  0
 32 33  1  0
 15  7  1  0
 33 18  1  0
 17  7  1  0
 31 22  1  0
  1 34  1  0
  1 35  1  0
  1 36  1  0
  3 37  1  0
  3 38  1  0
  3 39  1  0
  6 40  1  0
  8 41  1  0
  8 42  1  0
  9 43  1  0
  9 44  1  0
 12 45  1  0
 12 46  1  0
 14 47  1  0
 14 48  1  0
 15 49  1  0
 15 50  1  0
 16 51  1  0
 16 52  1  0
 17 53  1  0
 17 54  1  0
 19 55  1  0
 19 56  1  0
 20 57  1  0
 20 58  1  0
 23 59  1  0
 24 60  1  0
 30 61  1  0
 32 62  1  0
 32 63  1  0
 33 64  1  0
 33 65  1  0
M  END
$$$$
