@<TRIPOS>MOLECULE
*****
 65 68 0 0 0
SMALL
GASTEIGER

@<TRIPOS>ATOM
      1 C           0.3171   -1.7888    3.1947 C.3     1  UNL1       -0.0383
      2 C           0.1664   -1.2945    1.7417 C.3     1  UNL1        0.0930
      3 C           0.4357   -2.6023    0.9234 C.3     1  UNL1       -0.0383
      4 C          -1.2270   -0.9325    1.4578 C.2     1  UNL1        0.2333
      5 O          -2.0931   -1.2260    2.3593 O.2     1  UNL1       -0.2738
      6 N          -1.7209   -0.3024    0.3040 N.am    1  UNL1       -0.3083
      7 C          -3.1429    0.0229    0.1347 C.3     1  UNL1        0.0347
      8 C          -4.0309   -1.1738    0.1772 C.3     1  UNL1       -0.0307
      9 C          -5.4504   -0.7822   -0.1607 C.3     1  UNL1       -0.0371
     10 C          -5.5176    0.7098   -0.3923 C.3     1  UNL1        0.0470
     11 C          -6.9075    1.1386   -0.6498 C.2     1  UNL1        0.2167
     12 N          -7.2787    2.4769   -0.9019 N.am    1  UNL1       -0.3289
     13 O          -7.8190    0.2509   -0.6439 O.2     1  UNL1       -0.2754
     14 C          -4.6556    0.9659   -1.6382 C.3     1  UNL1       -0.0371
     15 C          -3.2405    0.7587   -1.2042 C.3     1  UNL1       -0.0307
     16 C          -4.9876    1.4740    0.7929 C.3     1  UNL1       -0.0371
     17 C          -3.6071    1.0021    1.1931 C.3     1  UNL1       -0.0307
     18 N           1.1802   -0.3572    1.5156 N.3     1  UNL1       -0.2864
     19 C           1.2890    0.3901    0.3386 C.3     1  UNL1        0.0157
     20 C           2.6762    1.0973    0.4101 C.3     1  UNL1        0.0263
     21 N           3.6963    0.0850    0.2388 N.pl3   1  UNL1       -0.3127
     22 C           4.9038    0.3157   -0.4661 C.ar    1  UNL1        0.1213
     23 C           5.8549   -0.6732   -0.5955 C.ar    1  UNL1       -0.0212
     24 C           7.0452   -0.4464   -1.2927 C.ar    1  UNL1       -0.0454
     25 C           7.2816    0.7759   -1.8615 C.ar    1  UNL1        0.0730
     26 C           8.5394    1.0357   -2.6071 C.3     1  UNL1        0.4188
     27 F           8.9785   -0.1739   -3.1113 F       1  UNL1       -0.1658
     28 F           8.3641    1.9409   -3.6210 F       1  UNL1       -0.1658
     29 F           9.5040    1.4815   -1.7077 F       1  UNL1       -0.1658
     30 C           6.3033    1.7504   -1.7131 C.ar    1  UNL1        0.0413
     31 N           5.1589    1.5056   -1.0331 N.ar    1  UNL1       -0.2398
     32 C           3.3919   -1.2066    0.8468 C.3     1  UNL1        0.0263
     33 C           2.4383   -0.9055    1.9869 C.3     1  UNL1        0.0157
     34 H           0.8609   -1.0001    3.7494 H       1  UNL1        0.0252
     35 H          -0.7348   -1.7818    3.6084 H       1  UNL1        0.0252
     36 H           0.7417   -2.7870    3.2676 H       1  UNL1        0.0252
     37 H           0.6127   -2.3724   -0.1302 H       1  UNL1        0.0252
     38 H           1.2995   -3.1359    1.3285 H       1  UNL1        0.0252
     39 H          -0.4311   -3.2669    0.9937 H       1  UNL1        0.0252
     40 H          -1.0457   -0.0855   -0.4607 H       1  UNL1        0.1493
     41 H          -4.0721   -1.5508    1.2206 H       1  UNL1        0.0286
     42 H          -3.6707   -2.0099   -0.4649 H       1  UNL1        0.0286
     43 H          -6.1825   -1.0652    0.6387 H       1  UNL1        0.0276
     44 H          -5.7820   -1.3106   -1.0756 H       1  UNL1        0.0276
     45 H          -7.3944    3.1479   -0.1282 H       1  UNL1        0.1449
     46 H          -7.4348    2.7816   -1.8737 H       1  UNL1        0.1449
     47 H          -4.9012    0.1118   -2.3386 H       1  UNL1        0.0276
     48 H          -4.8679    1.9345   -2.0989 H       1  UNL1        0.0276
     49 H          -2.6161    0.2519   -1.9784 H       1  UNL1        0.0286
     50 H          -2.7835    1.7574   -1.0387 H       1  UNL1        0.0286
     51 H          -5.6971    1.3560    1.6197 H       1  UNL1        0.0276
     52 H          -4.8935    2.5371    0.4887 H       1  UNL1        0.0276
     53 H          -3.6786    0.4775    2.1657 H       1  UNL1        0.0286
     54 H          -2.8972    1.8493    1.3043 H       1  UNL1        0.0286
     55 H           0.5701    1.2459    0.3778 H       1  UNL1        0.0442
     56 H           1.2799   -0.1252   -0.6218 H       1  UNL1        0.0442
     57 H           2.6923    1.5313    1.4310 H       1  UNL1        0.0477
     58 H           2.6720    1.8603   -0.3789 H       1  UNL1        0.0477
     59 H           5.7361   -1.6622   -0.1729 H       1  UNL1        0.0652
     60 H           7.7805   -1.2332   -1.3839 H       1  UNL1        0.0625
     61 H           6.5216    2.7098   -2.1772 H       1  UNL1        0.0836
     62 H           4.2853   -1.6915    1.2739 H       1  UNL1        0.0477
     63 H           2.9375   -1.8990    0.1361 H       1  UNL1        0.0477
     64 H           2.8983   -0.1030    2.6343 H       1  UNL1        0.0442
     65 H           2.3487   -1.7849    2.6259 H       1  UNL1        0.0442
@<TRIPOS>BOND
     1     1     2    1
     2     2     3    1
     3     2     4    1
     4     4     5    2
     5     4     6   am
     6     6     7    1
     7     7     8    1
     8     8     9    1
     9     9    10    1
    10    10    11    1
    11    11    12   am
    12    11    13    2
    13    10    14    1
    14    14    15    1
    15    10    16    1
    16    16    17    1
    17     2    18    1
    18    18    19    1
    19    19    20    1
    20    20    21    1
    21    21    22    1
    22    22    23   ar
    23    23    24   ar
    24    24    25   ar
    25    25    26    1
    26    26    27    1
    27    26    28    1
    28    26    29    1
    29    25    30   ar
    30    30    31   ar
    31    21    32    1
    32    32    33    1
    33    15     7    1
    34    33    18    1
    35    17     7    1
    36    31    22   ar
    37     1    34    1
    38     1    35    1
    39     1    36    1
    40     3    37    1
    41     3    38    1
    42     3    39    1
    43     6    40    1
    44     8    41    1
    45     8    42    1
    46     9    43    1
    47     9    44    1
    48    12    45    1
    49    12    46    1
    50    14    47    1
    51    14    48    1
    52    15    49    1
    53    15    50    1
    54    16    51    1
    55    16    52    1
    56    17    53    1
    57    17    54    1
    58    19    55    1
    59    19    56    1
    60    20    57    1
    61    20    58    1
    62    23    59    1
    63    24    60    1
    64    30    61    1
    65    32    62    1
    66    32    63    1
    67    33    64    1
    68    33    65    1
