@<TRIPOS>MOLECULE
*****
 79 82 0 0 0
SMALL
GASTEIGER

@<TRIPOS>ATOM
      1 C           8.4979   -2.7927   -2.5563 C.3     1  UNL1       -0.0223
      2 C           8.5030   -1.5331   -1.7384 C.ar    1  UNL1        0.0393
      3 C           8.0270   -1.5023   -0.4485 C.ar    1  UNL1       -0.0337
      4 C           8.0230   -0.3576    0.3170 C.ar    1  UNL1        0.0004
      5 C           7.5545   -0.2894    1.7151 C.3     1  UNL1        0.1153
      6 O           6.3859    0.3785    1.9181 O.3     1  UNL1       -0.4874
      7 C           5.1034    0.2146    1.5040 C.ar    1  UNL1        0.1211
      8 C           4.1640    1.1648    1.9448 C.ar    1  UNL1       -0.0181
      9 C           2.8308    1.0766    1.5729 C.ar    1  UNL1       -0.0334
     10 C           2.3924    0.0578    0.7632 C.ar    1  UNL1        0.0885
     11 S           0.7240   -0.0619    0.2959 S.O2    1  UNL1       -0.0010
     12 O           0.1017    1.3249    0.2478 O.2     1  UNL1       -0.1693
     13 O           0.5687   -0.6671   -1.0751 O.2     1  UNL1       -0.1693
     14 C          -0.0904   -1.0386    1.5342 C.3     1  UNL1        0.0952
     15 C          -1.5696   -1.2279    1.2516 C.3     1  UNL1        0.0906
     16 C          -2.2037    0.1040    1.2127 C.2     1  UNL1       -0.0606
     17 C          -3.2952    0.4035    0.5671 C.2     1  UNL1       -0.0690
     18 C          -4.1014   -0.5706   -0.2574 C.3     1  UNL1       -0.0157
     19 C          -5.4416   -0.6341    0.4606 C.3     1  UNL1        0.0390
     20 N          -6.0749    0.6073    0.6015 N.3     1  UNL1       -0.1382
     21 O          -7.0111    0.8150   -0.3725 O.3     1  UNL1       -0.3660
     22 C          -8.1541    0.0350   -0.4710 C.2     1  UNL1        0.3313
     23 O          -8.2916   -0.8828    0.3839 O.2     1  UNL1       -0.2485
     24 C          -9.1598    0.2733   -1.5300 C.3     1  UNL1        0.0611
     25 C         -10.3030   -0.7125   -1.4490 C.3     1  UNL1       -0.0499
     26 C          -8.5299    0.1989   -2.8982 C.3     1  UNL1       -0.0499
     27 C          -9.6733    1.7003   -1.3359 C.3     1  UNL1       -0.0499
     28 C          -5.3424    1.7775    0.8503 C.3     1  UNL1        0.0390
     29 C          -3.8803    1.7792    0.5888 C.3     1  UNL1       -0.0157
     30 N          -2.0910   -1.9722    2.3968 N.am    1  UNL1       -0.1779
     31 O          -2.0144   -1.4819    3.6476 O.3     1  UNL1       -0.2921
     32 C          -2.6892   -3.2347    2.1883 C.2     1  UNL1        0.2256
     33 O          -2.7757   -3.7319    1.0230 O.2     1  UNL1       -0.2772
     34 C           3.2903   -0.8791    0.3222 C.ar    1  UNL1       -0.0334
     35 C           4.6388   -0.7905    0.6981 C.ar    1  UNL1       -0.0181
     36 C           8.5235    0.8339   -0.2337 C.ar    1  UNL1        0.0068
     37 C           8.5344    2.0006    0.4963 C.ar    1  UNL1       -0.0522
     38 C           9.0362    3.1323   -0.1031 C.ar    1  UNL1       -0.0611
     39 C           9.5165    3.1080   -1.3976 C.ar    1  UNL1       -0.0597
     40 C           9.5037    1.9374   -2.1257 C.ar    1  UNL1       -0.0357
     41 C           8.9954    0.7813   -1.5256 C.ar    1  UNL1        0.0716
     42 N           8.9764   -0.3817   -2.2411 N.ar    1  UNL1       -0.2519
     43 H           8.5092   -2.4878   -3.6033 H       1  UNL1        0.0292
     44 H           7.5956   -3.3902   -2.3139 H       1  UNL1        0.0292
     45 H           9.3950   -3.3816   -2.2528 H       1  UNL1        0.0292
     46 H           7.6370   -2.4138   -0.0087 H       1  UNL1        0.0639
     47 H           7.5565   -1.3300    2.1735 H       1  UNL1        0.0748
     48 H           8.3706    0.2190    2.3091 H       1  UNL1        0.0748
     49 H           4.5122    1.9645    2.5812 H       1  UNL1        0.0655
     50 H           2.1401    1.8270    1.9332 H       1  UNL1        0.0638
     51 H           0.0902   -0.5776    2.5075 H       1  UNL1        0.0527
     52 H           0.4161   -2.0403    1.5314 H       1  UNL1        0.0527
     53 H          -1.7249   -1.7709    0.3116 H       1  UNL1        0.0585
     54 H          -1.7126    0.9124    1.7789 H       1  UNL1        0.0591
     55 H          -3.6341   -1.5421   -0.3645 H       1  UNL1        0.0323
     56 H          -4.2867   -0.0587   -1.2256 H       1  UNL1        0.0323
     57 H          -5.2269   -1.0917    1.4502 H       1  UNL1        0.0463
     58 H          -6.0653   -1.3383   -0.1335 H       1  UNL1        0.0463
     59 H          -9.9348   -1.6203   -0.9602 H       1  UNL1        0.0240
     60 H         -11.1538   -0.2545   -0.8903 H       1  UNL1        0.0240
     61 H         -10.6791   -0.9895   -2.4608 H       1  UNL1        0.0240
     62 H          -7.6900    0.9225   -2.9829 H       1  UNL1        0.0240
     63 H          -9.2982    0.4580   -3.6641 H       1  UNL1        0.0240
     64 H          -8.1383   -0.8073   -3.0780 H       1  UNL1        0.0240
     65 H          -8.8170    2.3196   -1.0452 H       1  UNL1        0.0240
     66 H         -10.4443    1.7129   -0.5391 H       1  UNL1        0.0240
     67 H         -10.0653    2.0805   -2.2919 H       1  UNL1        0.0240
     68 H          -5.7778    2.6961    0.3644 H       1  UNL1        0.0463
     69 H          -5.4595    2.0143    1.9556 H       1  UNL1        0.0463
     70 H          -3.3453    2.4370    1.3022 H       1  UNL1        0.0323
     71 H          -3.6940    2.2233   -0.4189 H       1  UNL1        0.0323
     72 H          -2.5023   -0.6121    3.7271 H       1  UNL1        0.2417
     73 H          -3.0832   -3.7921    3.0390 H       1  UNL1        0.1274
     74 H           2.9633   -1.6891   -0.3175 H       1  UNL1        0.0638
     75 H           5.3327   -1.5384    0.3507 H       1  UNL1        0.0655
     76 H           8.1570    2.0221    1.5034 H       1  UNL1        0.0624
     77 H           9.0779    4.1028    0.4148 H       1  UNL1        0.0618
     78 H           9.9162    3.9928   -1.8851 H       1  UNL1        0.0618
     79 H           9.8654    1.8590   -3.1395 H       1  UNL1        0.0639
@<TRIPOS>BOND
     1     1     2    1
     2     2     3   ar
     3     3     4   ar
     4     4     5    1
     5     5     6    1
     6     6     7    1
     7     7     8   ar
     8     8     9   ar
     9     9    10   ar
    10    10    11    1
    11    11    12    2
    12    11    13    2
    13    11    14    1
    14    14    15    1
    15    15    16    1
    16    16    17    2
    17    17    18    1
    18    18    19    1
    19    19    20    1
    20    20    21    1
    21    21    22    1
    22    22    23    2
    23    22    24    1
    24    24    25    1
    25    24    26    1
    26    24    27    1
    27    20    28    1
    28    28    29    1
    29    15    30    1
    30    30    31    1
    31    30    32   am
    32    32    33    2
    33    10    34   ar
    34    34    35   ar
    35     4    36   ar
    36    36    37   ar
    37    37    38   ar
    38    38    39   ar
    39    39    40   ar
    40    40    41   ar
    41    41    42   ar
    42    42     2   ar
    43    35     7   ar
    44    41    36   ar
    45    29    17    1
    46     1    43    1
    47     1    44    1
    48     1    45    1
    49     3    46    1
    50     5    47    1
    51     5    48    1
    52     8    49    1
    53     9    50    1
    54    14    51    1
    55    14    52    1
    56    15    53    1
    57    16    54    1
    58    18    55    1
    59    18    56    1
    60    19    57    1
    61    19    58    1
    62    25    59    1
    63    25    60    1
    64    25    61    1
    65    26    62    1
    66    26    63    1
    67    26    64    1
    68    27    65    1
    69    27    66    1
    70    27    67    1
    71    28    68    1
    72    28    69    1
    73    29    70    1
    74    29    71    1
    75    31    72    1
    76    32    73    1
    77    34    74    1
    78    35    75    1
    79    37    76    1
    80    38    77    1
    81    39    78    1
    82    40    79    1
