@<TRIPOS>MOLECULE
*****
 49 53 0 0 0
SMALL
GASTEIGER

@<TRIPOS>ATOM
      1 C           6.8718   -1.4539    0.5466 C.3     1  UNL1        0.0004
      2 N           6.1561   -0.6853   -0.4455 N.pl3   1  UNL1       -0.3360
      3 C           6.9092    0.1504   -1.3510 C.3     1  UNL1        0.0004
      4 C           4.7552   -0.7289   -0.5417 C.ar    1  UNL1        0.0292
      5 C           3.9835   -1.5040    0.3224 C.ar    1  UNL1       -0.0400
      6 C           2.6092   -1.5291    0.2012 C.ar    1  UNL1       -0.0493
      7 C           1.9433   -0.7979   -0.7683 C.ar    1  UNL1        0.0197
      8 C           0.5199   -0.8753   -0.8645 C.ar    1  UNL1        0.1691
      9 N          -0.0727   -1.8310   -1.6533 N.ar    1  UNL1       -0.1284
     10 N          -1.3750   -1.7382   -1.5986 N.ar    1  UNL1       -0.1267
     11 C          -1.6686   -0.7118   -0.7668 C.ar    1  UNL1        0.1913
     12 C          -2.8967   -0.2188   -0.3777 C.ar    1  UNL1        0.1561
     13 C          -4.1086   -0.8049   -0.9110 C.2     1  UNL1        0.2149
     14 O          -3.9980   -1.6132   -1.8972 O.2     1  UNL1       -0.2849
     15 C          -5.4170   -0.4933   -0.3550 C.ar    1  UNL1        0.0239
     16 C          -5.5118   -0.0921    0.9606 C.ar    1  UNL1       -0.0509
     17 C          -6.7513    0.2165    1.5022 C.ar    1  UNL1       -0.0611
     18 C          -7.9256    0.1454    0.7870 C.ar    1  UNL1       -0.0617
     19 C          -7.8048   -0.2614   -0.5381 C.ar    1  UNL1       -0.0611
     20 C          -6.5881   -0.5713   -1.0920 C.ar    1  UNL1       -0.0509
     21 N          -2.8503    0.8178    0.4736 N.ar    1  UNL1       -0.2382
     22 C          -1.7198    1.3629    0.9348 C.ar    1  UNL1        0.0886
     23 C          -1.7608    2.4335    1.8076 C.ar    1  UNL1       -0.0343
     24 C          -0.5965    2.9967    2.2804 C.ar    1  UNL1       -0.0596
     25 C           0.6095    2.4812    1.8728 C.ar    1  UNL1       -0.0597
     26 C           0.6625    1.3924    0.9845 C.ar    1  UNL1       -0.0357
     27 C          -0.4909    0.8291    0.5123 C.ar    1  UNL1        0.0754
     28 N          -0.4918   -0.2017   -0.3327 N.ar    1  UNL1       -0.2718
     29 C           2.7071   -0.0343   -1.6200 C.ar    1  UNL1       -0.0493
     30 C           4.0781   -0.0015   -1.5086 C.ar    1  UNL1       -0.0400
     31 H           6.6087   -1.0257    1.5335 H       1  UNL1        0.0428
     32 H           6.6661   -2.5383    0.4562 H       1  UNL1        0.0428
     33 H           7.9770   -1.3562    0.4376 H       1  UNL1        0.0428
     34 H           7.9828   -0.0166   -1.2596 H       1  UNL1        0.0428
     35 H           6.6107    1.2201   -1.2477 H       1  UNL1        0.0428
     36 H           6.6457   -0.1550   -2.4008 H       1  UNL1        0.0428
     37 H           4.5100   -2.0734    1.0790 H       1  UNL1        0.0636
     38 H           2.0640   -2.1531    0.9047 H       1  UNL1        0.0625
     39 H          -4.6280   -0.0172    1.6172 H       1  UNL1        0.0625
     40 H          -6.8049    0.5287    2.5487 H       1  UNL1        0.0618
     41 H          -8.9049    0.3725    1.1634 H       1  UNL1        0.0618
     42 H          -8.7224   -0.3278   -1.1297 H       1  UNL1        0.0618
     43 H          -6.5063   -0.8864   -2.1236 H       1  UNL1        0.0625
     44 H          -2.7175    2.8308    2.1212 H       1  UNL1        0.0639
     45 H          -0.6210    3.8300    2.9594 H       1  UNL1        0.0618
     46 H           1.5571    2.8714    2.2007 H       1  UNL1        0.0618
     47 H           1.6212    1.0327    0.7034 H       1  UNL1        0.0639
     48 H           2.2492    0.5720   -2.4176 H       1  UNL1        0.0625
     49 H           4.6356    0.6134   -2.2017 H       1  UNL1        0.0636
@<TRIPOS>BOND
     1     1     2    1
     2     2     3    1
     3     2     4    1
     4     4     5   ar
     5     5     6   ar
     6     6     7   ar
     7     7     8    1
     8     8     9   ar
     9     9    10   ar
    10    10    11   ar
    11    11    12   ar
    12    12    13    1
    13    13    14    2
    14    13    15    1
    15    15    16   ar
    16    16    17   ar
    17    17    18   ar
    18    18    19   ar
    19    19    20   ar
    20    12    21   ar
    21    21    22   ar
    22    22    23   ar
    23    23    24   ar
    24    24    25   ar
    25    25    26   ar
    26    26    27   ar
    27    27    28   ar
    28     7    29   ar
    29    29    30   ar
    30    30     4   ar
    31    28     8   ar
    32    28    11   ar
    33    20    15   ar
    34    27    22   ar
    35     1    31    1
    36     1    32    1
    37     1    33    1
    38     3    34    1
    39     3    35    1
    40     3    36    1
    41     5    37    1
    42     6    38    1
    43    16    39    1
    44    17    40    1
    45    18    41    1
    46    19    42    1
    47    20    43    1
    48    23    44    1
    49    24    45    1
    50    25    46    1
    51    26    47    1
    52    29    48    1
    53    30    49    1
