
     RDKit          3D

 50 54  0  0  0  0  0  0  0  0999 V2000
   -3.8967   -2.3158   -0.2325 C   0  0  0  0  0  0  0  0  0  0  0  0
   -3.2025   -1.0981   -0.4026 O   0  0  0  0  0  0  0  0  0  0  0  0
   -3.7692    0.0578    0.0590 C   0  0  0  0  0  0  0  0  0  0  0  0
   -4.9916    0.1410    0.6928 C   0  0  0  0  0  0  0  0  0  0  0  0
   -5.4980    1.3473    1.1313 C   0  0  0  0  0  0  0  0  0  0  0  0
   -4.7990    2.5227    0.9524 C   0  0  0  0  0  0  0  0  0  0  0  0
   -3.5724    2.4570    0.3191 C   0  0  0  0  0  0  0  0  0  0  0  0
   -2.9021    3.6240    0.1535 F   0  0  0  0  0  0  0  0  0  0  0  0
   -3.0711    1.2462   -0.1175 C   0  0  0  0  0  0  0  0  0  0  0  0
   -1.7601    1.2419   -0.7846 C   0  0  2  0  0  0  0  0  0  0  0  0
   -1.9690    1.4283   -2.2528 C   0  0  0  0  0  0  0  0  0  0  0  0
   -0.8971    0.5635   -2.8820 C   0  0  1  0  0  0  0  0  0  0  0  0
    0.3353    1.2085   -2.9162 O   0  0  0  0  0  0  0  0  0  0  0  0
   -0.8508   -0.5784   -1.8995 C   0  0  0  0  0  0  0  0  0  0  0  0
   -0.6802   -1.7993   -2.1552 O   0  0  0  0  0  0  0  0  0  0  0  0
   -1.0401    0.0047   -0.6154 N   0  0  0  0  0  0  0  0  0  0  0  0
   -0.5978   -0.5314    0.6426 C   0  0  0  0  0  0  0  0  0  0  0  0
    0.7672   -0.0684    1.0081 C   0  0  0  0  0  0  0  0  0  0  0  0
    1.0120    1.0713    1.7386 C   0  0  0  0  0  0  0  0  0  0  0  0
    2.3082    1.4312    2.0355 C   0  0  0  0  0  0  0  0  0  0  0  0
    3.3811    0.6534    1.6043 C   0  0  0  0  0  0  0  0  0  0  0  0
    4.6819    0.7493    1.7353 O   0  0  0  0  0  0  0  0  0  0  0  0
    5.3035   -0.2511    1.1395 C   0  0  0  0  0  0  0  0  0  0  0  0
    6.6369   -0.5949    0.9955 C   0  0  0  0  0  0  0  0  0  0  0  0
    6.9995   -1.7289    0.3017 C   0  0  0  0  0  0  0  0  0  0  0  0
    6.0653   -2.5741   -0.2809 C   0  0  0  0  0  0  0  0  0  0  0  0
    4.7477   -2.2051   -0.1203 C   0  0  0  0  0  0  0  0  0  0  0  0
    4.3622   -1.0762    0.5692 C   0  0  0  0  0  0  0  0  0  0  0  0
    3.1479   -0.4914    0.8712 C   0  0  0  0  0  0  0  0  0  0  0  0
    1.8419   -0.8370    0.5828 C   0  0  0  0  0  0  0  0  0  0  0  0
   -4.0049   -2.6178    0.8204 H   0  0  0  0  0  0  0  0  0  0  0  0
   -3.4124   -3.1249   -0.8129 H   0  0  0  0  0  0  0  0  0  0  0  0
   -4.9465   -2.1424   -0.6102 H   0  0  0  0  0  0  0  0  0  0  0  0
   -5.5239   -0.7972    0.8226 H   0  0  0  0  0  0  0  0  0  0  0  0
   -6.4586    1.3655    1.6223 H   0  0  0  0  0  0  0  0  0  0  0  0
   -5.1783    3.4860    1.2898 H   0  0  0  0  0  0  0  0  0  0  0  0
   -1.1484    2.0690   -0.3700 H   0  0  0  0  0  0  0  0  0  0  0  0
   -2.9446    1.0282   -2.6055 H   0  0  0  0  0  0  0  0  0  0  0  0
   -1.8667    2.4920   -2.5511 H   0  0  0  0  0  0  0  0  0  0  0  0
   -1.1844    0.2042   -3.8858 H   0  0  0  0  0  0  0  0  0  0  0  0
    0.2707    2.1535   -2.7054 H   0  0  0  0  0  0  0  0  0  0  0  0
   -1.2708   -0.1531    1.4662 H   0  0  0  0  0  0  0  0  0  0  0  0
   -0.5785   -1.6400    0.6684 H   0  0  0  0  0  0  0  0  0  0  0  0
    0.1605    1.6738    2.0715 H   0  0  0  0  0  0  0  0  0  0  0  0
    2.4665    2.3309    2.6103 H   0  0  0  0  0  0  0  0  0  0  0  0
    7.3760    0.0742    1.4567 H   0  0  0  0  0  0  0  0  0  0  0  0
    8.0690   -1.9634    0.2122 H   0  0  0  0  0  0  0  0  0  0  0  0
    6.3827   -3.4572   -0.8194 H   0  0  0  0  0  0  0  0  0  0  0  0
    3.9891   -2.8321   -0.5560 H   0  0  0  0  0  0  0  0  0  0  0  0
    1.7109   -1.7472    0.0029 H   0  0  0  0  0  0  0  0  0  0  0  0
  1  2  1  0
  2  3  1  0
  3  4  2  0
  4  5  1  0
  5  6  2  0
  6  7  1  0
  7  8  1  0
  7  9  2  0
  9 10  1  0
 10 11  1  0
 11 12  1  0
 12 13  1  0
 12 14  1  0
 14 15  2  0
 14 16  1  0
 16 17  1  0
 17 18  1  0
 18 19  2  0
 19 20  1  0
 20 21  2  0
 21 22  1  0
 22 23  1  0
 23 24  2  0
 24 25  1  0
 25 26  2  0
 26 27  1  0
 27 28  2  0
 28 29  1  0
 29 30  2  0
  9  3  1  0
 16 10  1  0
 30 18  1  0
 29 21  1  0
 28 23  1  0
  1 31  1  0
  1 32  1  0
  1 33  1  0
  4 34  1  0
  5 35  1  0
  6 36  1  0
 10 37  1  1
 11 38  1  0
 11 39  1  0
 12 40  1  6
 13 41  1  0
 17 42  1  0
 17 43  1  0
 19 44  1  0
 20 45  1  0
 24 46  1  0
 25 47  1  0
 26 48  1  0
 27 49  1  0
 30 50  1  0
M  END
$$$$
