@<TRIPOS>MOLECULE
*****
 50 54 0 0 0
SMALL
GASTEIGER

@<TRIPOS>ATOM
      1 C          -3.8967   -2.3158   -0.2325 C.3     1  UNL1        0.0788
      2 O          -3.2025   -1.0981   -0.4026 O.3     1  UNL1       -0.4947
      3 C          -3.7692    0.0578    0.0590 C.ar    1  UNL1        0.1278
      4 C          -4.9916    0.1410    0.6928 C.ar    1  UNL1       -0.0194
      5 C          -5.4980    1.3473    1.1313 C.ar    1  UNL1       -0.0556
      6 C          -4.7990    2.5227    0.9524 C.ar    1  UNL1       -0.0259
      7 C          -3.5724    2.4570    0.3191 C.ar    1  UNL1        0.1318
      8 F          -2.9021    3.6240    0.1535 F       1  UNL1       -0.2050
      9 C          -3.0711    1.2462   -0.1175 C.ar    1  UNL1        0.0497
     10 C          -1.7601    1.2419   -0.7846 C.3     1  UNL1        0.0606
     11 C          -1.9690    1.4283   -2.2528 C.3     1  UNL1        0.0048
     12 C          -0.8971    0.5635   -2.8820 C.3     1  UNL1        0.1331
     13 O           0.3353    1.2085   -2.9162 O.3     1  UNL1       -0.3825
     14 C          -0.8508   -0.5784   -1.8995 C.2     1  UNL1        0.2450
     15 O          -0.6802   -1.7993   -2.1552 O.2     1  UNL1       -0.2727
     16 N          -1.0401    0.0047   -0.6154 N.am    1  UNL1       -0.2876
     17 C          -0.5978   -0.5314    0.6426 C.3     1  UNL1        0.0404
     18 C           0.7672   -0.0684    1.0081 C.ar    1  UNL1       -0.0293
     19 C           1.0120    1.0713    1.7386 C.ar    1  UNL1       -0.0536
     20 C           2.3082    1.4312    2.0355 C.ar    1  UNL1       -0.0184
     21 C           3.3811    0.6534    1.6043 C.ar    1  UNL1        0.1363
     22 O           4.6819    0.7493    1.7353 O.2     1  UNL1       -0.4548
     23 C           5.3035   -0.2511    1.1395 C.ar    1  UNL1        0.1362
     24 C           6.6369   -0.5949    0.9955 C.ar    1  UNL1       -0.0187
     25 C           6.9995   -1.7289    0.3017 C.ar    1  UNL1       -0.0582
     26 C           6.0653   -2.5741   -0.2809 C.ar    1  UNL1       -0.0610
     27 C           4.7477   -2.2051   -0.1203 C.ar    1  UNL1       -0.0504
     28 C           4.3622   -1.0762    0.5692 C.ar    1  UNL1        0.0279
     29 C           3.1479   -0.4914    0.8712 C.ar    1  UNL1        0.0282
     30 C           1.8419   -0.8370    0.5828 C.ar    1  UNL1       -0.0457
     31 H          -4.0049   -2.6178    0.8204 H       1  UNL1        0.0660
     32 H          -3.4124   -3.1249   -0.8129 H       1  UNL1        0.0660
     33 H          -4.9465   -2.1424   -0.6102 H       1  UNL1        0.0660
     34 H          -5.5239   -0.7972    0.8226 H       1  UNL1        0.0654
     35 H          -6.4586    1.3655    1.6223 H       1  UNL1        0.0620
     36 H          -5.1783    3.4860    1.2898 H       1  UNL1        0.0646
     37 H          -1.1484    2.0690   -0.3700 H       1  UNL1        0.0553
     38 H          -2.9446    1.0282   -2.6055 H       1  UNL1        0.0316
     39 H          -1.8667    2.4920   -2.5511 H       1  UNL1        0.0316
     40 H          -1.1844    0.2042   -3.8858 H       1  UNL1        0.0691
     41 H           0.2707    2.1535   -2.7054 H       1  UNL1        0.2104
     42 H          -1.2708   -0.1531    1.4662 H       1  UNL1        0.0514
     43 H          -0.5785   -1.6400    0.6684 H       1  UNL1        0.0514
     44 H           0.1605    1.6738    2.0715 H       1  UNL1        0.0622
     45 H           2.4665    2.3309    2.6103 H       1  UNL1        0.0654
     46 H           7.3760    0.0742    1.4567 H       1  UNL1        0.0654
     47 H           8.0690   -1.9634    0.2122 H       1  UNL1        0.0619
     48 H           6.3827   -3.4572   -0.8194 H       1  UNL1        0.0618
     49 H           3.9891   -2.8321   -0.5560 H       1  UNL1        0.0625
     50 H           1.7109   -1.7472    0.0029 H       1  UNL1        0.0628
@<TRIPOS>BOND
     1     1     2    1
     2     2     3    1
     3     3     4   ar
     4     4     5   ar
     5     5     6   ar
     6     6     7   ar
     7     7     8    1
     8     7     9   ar
     9     9    10    1
    10    10    11    1
    11    11    12    1
    12    12    13    1
    13    12    14    1
    14    14    15    2
    15    14    16   am
    16    16    17    1
    17    17    18    1
    18    18    19   ar
    19    19    20   ar
    20    20    21   ar
    21    21    22   ar
    22    22    23   ar
    23    23    24   ar
    24    24    25   ar
    25    25    26   ar
    26    26    27   ar
    27    27    28   ar
    28    28    29   ar
    29    29    30   ar
    30     9     3   ar
    31    16    10    1
    32    30    18   ar
    33    29    21   ar
    34    28    23   ar
    35     1    31    1
    36     1    32    1
    37     1    33    1
    38     4    34    1
    39     5    35    1
    40     6    36    1
    41    10    37    1
    42    11    38    1
    43    11    39    1
    44    12    40    1
    45    13    41    1
    46    17    42    1
    47    17    43    1
    48    19    44    1
    49    20    45    1
    50    24    46    1
    51    25    47    1
    52    26    48    1
    53    27    49    1
    54    30    50    1
