
     RDKit          3D

 41 44  0  0  0  0  0  0  0  0999 V2000
    4.9544    2.1849   -0.5785 O   0  0  0  0  0  0  0  0  0  0  0  0
    3.7163    1.9465   -0.4513 C   0  0  0  0  0  0  0  0  0  0  0  0
    2.8353    2.9941   -0.6137 C   0  0  0  0  0  0  0  0  0  0  0  0
    1.4911    2.7189   -0.4722 C   0  0  0  0  0  0  0  0  0  0  0  0
    1.0452    1.4457   -0.1797 C   0  0  0  0  0  0  0  0  0  0  0  0
   -0.3859    1.2070   -0.0403 C   0  0  0  0  0  0  0  0  0  0  0  0
   -1.3768    2.1059   -0.1648 N   0  0  0  0  0  0  0  0  0  0  0  0
   -2.5702    1.5308    0.0296 C   0  0  0  0  0  0  0  0  0  0  0  0
   -3.8756    2.0243    0.0090 C   0  0  0  0  0  0  0  0  0  0  0  0
   -4.9116    1.1571    0.2542 C   0  0  0  0  0  0  0  0  0  0  0  0
   -4.6864   -0.1907    0.5201 C   0  0  0  0  0  0  0  0  0  0  0  0
   -6.0697   -1.2159    0.8200 S   0  0  0  0  0  6  0  0  0  0  0  0
   -5.7194   -2.2947    1.7782 O   0  0  0  0  0  0  0  0  0  0  0  0
   -7.2069   -0.4042    1.3947 O   0  0  0  0  0  0  0  0  0  0  0  0
   -6.6347   -1.9008   -0.7311 C   0  0  0  0  0  0  0  0  0  0  0  0
   -7.7240   -2.7127   -0.5241 F   0  0  0  0  0  0  0  0  0  0  0  0
   -7.0379   -0.8646   -1.5551 F   0  0  0  0  0  0  0  0  0  0  0  0
   -5.6208   -2.5668   -1.3798 F   0  0  0  0  0  0  0  0  0  0  0  0
   -3.3927   -0.6655    0.5376 C   0  0  0  0  0  0  0  0  0  0  0  0
   -2.3209    0.1999    0.2905 C   0  0  0  0  0  0  0  0  0  0  0  0
   -0.9979    0.0428    0.2401 N   0  0  0  0  0  0  0  0  0  0  0  0
    1.9840    0.4515   -0.0319 C   0  0  0  0  0  0  0  0  0  0  0  0
    3.3138    0.6948   -0.1659 N   0  0  0  0  0  0  0  0  0  0  0  0
    4.2704   -0.3466   -0.0095 C   0  0  0  0  0  0  0  0  0  0  0  0
    5.3307   -0.2185    0.8677 C   0  0  0  0  0  0  0  0  0  0  0  0
    6.2744   -1.2026    1.0457 C   0  0  0  0  0  0  0  0  0  0  0  0
    6.1649   -2.3681    0.3227 C   0  0  0  0  0  0  0  0  0  0  0  0
    5.1188   -2.5463   -0.5712 C   0  0  0  0  0  0  0  0  0  0  0  0
    4.1969   -1.5306   -0.7153 C   0  0  0  0  0  0  0  0  0  0  0  0
    3.1988    3.9834   -0.8421 H   0  0  0  0  0  0  0  0  0  0  0  0
    0.7636    3.5122   -0.5915 H   0  0  0  0  0  0  0  0  0  0  0  0
   -4.0038    3.0756   -0.2014 H   0  0  0  0  0  0  0  0  0  0  0  0
   -5.9134    1.5830    0.2286 H   0  0  0  0  0  0  0  0  0  0  0  0
   -3.1974   -1.6919    0.7386 H   0  0  0  0  0  0  0  0  0  0  0  0
   -0.4991   -0.8729    0.3990 H   0  0  0  0  0  0  0  0  0  0  0  0
    1.6843   -0.5501    0.1950 H   0  0  0  0  0  0  0  0  0  0  0  0
    5.4057    0.6953    1.4263 H   0  0  0  0  0  0  0  0  0  0  0  0
    7.1051   -1.1137    1.7267 H   0  0  0  0  0  0  0  0  0  0  0  0
    6.8893   -3.1473    0.4464 H   0  0  0  0  0  0  0  0  0  0  0  0
    5.0333   -3.4760   -1.1464 H   0  0  0  0  0  0  0  0  0  0  0  0
    3.3688   -1.6732   -1.4237 H   0  0  0  0  0  0  0  0  0  0  0  0
  1  2  2  0
  2  3  1  0
  3  4  2  0
  4  5  1  0
  5  6  1  0
  6  7  2  0
  7  8  1  0
  8  9  2  0
  9 10  1  0
 10 11  2  0
 11 12  1  0
 12 13  2  0
 12 14  2  0
 12 15  1  0
 15 16  1  0
 15 17  1  0
 15 18  1  0
 11 19  1  0
 19 20  2  0
 20 21  1  0
  5 22  2  0
 22 23  1  0
 23 24  1  0
 24 25  2  0
 25 26  1  0
 26 27  2  0
 27 28  1  0
 28 29  2  0
 23  2  1  0
 29 24  1  0
 21  6  1  0
 20  8  1  0
  3 30  1  0
  4 31  1  0
  9 32  1  0
 10 33  1  0
 19 34  1  0
 21 35  1  0
 22 36  1  0
 25 37  1  0
 26 38  1  0
 27 39  1  0
 28 40  1  0
 29 41  1  0
M  END
$$$$
