@<TRIPOS>MOLECULE
*****
 41 44 0 0 0
SMALL
GASTEIGER

@<TRIPOS>ATOM
      1 O           4.9544    2.1849   -0.5785 O.2     1  UNL1       -0.2673
      2 C           3.7163    1.9465   -0.4513 C.ar    1  UNL1        0.2557
      3 C           2.8353    2.9941   -0.6137 C.ar    1  UNL1        0.0040
      4 C           1.4911    2.7189   -0.4722 C.ar    1  UNL1       -0.0446
      5 C           1.0452    1.4457   -0.1797 C.ar    1  UNL1        0.0340
      6 C          -0.3859    1.2070   -0.0403 C.ar    1  UNL1        0.1407
      7 N          -1.3768    2.1059   -0.1648 N.ar    1  UNL1       -0.2277
      8 C          -2.5702    1.5308    0.0296 C.ar    1  UNL1        0.0896
      9 C          -3.8756    2.0243    0.0090 C.ar    1  UNL1       -0.0324
     10 C          -4.9116    1.1571    0.2542 C.ar    1  UNL1       -0.0344
     11 C          -4.6864   -0.1907    0.5201 C.ar    1  UNL1        0.0996
     12 S          -6.0697   -1.2159    0.8200 S.O2    1  UNL1        0.0909
     13 O          -5.7194   -2.2947    1.7782 O.2     1  UNL1       -0.1612
     14 O          -7.2069   -0.4042    1.3947 O.2     1  UNL1       -0.1612
     15 C          -6.6347   -1.9008   -0.7311 C.3     1  UNL1        0.5261
     16 F          -7.7240   -2.7127   -0.5241 F       1  UNL1       -0.1500
     17 F          -7.0379   -0.8646   -1.5551 F       1  UNL1       -0.1500
     18 F          -5.6208   -2.5668   -1.3798 F       1  UNL1       -0.1500
     19 C          -3.3927   -0.6655    0.5376 C.ar    1  UNL1       -0.0111
     20 C          -2.3209    0.1999    0.2905 C.ar    1  UNL1        0.0683
     21 N          -0.9979    0.0428    0.2401 N.ar    1  UNL1       -0.3378
     22 C           1.9840    0.4515   -0.0319 C.ar    1  UNL1        0.0238
     23 N           3.3138    0.6948   -0.1659 N.ar    1  UNL1       -0.2835
     24 C           4.2704   -0.3466   -0.0095 C.ar    1  UNL1        0.0495
     25 C           5.3307   -0.2185    0.8677 C.ar    1  UNL1       -0.0377
     26 C           6.2744   -1.2026    1.0457 C.ar    1  UNL1       -0.0598
     27 C           6.1649   -2.3681    0.3227 C.ar    1  UNL1       -0.0616
     28 C           5.1188   -2.5463   -0.5712 C.ar    1  UNL1       -0.0598
     29 C           4.1969   -1.5306   -0.7153 C.ar    1  UNL1       -0.0377
     30 H           3.1988    3.9834   -0.8421 H       1  UNL1        0.0672
     31 H           0.7636    3.5122   -0.5915 H       1  UNL1        0.0627
     32 H          -4.0038    3.0756   -0.2014 H       1  UNL1        0.0640
     33 H          -5.9134    1.5830    0.2286 H       1  UNL1        0.0637
     34 H          -3.1974   -1.6919    0.7386 H       1  UNL1        0.0658
     35 H          -0.4991   -0.8729    0.3990 H       1  UNL1        0.1674
     36 H           1.6843   -0.5501    0.1950 H       1  UNL1        0.0821
     37 H           5.4057    0.6953    1.4263 H       1  UNL1        0.0638
     38 H           7.1051   -1.1137    1.7267 H       1  UNL1        0.0618
     39 H           6.8893   -3.1473    0.4464 H       1  UNL1        0.0618
     40 H           5.0333   -3.4760   -1.1464 H       1  UNL1        0.0618
     41 H           3.3688   -1.6732   -1.4237 H       1  UNL1        0.0638
@<TRIPOS>BOND
     1     1     2    2
     2     2     3   ar
     3     3     4   ar
     4     4     5   ar
     5     5     6    1
     6     6     7   ar
     7     7     8   ar
     8     8     9   ar
     9     9    10   ar
    10    10    11   ar
    11    11    12    1
    12    12    13    2
    13    12    14    2
    14    12    15    1
    15    15    16    1
    16    15    17    1
    17    15    18    1
    18    11    19   ar
    19    19    20   ar
    20    20    21   ar
    21     5    22   ar
    22    22    23   ar
    23    23    24    1
    24    24    25   ar
    25    25    26   ar
    26    26    27   ar
    27    27    28   ar
    28    28    29   ar
    29    23     2   ar
    30    29    24   ar
    31    21     6   ar
    32    20     8   ar
    33     3    30    1
    34     4    31    1
    35     9    32    1
    36    10    33    1
    37    19    34    1
    38    21    35    1
    39    22    36    1
    40    25    37    1
    41    26    38    1
    42    27    39    1
    43    28    40    1
    44    29    41    1
