@<TRIPOS>MOLECULE
*****
 58 62 0 0 0
SMALL
GASTEIGER

@<TRIPOS>ATOM
      1 C          -2.5463   -0.7221   -1.3897 C.3     1  UNL1       -0.0351
      2 C          -1.2615   -1.1131   -0.6285 C.3     1  UNL1        0.0935
      3 C          -0.2730   -1.3888   -1.6859 C.ar    1  UNL1        0.0158
      4 C           1.0203   -0.9137   -1.6236 C.ar    1  UNL1       -0.0463
      5 C           1.9781   -1.1831   -2.5308 C.ar    1  UNL1       -0.0217
      6 C           3.3499   -0.7304   -2.4130 C.2     1  UNL1       -0.0172
      7 C           4.0232   -0.5720   -1.2987 C.2     1  UNL1        0.1492
      8 F           3.3812   -0.8428   -0.1345 F       1  UNL1       -0.2032
      9 C           5.4208   -0.1957   -1.2394 C.ar    1  UNL1        0.0990
     10 C           6.0981   -0.0291   -0.0570 C.ar    1  UNL1       -0.0322
     11 C           7.4429    0.2678    0.0048 C.ar    1  UNL1       -0.0408
     12 C           8.1409    0.4021   -1.1990 C.ar    1  UNL1        0.0699
     13 C           9.5464    0.6713   -1.1243 C.1     1  UNL1        0.1007
     14 N          10.7029    0.9028   -1.0694 N.1     1  UNL1       -0.1908
     15 C           7.4554    0.2351   -2.3745 C.ar    1  UNL1        0.0457
     16 N           6.1475   -0.0517   -2.3617 N.ar    1  UNL1       -0.2514
     17 C           1.6419   -2.0009   -3.6248 C.ar    1  UNL1       -0.0518
     18 C           0.3697   -2.4789   -3.7094 C.ar    1  UNL1       -0.0255
     19 C          -0.5899   -2.1883   -2.7610 C.ar    1  UNL1        0.1289
     20 F          -1.8392   -2.7148   -2.9279 F       1  UNL1       -0.2051
     21 N          -1.6431   -2.3676    0.0194 N.2     1  UNL1       -0.2521
     22 C          -2.4627   -2.5117    0.9644 C.2     1  UNL1        0.1485
     23 N          -2.7519   -3.7762    1.5056 N.pl3   1  UNL1       -0.3380
     24 S          -3.2157   -0.9870    1.5694 S.3     1  UNL1       -0.0746
     25 C          -1.8770    0.2402    1.4141 C.3     1  UNL1        0.1054
     26 C          -2.2608    1.6260    1.7131 C.2     1  UNL1        0.2329
     27 O          -1.2895    2.3773    2.1211 O.2     1  UNL1       -0.2740
     28 N          -3.5098    2.1948    1.6049 N.am    1  UNL1       -0.2900
     29 C          -4.7645    1.6100    1.2223 C.3     1  UNL1        0.0308
     30 C          -5.6825    1.4750    2.4332 C.3     1  UNL1        0.0274
     31 N          -5.4293    2.5676    3.3551 N.am    1  UNL1       -0.3125
     32 C          -4.7982    3.7745    2.8821 C.2     1  UNL1        0.2305
     33 O          -5.1893    4.8923    3.2218 O.2     1  UNL1       -0.2741
     34 C          -3.6325    3.6432    1.9478 C.3     1  UNL1        0.0910
     35 C          -0.4901   -0.2335    1.6934 C.3     1  UNL1       -0.0220
     36 C          -0.9697    0.0157    0.2709 C.3     1  UNL1        0.0134
     37 H          -2.3251   -0.5049   -2.4561 H       1  UNL1        0.0256
     38 H          -3.0044    0.1486   -0.9026 H       1  UNL1        0.0256
     39 H          -3.2373   -1.5857   -1.3218 H       1  UNL1        0.0256
     40 H           1.2431   -0.2767   -0.7638 H       1  UNL1        0.0628
     41 H           3.9404   -0.4865   -3.3154 H       1  UNL1        0.0653
     42 H           5.5439   -0.1397    0.8579 H       1  UNL1        0.0640
     43 H           7.9943    0.4072    0.9231 H       1  UNL1        0.0631
     44 H           8.0220    0.3479   -3.3164 H       1  UNL1        0.0843
     45 H           2.4339   -2.2059   -4.3561 H       1  UNL1        0.0624
     46 H           0.1083   -3.1021   -4.5550 H       1  UNL1        0.0646
     47 H          -3.0351   -4.5179    0.7956 H       1  UNL1        0.1442
     48 H          -2.7206   -4.0556    2.5057 H       1  UNL1        0.1442
     49 H          -4.7337    0.6942    0.6477 H       1  UNL1        0.0480
     50 H          -5.3014    2.3777    0.5748 H       1  UNL1        0.0480
     51 H          -5.5633    0.5149    2.9492 H       1  UNL1        0.0477
     52 H          -6.7294    1.6243    2.0805 H       1  UNL1        0.0477
     53 H          -5.6808    2.5176    4.3551 H       1  UNL1        0.1488
     54 H          -2.7431    3.9968    2.4497 H       1  UNL1        0.0560
     55 H          -3.8210    4.1508    0.9946 H       1  UNL1        0.0560
     56 H           0.1848    0.5222    2.1755 H       1  UNL1        0.0287
     57 H          -0.3147   -1.2786    1.9968 H       1  UNL1        0.0287
     58 H          -0.5035    0.9571   -0.1669 H       1  UNL1        0.0346
@<TRIPOS>BOND
     1     2     1    1
     2     2     3    1
     3     3     4   ar
     4     4     5   ar
     5     5     6    1
     6     6     7    2
     7     7     8    1
     8     7     9    1
     9     9    10   ar
    10    10    11   ar
    11    11    12   ar
    12    12    13    1
    13    13    14    3
    14    12    15   ar
    15    15    16   ar
    16     5    17   ar
    17    17    18   ar
    18    18    19   ar
    19    19    20    1
    20     2    21    1
    21    21    22    2
    22    22    23    1
    23    22    24    1
    24    24    25    1
    25    25    26    1
    26    26    27    2
    27    26    28   am
    28    28    29    1
    29    29    30    1
    30    30    31    1
    31    31    32   am
    32    32    33    2
    33    32    34    1
    34    25    35    1
    35    35    36    1
    36    36     2    1
    37    19     3   ar
    38    36    25    1
    39    16     9   ar
    40    34    28    1
    41     1    37    1
    42     1    38    1
    43     1    39    1
    44     4    40    1
    45     6    41    1
    46    10    42    1
    47    11    43    1
    48    15    44    1
    49    17    45    1
    50    18    46    1
    51    23    47    1
    52    23    48    1
    53    29    49    1
    54    29    50    1
    55    30    51    1
    56    30    52    1
    57    31    53    1
    58    34    54    1
    59    34    55    1
    60    35    56    1
    61    35    57    1
    62    36    58    1
