
     RDKit          3D

 58 62  0  0  0  0  0  0  0  0999 V2000
   -2.5463   -0.7221   -1.3897 C   0  0  0  0  0  0  0  0  0  0  0  0
   -1.2615   -1.1131   -0.6285 C   0  0  2  0  0  0  0  0  0  0  0  0
   -0.2730   -1.3888   -1.6859 C   0  0  0  0  0  0  0  0  0  0  0  0
    1.0203   -0.9137   -1.6236 C   0  0  0  0  0  0  0  0  0  0  0  0
    1.9781   -1.1831   -2.5308 C   0  0  0  0  0  0  0  0  0  0  0  0
    3.3499   -0.7304   -2.4130 C   0  0  0  0  0  0  0  0  0  0  0  0
    4.0232   -0.5720   -1.2987 C   0  0  0  0  0  0  0  0  0  0  0  0
    3.3812   -0.8428   -0.1345 F   0  0  0  0  0  0  0  0  0  0  0  0
    5.4208   -0.1957   -1.2394 C   0  0  0  0  0  0  0  0  0  0  0  0
    6.0981   -0.0291   -0.0570 C   0  0  0  0  0  0  0  0  0  0  0  0
    7.4429    0.2678    0.0048 C   0  0  0  0  0  0  0  0  0  0  0  0
    8.1409    0.4021   -1.1990 C   0  0  0  0  0  0  0  0  0  0  0  0
    9.5464    0.6713   -1.1243 C   0  0  0  0  0  0  0  0  0  0  0  0
   10.7029    0.9028   -1.0694 N   0  0  0  0  0  0  0  0  0  0  0  0
    7.4554    0.2351   -2.3745 C   0  0  0  0  0  0  0  0  0  0  0  0
    6.1475   -0.0517   -2.3617 N   0  0  0  0  0  0  0  0  0  0  0  0
    1.6419   -2.0009   -3.6248 C   0  0  0  0  0  0  0  0  0  0  0  0
    0.3697   -2.4789   -3.7094 C   0  0  0  0  0  0  0  0  0  0  0  0
   -0.5899   -2.1883   -2.7610 C   0  0  0  0  0  0  0  0  0  0  0  0
   -1.8392   -2.7148   -2.9279 F   0  0  0  0  0  0  0  0  0  0  0  0
   -1.6431   -2.3676    0.0194 N   0  0  0  0  0  0  0  0  0  0  0  0
   -2.4627   -2.5117    0.9644 C   0  0  0  0  0  0  0  0  0  0  0  0
   -2.7519   -3.7762    1.5056 N   0  0  0  0  0  0  0  0  0  0  0  0
   -3.2157   -0.9870    1.5694 S   0  0  0  0  0  0  0  0  0  0  0  0
   -1.8770    0.2402    1.4141 C   0  0  1  0  0  0  0  0  0  0  0  0
   -2.2608    1.6260    1.7131 C   0  0  0  0  0  0  0  0  0  0  0  0
   -1.2895    2.3773    2.1211 O   0  0  0  0  0  0  0  0  0  0  0  0
   -3.5098    2.1948    1.6049 N   0  0  0  0  0  0  0  0  0  0  0  0
   -4.7645    1.6100    1.2223 C   0  0  0  0  0  0  0  0  0  0  0  0
   -5.6825    1.4750    2.4332 C   0  0  0  0  0  0  0  0  0  0  0  0
   -5.4293    2.5676    3.3551 N   0  0  0  0  0  0  0  0  0  0  0  0
   -4.7982    3.7745    2.8821 C   0  0  0  0  0  0  0  0  0  0  0  0
   -5.1893    4.8923    3.2218 O   0  0  0  0  0  0  0  0  0  0  0  0
   -3.6325    3.6432    1.9478 C   0  0  0  0  0  0  0  0  0  0  0  0
   -0.4901   -0.2335    1.6934 C   0  0  0  0  0  0  0  0  0  0  0  0
   -0.9697    0.0157    0.2709 C   0  0  1  0  0  0  0  0  0  0  0  0
   -2.3251   -0.5049   -2.4561 H   0  0  0  0  0  0  0  0  0  0  0  0
   -3.0044    0.1486   -0.9026 H   0  0  0  0  0  0  0  0  0  0  0  0
   -3.2373   -1.5857   -1.3218 H   0  0  0  0  0  0  0  0  0  0  0  0
    1.2431   -0.2767   -0.7638 H   0  0  0  0  0  0  0  0  0  0  0  0
    3.9404   -0.4865   -3.3154 H   0  0  0  0  0  0  0  0  0  0  0  0
    5.5439   -0.1397    0.8579 H   0  0  0  0  0  0  0  0  0  0  0  0
    7.9943    0.4072    0.9231 H   0  0  0  0  0  0  0  0  0  0  0  0
    8.0220    0.3479   -3.3164 H   0  0  0  0  0  0  0  0  0  0  0  0
    2.4339   -2.2059   -4.3561 H   0  0  0  0  0  0  0  0  0  0  0  0
    0.1083   -3.1021   -4.5550 H   0  0  0  0  0  0  0  0  0  0  0  0
   -3.0351   -4.5179    0.7956 H   0  0  0  0  0  0  0  0  0  0  0  0
   -2.7206   -4.0556    2.5057 H   0  0  0  0  0  0  0  0  0  0  0  0
   -4.7337    0.6942    0.6477 H   0  0  0  0  0  0  0  0  0  0  0  0
   -5.3014    2.3777    0.5748 H   0  0  0  0  0  0  0  0  0  0  0  0
   -5.5633    0.5149    2.9492 H   0  0  0  0  0  0  0  0  0  0  0  0
   -6.7294    1.6243    2.0805 H   0  0  0  0  0  0  0  0  0  0  0  0
   -5.6808    2.5176    4.3551 H   0  0  0  0  0  0  0  0  0  0  0  0
   -2.7431    3.9968    2.4497 H   0  0  0  0  0  0  0  0  0  0  0  0
   -3.8210    4.1508    0.9946 H   0  0  0  0  0  0  0  0  0  0  0  0
    0.1848    0.5222    2.1755 H   0  0  0  0  0  0  0  0  0  0  0  0
   -0.3147   -1.2786    1.9968 H   0  0  0  0  0  0  0  0  0  0  0  0
   -0.5035    0.9571   -0.1669 H   0  0  0  0  0  0  0  0  0  0  0  0
  2  1  1  6
  2  3  1  0
  3  4  2  0
  4  5  1  0
  5  6  1  0
  6  7  2  0
  7  8  1  0
  7  9  1  0
  9 10  2  0
 10 11  1  0
 11 12  2  0
 12 13  1  0
 13 14  3  0
 12 15  1  0
 15 16  2  0
  5 17  2  0
 17 18  1  0
 18 19  2  0
 19 20  1  0
  2 21  1  0
 21 22  2  0
 22 23  1  0
 22 24  1  0
 24 25  1  0
 25 26  1  1
 26 27  2  0
 26 28  1  0
 28 29  1  0
 29 30  1  0
 30 31  1  0
 31 32  1  0
 32 33  2  0
 32 34  1  0
 25 35  1  0
 35 36  1  0
 36  2  1  0
 19  3  1  0
 36 25  1  0
 16  9  1  0
 34 28  1  0
  1 37  1  0
  1 38  1  0
  1 39  1  0
  4 40  1  0
  6 41  1  0
 10 42  1  0
 11 43  1  0
 15 44  1  0
 17 45  1  0
 18 46  1  0
 23 47  1  0
 23 48  1  0
 29 49  1  0
 29 50  1  0
 30 51  1  0
 30 52  1  0
 31 53  1  0
 34 54  1  0
 34 55  1  0
 35 56  1  0
 35 57  1  0
 36 58  1  6
M  END
$$$$
