@<TRIPOS>MOLECULE
*****
 28 27 0 0 0
SMALL
GASTEIGER

@<TRIPOS>ATOM
      1 C           0.7799    0.2093   -1.8127 C.3     1  UNL1       -0.0226
      2 C           0.9381    0.0945   -0.2999 C.3     1  UNL1        0.1412
      3 C          -0.2571    0.6167    0.4455 C.3     1  UNL1        0.0069
      4 N          -1.5013   -0.0043    0.1761 N.4     1  UNL1        0.2395
      5 C          -1.4614   -1.1551   -0.6975 C.3     1  UNL1       -0.0417
      6 C          -2.1269   -0.3860    1.4352 C.3     1  UNL1       -0.0417
      7 C          -2.3900    0.9579   -0.4521 C.3     1  UNL1       -0.0417
      8 O           2.1207    0.8176    0.0959 O.3     1  UNL1       -0.4422
      9 C           3.1859    0.1699    0.7416 C.2     1  UNL1        0.3981
     10 N           4.2469    1.0693    1.0409 N.am    1  UNL1       -0.2950
     11 O           3.2891   -1.0495    1.0616 O.2     1  UNL1       -0.2267
     12 H           1.7282    0.6638   -2.2287 H       1  UNL1        0.0267
     13 H          -0.0128    0.8940   -2.1215 H       1  UNL1        0.0267
     14 H           0.7133   -0.8138   -2.2287 H       1  UNL1        0.0267
     15 H           1.1177   -0.9484    0.0168 H       1  UNL1        0.0786
     16 H          -0.3165    1.7244    0.2725 H       1  UNL1        0.0851
     17 H          -0.0101    0.5044    1.5397 H       1  UNL1        0.0851
     18 H          -1.6272   -0.8351   -1.7429 H       1  UNL1        0.0778
     19 H          -2.3834   -1.7518   -0.4226 H       1  UNL1        0.0778
     20 H          -0.6301   -1.8375   -0.5370 H       1  UNL1        0.0778
     21 H          -1.4571   -0.8838    2.1349 H       1  UNL1        0.0778
     22 H          -3.0146   -1.0131    1.2439 H       1  UNL1        0.0778
     23 H          -2.5032    0.5811    1.8710 H       1  UNL1        0.0778
     24 H          -2.1252    1.9996   -0.1791 H       1  UNL1        0.0778
     25 H          -3.4244    0.6986   -0.1350 H       1  UNL1        0.0778
     26 H          -2.3223    0.8155   -1.5369 H       1  UNL1        0.0778
     27 H           4.1843    2.0584    1.3284 H       1  UNL1        0.1482
     28 H           5.2595    0.7808    0.9907 H       1  UNL1        0.1482
@<TRIPOS>UNITY_ATOM_ATTR
4 1
charge 1
@<TRIPOS>BOND
     1     1     2    1
     2     2     3    1
     3     3     4    1
     4     4     5    1
     5     4     6    1
     6     4     7    1
     7     2     8    1
     8     8     9    1
     9     9    10   am
    10     9    11    2
    11     1    12    1
    12     1    13    1
    13     1    14    1
    14     2    15    1
    15     3    16    1
    16     3    17    1
    17     5    18    1
    18     5    19    1
    19     5    20    1
    20     6    21    1
    21     6    22    1
    22     6    23    1
    23     7    24    1
    24     7    25    1
    25     7    26    1
    26    10    27    1
    27    10    28    1
