@<TRIPOS>MOLECULE
*****
 68 71 0 0 0
SMALL
GASTEIGER

@<TRIPOS>ATOM
      1 C          10.6241   -0.9156    0.8892 C.3     1  UNL1       -0.0280
      2 C           9.8700    0.3520    0.5696 C.3     1  UNL1        0.0968
      3 C          10.7105    1.5888    0.8389 C.3     1  UNL1       -0.0280
      4 O           9.2973    0.3653   -0.6981 O.3     1  UNL1       -0.4687
      5 C           7.8700    0.4372   -0.8929 C.ar    1  UNL1        0.2568
      6 N           7.0511    0.4696   -1.6853 N.ar    1  UNL1       -0.2141
      7 C           5.7449    0.5392   -1.5729 C.ar    1  UNL1        0.0445
      8 C           5.2421    0.5817   -0.3223 C.ar    1  UNL1        0.0441
      9 C           3.9201    0.6634    0.2964 C.3     1  UNL1        0.0986
     10 O           3.9852    1.2403    1.5880 O.3     1  UNL1       -0.3834
     11 C           3.4075   -0.7519    0.4798 C.3     1  UNL1       -0.0179
     12 C           1.9353   -0.6104    0.8924 C.3     1  UNL1       -0.0344
     13 C           1.0770   -0.0926   -0.2002 C.3     1  UNL1        0.0107
     14 N           0.3769   -1.0957   -0.9510 N.3     1  UNL1       -0.2958
     15 C          -0.5221   -1.9478   -0.2732 C.3     1  UNL1        0.0189
     16 C          -1.7249   -1.2396   -0.8551 C.3     1  UNL1        0.0486
     17 N          -2.4230   -0.5200    0.1698 N.am    1  UNL1       -0.3087
     18 C          -3.8264   -0.5963    0.3685 C.2     1  UNL1        0.2305
     19 O          -4.4597   -1.3495   -0.4206 O.2     1  UNL1       -0.2741
     20 C          -4.5099    0.1770    1.4565 C.3     1  UNL1        0.0884
     21 N          -5.9394   -0.0768    1.4430 N.am    1  UNL1       -0.3028
     22 C          -6.6281    0.2633    0.2599 C.2     1  UNL1        0.2445
     23 O          -5.9992    0.7681   -0.7350 O.2     1  UNL1       -0.2702
     24 C          -8.0638    0.0390    0.1687 C.ar    1  UNL1        0.0372
     25 C          -8.7355   -0.4968    1.2201 C.ar    1  UNL1       -0.0496
     26 C         -10.1161   -0.6949    1.0889 C.ar    1  UNL1       -0.0605
     27 C         -10.7536   -0.3520   -0.0739 C.ar    1  UNL1       -0.0501
     28 C         -10.0631    0.1913   -1.1361 C.ar    1  UNL1        0.0555
     29 C         -10.8298    0.5399   -2.3724 C.3     1  UNL1        0.4174
     30 F         -11.2452    1.8703   -2.2603 F       1  UNL1       -0.1659
     31 F         -10.0349    0.4248   -3.4897 F       1  UNL1       -0.1659
     32 F         -11.9202   -0.2844   -2.4716 F       1  UNL1       -0.1659
     33 C          -8.7156    0.3901   -1.0217 C.ar    1  UNL1       -0.0380
     34 C          -0.7323   -0.5049   -1.6737 C.3     1  UNL1        0.0189
     35 C           1.9594    0.6611   -1.1868 C.3     1  UNL1       -0.0344
     36 C           2.9659    1.5362   -0.4863 C.3     1  UNL1       -0.0179
     37 S           6.8099    0.5129    0.6802 S.2     1  UNL1       -0.0315
     38 H          11.4721   -0.9849    0.1864 H       1  UNL1        0.0265
     39 H          10.9469   -0.8298    1.9523 H       1  UNL1        0.0265
     40 H           9.9077   -1.7501    0.8132 H       1  UNL1        0.0265
     41 H           9.0224    0.4061    1.3129 H       1  UNL1        0.0728
     42 H          11.2549    1.9261   -0.0757 H       1  UNL1        0.0265
     43 H          11.3791    1.3505    1.6795 H       1  UNL1        0.0265
     44 H          10.0521    2.4447    1.1175 H       1  UNL1        0.0265
     45 H           5.0775    0.5623   -2.4559 H       1  UNL1        0.0840
     46 H           4.2475    0.5140    2.2340 H       1  UNL1        0.2106
     47 H           3.4216   -1.3496   -0.4330 H       1  UNL1        0.0297
     48 H           3.9155   -1.2279    1.3276 H       1  UNL1        0.0297
     49 H           1.9468    0.1316    1.7185 H       1  UNL1        0.0281
     50 H           1.5848   -1.5603    1.3401 H       1  UNL1        0.0281
     51 H           0.3795    0.6768    0.2130 H       1  UNL1        0.0462
     52 H          -0.4382   -3.0038   -0.6378 H       1  UNL1        0.0445
     53 H          -0.4935   -1.9654    0.8302 H       1  UNL1        0.0445
     54 H          -2.3689   -1.8769   -1.4986 H       1  UNL1        0.0523
     55 H          -1.8702    0.0945    0.8056 H       1  UNL1        0.1491
     56 H          -4.3491    1.2499    1.2243 H       1  UNL1        0.0558
     57 H          -4.0296   -0.0594    2.4101 H       1  UNL1        0.0558
     58 H          -6.3362   -0.4844    2.2972 H       1  UNL1        0.1495
     59 H          -8.2653   -0.7782    2.1501 H       1  UNL1        0.0625
     60 H         -10.6289   -1.1197    1.9317 H       1  UNL1        0.0618
     61 H         -11.8073   -0.5044   -0.1709 H       1  UNL1        0.0623
     62 H          -8.1539    0.8132   -1.8378 H       1  UNL1        0.0631
     63 H          -0.6530   -0.8199   -2.7506 H       1  UNL1        0.0445
     64 H          -0.7575    0.5968   -1.6370 H       1  UNL1        0.0445
     65 H           2.5187   -0.1011   -1.7656 H       1  UNL1        0.0281
     66 H           1.3515    1.2225   -1.9244 H       1  UNL1        0.0281
     67 H           2.4987    2.3228    0.1158 H       1  UNL1        0.0297
     68 H           3.5700    2.0216   -1.2826 H       1  UNL1        0.0297
@<TRIPOS>BOND
     1     1     2    1
     2     2     3    1
     3     2     4    1
     4     4     5    1
     5     5     6   ar
     6     6     7   ar
     7     7     8   ar
     8     8     9    1
     9     9    10    1
    10     9    11    1
    11    11    12    1
    12    12    13    1
    13    13    14    1
    14    14    15    1
    15    15    16    1
    16    16    17    1
    17    17    18   am
    18    18    19    2
    19    18    20    1
    20    20    21    1
    21    21    22   am
    22    22    23    2
    23    22    24    1
    24    24    25   ar
    25    25    26   ar
    26    26    27   ar
    27    27    28   ar
    28    28    29    1
    29    29    30    1
    30    29    31    1
    31    29    32    1
    32    28    33   ar
    33    16    34    1
    34    13    35    1
    35    35    36    1
    36     8    37   ar
    37    37     5   ar
    38    36     9    1
    39    34    14    1
    40    33    24   ar
    41     1    38    1
    42     1    39    1
    43     1    40    1
    44     2    41    1
    45     3    42    1
    46     3    43    1
    47     3    44    1
    48     7    45    1
    49    10    46    1
    50    11    47    1
    51    11    48    1
    52    12    49    1
    53    12    50    1
    54    13    51    1
    55    15    52    1
    56    15    53    1
    57    16    54    1
    58    17    55    1
    59    20    56    1
    60    20    57    1
    61    21    58    1
    62    25    59    1
    63    26    60    1
    64    27    61    1
    65    33    62    1
    66    34    63    1
    67    34    64    1
    68    35    65    1
    69    35    66    1
    70    36    67    1
    71    36    68    1
