@<TRIPOS>MOLECULE
*****
 61 65 0 0 0
SMALL
GASTEIGER

@<TRIPOS>ATOM
      1 C          -9.9105    0.3679    0.8243 C.3     1  UNL1        0.0790
      2 O          -8.6048    0.2247    0.8168 O.3     1  UNL1       -0.4914
      3 C          -7.3318    0.0761    0.8245 C.ar    1  UNL1        0.1635
      4 C          -6.4856   -0.5733    1.6941 C.ar    1  UNL1        0.0098
      5 C          -5.2323   -0.3828    1.3390 C.ar    1  UNL1        0.0782
      6 C          -4.4101    0.2024    0.4782 C.ar    1  UNL1        0.0463
      7 C          -5.3181    0.8855   -0.5014 C.ar    1  UNL1       -0.0036
      8 C          -6.6948    0.7516   -0.2671 C.ar    1  UNL1        0.1623
      9 O          -7.9368    1.0255   -0.9539 O.3     1  UNL1       -0.4914
     10 C          -7.8278    1.0717   -2.3498 C.3     1  UNL1        0.0790
     11 C          -3.2259    0.2648   -0.0780 C.ar    1  UNL1        0.1391
     12 O          -2.7763    1.3070   -0.9870 O.3     1  UNL1       -0.4553
     13 C          -1.3139    1.2798   -0.9333 C.ar    1  UNL1        0.1286
     14 C          -0.5129    1.5759   -1.9822 C.ar    1  UNL1       -0.0176
     15 C           0.8847    1.4772   -1.9088 C.ar    1  UNL1       -0.0370
     16 C           1.3024    1.0472   -0.6868 C.ar    1  UNL1        0.0336
     17 N           2.4114    0.1004   -0.4315 N.am    1  UNL1       -0.2846
     18 C           3.2275   -0.4326    0.6023 C.2     1  UNL1        0.2323
     19 O           2.9794    0.2072    1.7025 O.2     1  UNL1       -0.2743
     20 C           4.1142   -1.6233    0.1767 C.3     1  UNL1        0.1233
     21 C           3.5401   -2.9741    0.3635 C.3     1  UNL1       -0.0292
     22 C           4.5334   -2.3862    1.3744 C.3     1  UNL1       -0.0292
     23 C           4.9846   -1.2522   -0.9085 C.2     1  UNL1        0.2323
     24 O           5.0440   -1.1381   -2.1620 O.2     1  UNL1       -0.2743
     25 N           6.2703   -0.8824   -0.3858 N.am    1  UNL1       -0.2846
     26 C           7.6085   -0.3862   -0.5568 C.ar    1  UNL1        0.0336
     27 C           8.9260   -0.6278   -0.2920 C.ar    1  UNL1       -0.0378
     28 C           9.6886    0.4966   -0.4334 C.ar    1  UNL1       -0.0247
     29 C           9.2409    1.7807   -0.7996 C.ar    1  UNL1        0.1235
     30 F          10.0699    2.8218   -0.8479 F       1  UNL1       -0.2055
     31 C           7.8803    1.9848   -1.0683 C.ar    1  UNL1       -0.0247
     32 C           7.0287    0.8637   -0.9481 C.ar    1  UNL1       -0.0378
     33 C           0.6741    0.7183    0.5180 C.ar    1  UNL1       -0.0370
     34 C          -0.7496    0.8710    0.3211 C.ar    1  UNL1       -0.0176
     35 C          -2.4672   -0.8196    0.4298 C.ar    1  UNL1       -0.0006
     36 C          -3.1389   -1.6363    1.3877 C.ar    1  UNL1        0.0318
     37 N          -4.4196   -1.4567    1.8319 N.ar    1  UNL1       -0.2546
     38 H         -10.3486    1.0341    0.0116 H       1  UNL1        0.0660
     39 H         -10.2272    1.0374    1.7642 H       1  UNL1        0.0660
     40 H         -10.5232   -0.5217    0.8884 H       1  UNL1        0.0660
     41 H          -6.8506   -1.1363    2.5308 H       1  UNL1        0.0677
     42 H          -5.1807    1.4841   -1.3881 H       1  UNL1        0.0663
     43 H          -6.8503    1.1817   -2.7833 H       1  UNL1        0.0660
     44 H          -7.8891   -0.1782   -2.5809 H       1  UNL1        0.0660
     45 H          -8.7242    1.3062   -2.8942 H       1  UNL1        0.0660
     46 H          -0.9978    1.9382   -2.8569 H       1  UNL1        0.0655
     47 H           1.6197    1.6921   -2.6255 H       1  UNL1        0.0637
     48 H           2.6450   -0.3390   -1.3706 H       1  UNL1        0.1548
     49 H           3.9287   -3.8171   -0.2041 H       1  UNL1        0.0280
     50 H           2.4505   -2.9965    0.6486 H       1  UNL1        0.0280
     51 H           5.4475   -2.8476    1.5925 H       1  UNL1        0.0280
     52 H           4.0244   -2.0254    2.3591 H       1  UNL1        0.0280
     53 H           6.4661   -1.1511    0.6522 H       1  UNL1        0.1548
     54 H           9.0683   -1.6524   -0.0654 H       1  UNL1        0.0637
     55 H          10.7256    0.3647   -0.2114 H       1  UNL1        0.0647
     56 H           7.6323    2.9985   -1.3464 H       1  UNL1        0.0647
     57 H           5.9938    1.1989   -1.2383 H       1  UNL1        0.0637
     58 H           0.8482    0.3863    1.5153 H       1  UNL1        0.0637
     59 H          -1.3708    0.7630    1.2265 H       1  UNL1        0.0655
     60 H          -1.4831   -1.0966    0.0546 H       1  UNL1        0.0670
     61 H          -2.4566   -2.4534    1.6687 H       1  UNL1        0.0831
@<TRIPOS>BOND
     1     1     2    1
     2     2     3    1
     3     3     4   ar
     4     4     5   ar
     5     5     6   ar
     6     6     7   ar
     7     7     8   ar
     8     8     9    1
     9     9    10    1
    10     6    11   ar
    11    11    12    1
    12    12    13    1
    13    13    14   ar
    14    14    15   ar
    15    15    16   ar
    16    16    17    1
    17    17    18   am
    18    18    19    2
    19    18    20    1
    20    20    21    1
    21    21    22    1
    22    20    23    1
    23    23    24    2
    24    23    25   am
    25    25    26    1
    26    26    27   ar
    27    27    28   ar
    28    28    29   ar
    29    29    30    1
    30    29    31   ar
    31    31    32   ar
    32    16    33   ar
    33    33    34   ar
    34    11    35   ar
    35    35    36   ar
    36    36    37   ar
    37     8     3   ar
    38    34    13   ar
    39    37     5   ar
    40    22    20    1
    41    32    26   ar
    42     1    38    1
    43     1    39    1
    44     1    40    1
    45     4    41    1
    46     7    42    1
    47    10    43    1
    48    10    44    1
    49    10    45    1
    50    14    46    1
    51    15    47    1
    52    17    48    1
    53    21    49    1
    54    21    50    1
    55    22    51    1
    56    22    52    1
    57    25    53    1
    58    27    54    1
    59    28    55    1
    60    31    56    1
    61    32    57    1
    62    33    58    1
    63    34    59    1
    64    35    60    1
    65    36    61    1
