@<TRIPOS>MOLECULE
*****
 50 53 0 0 0
SMALL
GASTEIGER

@<TRIPOS>ATOM
      1 C          -4.7683   -3.5753    0.2026 C.3     1  UNL1       -0.0377
      2 C          -3.5727   -2.6660    0.1825 C.ar    1  UNL1       -0.0251
      3 C          -3.1998   -1.7487    1.1156 C.ar    1  UNL1        0.0090
      4 N          -2.0460   -1.1133    0.7299 N.ar    1  UNL1       -0.3415
      5 C          -1.4525   -0.0689    1.4747 C.3     1  UNL1        0.0497
      6 C          -2.0232    1.2939    1.2433 C.ar    1  UNL1       -0.0094
      7 C          -1.5494    2.1494    0.2621 C.ar    1  UNL1       -0.0541
      8 C          -2.1542    3.3960    0.0295 C.ar    1  UNL1       -0.0430
      9 C          -3.2342    3.8319    0.7518 C.ar    1  UNL1        0.0424
     10 CL         -3.9813    5.3819    0.4544 Cl      1  UNL1       -0.0835
     11 C          -3.7140    2.9971    1.7284 C.ar    1  UNL1       -0.0247
     12 C          -3.1056    1.7609    1.9529 C.ar    1  UNL1        0.0472
     13 CL         -3.7177    0.7963    3.2994 Cl      1  UNL1       -0.0832
     14 C          -1.7117   -1.6625   -0.4612 C.ar    1  UNL1        0.0570
     15 C          -0.6496   -1.4433   -1.3294 C.ar    1  UNL1        0.0019
     16 C           0.4035   -0.5326   -0.9851 C.2     1  UNL1       -0.0476
     17 C           1.3786   -0.2283   -1.8584 C.2     1  UNL1        0.0023
     18 C           2.4535    0.6919   -1.5243 C.2     1  UNL1        0.2559
     19 O           3.3332    0.9172   -2.4232 O.2     1  UNL1       -0.2693
     20 N           2.6170    1.3632   -0.2942 N.am    1  UNL1       -0.1815
     21 S           3.9537    2.4336   -0.0463 S.O2    1  UNL1        0.0810
     22 O           4.4090    3.0521   -1.3114 O.2     1  UNL1       -0.1494
     23 O           3.5611    3.4829    0.9645 O.2     1  UNL1       -0.1494
     24 C           5.2774    1.4764    0.5865 C.ar    1  UNL1        0.1485
     25 C           6.5244    1.2244    0.1307 C.ar    1  UNL1       -0.0080
     26 C           7.3463    0.4332    0.8368 C.ar    1  UNL1        0.0683
     27 CL          9.0088    0.0513    0.3020 Cl      1  UNL1       -0.0814
     28 C           6.8780   -0.0919    2.0057 C.ar    1  UNL1        0.0981
     29 CL          7.6846   -1.1558    3.1605 Cl      1  UNL1       -0.0742
     30 S           5.2042    0.5353    2.1526 S.2     1  UNL1       -0.0552
     31 C          -0.5233   -2.1592   -2.5274 C.ar    1  UNL1       -0.0173
     32 C          -1.4847   -3.1010   -2.8331 C.ar    1  UNL1        0.1247
     33 F          -1.3866   -3.8078   -3.9888 F       1  UNL1       -0.2054
     34 C          -2.5348   -3.3437   -2.0047 C.ar    1  UNL1       -0.0170
     35 C          -2.6381   -2.6247   -0.8281 C.ar    1  UNL1        0.0061
     36 H          -5.1645   -3.7159   -0.8216 H       1  UNL1        0.0278
     37 H          -5.5297   -3.0551    0.8160 H       1  UNL1        0.0278
     38 H          -4.4254   -4.5179    0.6763 H       1  UNL1        0.0278
     39 H          -3.7893   -1.6216    2.0185 H       1  UNL1        0.0812
     40 H          -1.8574   -0.2707    2.5713 H       1  UNL1        0.0542
     41 H          -0.4008   -0.0677    1.7031 H       1  UNL1        0.0542
     42 H          -0.7034    1.8651   -0.3274 H       1  UNL1        0.0622
     43 H          -1.7466    4.0251   -0.7464 H       1  UNL1        0.0632
     44 H          -4.5751    3.3007    2.3317 H       1  UNL1        0.0647
     45 H           0.4907   -0.0601   -0.0264 H       1  UNL1        0.0626
     46 H           1.3866   -0.6492   -2.8316 H       1  UNL1        0.0670
     47 H           1.9309    1.2123    0.4616 H       1  UNL1        0.1769
     48 H           6.8202    1.7084   -0.8524 H       1  UNL1        0.0658
     49 H           0.2845   -2.0107   -3.2097 H       1  UNL1        0.0653
     50 H          -3.3060   -4.0888   -2.2312 H       1  UNL1        0.0653
@<TRIPOS>BOND
     1     1     2    1
     2     2     3   ar
     3     3     4   ar
     4     4     5    1
     5     5     6    1
     6     6     7   ar
     7     7     8   ar
     8     8     9   ar
     9     9    10    1
    10     9    11   ar
    11    11    12   ar
    12    12    13    1
    13     4    14   ar
    14    14    15   ar
    15    15    16    1
    16    16    17    2
    17    17    18    1
    18    18    19    2
    19    18    20   am
    20    20    21    1
    21    21    22    2
    22    21    23    2
    23    21    24    1
    24    24    25   ar
    25    25    26   ar
    26    26    27    1
    27    26    28   ar
    28    28    29    1
    29    28    30   ar
    30    15    31   ar
    31    31    32   ar
    32    32    33    1
    33    32    34   ar
    34    34    35   ar
    35    35     2   ar
    36    12     6   ar
    37    35    14   ar
    38    30    24   ar
    39     1    36    1
    40     1    37    1
    41     1    38    1
    42     3    39    1
    43     5    40    1
    44     5    41    1
    45     7    42    1
    46     8    43    1
    47    11    44    1
    48    16    45    1
    49    17    46    1
    50    20    47    1
    51    25    48    1
    52    31    49    1
    53    34    50    1
