
     RDKit          3D

 50 53  0  0  0  0  0  0  0  0999 V2000
   -4.7683   -3.5753    0.2026 C   0  0  0  0  0  0  0  0  0  0  0  0
   -3.5727   -2.6660    0.1825 C   0  0  0  0  0  0  0  0  0  0  0  0
   -3.1998   -1.7487    1.1156 C   0  0  0  0  0  0  0  0  0  0  0  0
   -2.0460   -1.1133    0.7299 N   0  0  0  0  0  0  0  0  0  0  0  0
   -1.4525   -0.0689    1.4747 C   0  0  0  0  0  0  0  0  0  0  0  0
   -2.0232    1.2939    1.2433 C   0  0  0  0  0  0  0  0  0  0  0  0
   -1.5494    2.1494    0.2621 C   0  0  0  0  0  0  0  0  0  0  0  0
   -2.1542    3.3960    0.0295 C   0  0  0  0  0  0  0  0  0  0  0  0
   -3.2342    3.8319    0.7518 C   0  0  0  0  0  0  0  0  0  0  0  0
   -3.9813    5.3819    0.4544 Cl  0  0  0  0  0  0  0  0  0  0  0  0
   -3.7140    2.9971    1.7284 C   0  0  0  0  0  0  0  0  0  0  0  0
   -3.1056    1.7609    1.9529 C   0  0  0  0  0  0  0  0  0  0  0  0
   -3.7177    0.7963    3.2994 Cl  0  0  0  0  0  0  0  0  0  0  0  0
   -1.7117   -1.6625   -0.4612 C   0  0  0  0  0  0  0  0  0  0  0  0
   -0.6496   -1.4433   -1.3294 C   0  0  0  0  0  0  0  0  0  0  0  0
    0.4035   -0.5326   -0.9851 C   0  0  0  0  0  0  0  0  0  0  0  0
    1.3786   -0.2283   -1.8584 C   0  0  0  0  0  0  0  0  0  0  0  0
    2.4535    0.6919   -1.5243 C   0  0  0  0  0  0  0  0  0  0  0  0
    3.3332    0.9172   -2.4232 O   0  0  0  0  0  0  0  0  0  0  0  0
    2.6170    1.3632   -0.2942 N   0  0  0  0  0  0  0  0  0  0  0  0
    3.9537    2.4336   -0.0463 S   0  0  0  0  0  6  0  0  0  0  0  0
    4.4090    3.0521   -1.3114 O   0  0  0  0  0  0  0  0  0  0  0  0
    3.5611    3.4829    0.9645 O   0  0  0  0  0  0  0  0  0  0  0  0
    5.2774    1.4764    0.5865 C   0  0  0  0  0  0  0  0  0  0  0  0
    6.5244    1.2244    0.1307 C   0  0  0  0  0  0  0  0  0  0  0  0
    7.3463    0.4332    0.8368 C   0  0  0  0  0  0  0  0  0  0  0  0
    9.0088    0.0513    0.3020 Cl  0  0  0  0  0  0  0  0  0  0  0  0
    6.8780   -0.0919    2.0057 C   0  0  0  0  0  0  0  0  0  0  0  0
    7.6846   -1.1558    3.1605 Cl  0  0  0  0  0  0  0  0  0  0  0  0
    5.2042    0.5353    2.1526 S   0  0  0  0  0  0  0  0  0  0  0  0
   -0.5233   -2.1592   -2.5274 C   0  0  0  0  0  0  0  0  0  0  0  0
   -1.4847   -3.1010   -2.8331 C   0  0  0  0  0  0  0  0  0  0  0  0
   -1.3866   -3.8078   -3.9888 F   0  0  0  0  0  0  0  0  0  0  0  0
   -2.5348   -3.3437   -2.0047 C   0  0  0  0  0  0  0  0  0  0  0  0
   -2.6381   -2.6247   -0.8281 C   0  0  0  0  0  0  0  0  0  0  0  0
   -5.1645   -3.7159   -0.8216 H   0  0  0  0  0  0  0  0  0  0  0  0
   -5.5297   -3.0551    0.8160 H   0  0  0  0  0  0  0  0  0  0  0  0
   -4.4254   -4.5179    0.6763 H   0  0  0  0  0  0  0  0  0  0  0  0
   -3.7893   -1.6216    2.0185 H   0  0  0  0  0  0  0  0  0  0  0  0
   -1.8574   -0.2707    2.5713 H   0  0  0  0  0  0  0  0  0  0  0  0
   -0.4008   -0.0677    1.7031 H   0  0  0  0  0  0  0  0  0  0  0  0
   -0.7034    1.8651   -0.3274 H   0  0  0  0  0  0  0  0  0  0  0  0
   -1.7466    4.0251   -0.7464 H   0  0  0  0  0  0  0  0  0  0  0  0
   -4.5751    3.3007    2.3317 H   0  0  0  0  0  0  0  0  0  0  0  0
    0.4907   -0.0601   -0.0264 H   0  0  0  0  0  0  0  0  0  0  0  0
    1.3866   -0.6492   -2.8316 H   0  0  0  0  0  0  0  0  0  0  0  0
    1.9309    1.2123    0.4616 H   0  0  0  0  0  0  0  0  0  0  0  0
    6.8202    1.7084   -0.8524 H   0  0  0  0  0  0  0  0  0  0  0  0
    0.2845   -2.0107   -3.2097 H   0  0  0  0  0  0  0  0  0  0  0  0
   -3.3060   -4.0888   -2.2312 H   0  0  0  0  0  0  0  0  0  0  0  0
  1  2  1  0
  2  3  2  0
  3  4  1  0
  4  5  1  0
  5  6  1  0
  6  7  2  0
  7  8  1  0
  8  9  2  0
  9 10  1  0
  9 11  1  0
 11 12  2  0
 12 13  1  0
  4 14  1  0
 14 15  2  0
 15 16  1  0
 16 17  2  0
 17 18  1  0
 18 19  2  0
 18 20  1  0
 20 21  1  0
 21 22  2  0
 21 23  2  0
 21 24  1  0
 24 25  2  0
 25 26  1  0
 26 27  1  0
 26 28  2  0
 28 29  1  0
 28 30  1  0
 15 31  1  0
 31 32  2  0
 32 33  1  0
 32 34  1  0
 34 35  2  0
 35  2  1  0
 12  6  1  0
 35 14  1  0
 30 24  1  0
  1 36  1  0
  1 37  1  0
  1 38  1  0
  3 39  1  0
  5 40  1  0
  5 41  1  0
  7 42  1  0
  8 43  1  0
 11 44  1  0
 16 45  1  0
 17 46  1  0
 20 47  1  0
 25 48  1  0
 31 49  1  0
 34 50  1  0
M  END
$$$$
