@<TRIPOS>MOLECULE
*****
 41 43 0 0 0
SMALL
GASTEIGER

@<TRIPOS>ATOM
      1 C          -4.1472   -0.8845    0.2066 C.3     1  UNL1        0.0710
      2 O          -4.2557   -2.1544    0.7216 O.3     1  UNL1       -0.3902
      3 C          -4.9242    0.0674    1.1050 C.3     1  UNL1       -0.0242
      4 C          -4.7521    1.4548    0.5686 C.3     1  UNL1       -0.0380
      5 C          -3.3085    1.8643    0.6272 C.3     1  UNL1       -0.0037
      6 N          -2.5474    0.9303   -0.1801 N.3     1  UNL1       -0.3105
      7 C          -2.7210   -0.4291    0.2566 C.3     1  UNL1        0.0404
      8 C          -1.7490   -1.2983   -0.4744 C.3     1  UNL1        0.0254
      9 C          -0.3953   -0.6550   -0.2900 C.2     1  UNL1        0.1545
     10 O          -0.2691    0.3788    0.3587 O.2     1  UNL1       -0.2955
     11 C           0.7095   -1.4105   -0.9701 C.3     1  UNL1        0.0858
     12 N           1.9638   -0.7376   -0.7495 N.ar    1  UNL1       -0.2915
     13 C           2.3063    0.2021   -1.6787 C.ar    1  UNL1        0.0996
     14 N           3.4474    0.9127   -1.6069 N.ar    1  UNL1       -0.2369
     15 C           4.3409    0.7536   -0.6139 C.ar    1  UNL1        0.0790
     16 C           3.9989   -0.2039    0.3391 C.ar    1  UNL1        0.0663
     17 C           4.8723   -0.4231    1.3929 C.ar    1  UNL1       -0.0279
     18 C           6.0550    0.2930    1.4943 C.ar    1  UNL1        0.0558
     19 CL          7.1914    0.0594    2.7979 Cl      1  UNL1       -0.0824
     20 C           6.3870    1.2426    0.5428 C.ar    1  UNL1        0.0382
     21 BR          7.9616    2.2987    0.5432 Br      1  UNL1       -0.0487
     22 C           5.5193    1.4633   -0.5080 C.ar    1  UNL1       -0.0201
     23 C           2.8281   -0.9309    0.2625 C.ar    1  UNL1        0.2620
     24 O           2.4955   -1.7946    1.1010 O.2     1  UNL1       -0.2669
     25 H          -4.5816   -0.8421   -0.8123 H       1  UNL1        0.0609
     26 H          -3.8511   -2.8335    0.1160 H       1  UNL1        0.2098
     27 H          -6.0015   -0.1991    1.1499 H       1  UNL1        0.0291
     28 H          -4.4648   -0.0075    2.1234 H       1  UNL1        0.0291
     29 H          -5.0784    1.4653   -0.4897 H       1  UNL1        0.0278
     30 H          -5.3145    2.2032    1.1675 H       1  UNL1        0.0278
     31 H          -3.1365    2.8648    0.2102 H       1  UNL1        0.0424
     32 H          -2.9045    1.8134    1.6477 H       1  UNL1        0.0424
     33 H          -2.6982    1.0577   -1.2011 H       1  UNL1        0.1223
     34 H          -2.4232   -0.4570    1.3343 H       1  UNL1        0.0490
     35 H          -1.9547   -1.2192   -1.5799 H       1  UNL1        0.0358
     36 H          -1.7504   -2.3492   -0.1611 H       1  UNL1        0.0358
     37 H           0.4974   -1.4766   -2.0536 H       1  UNL1        0.0572
     38 H           0.7359   -2.4360   -0.5422 H       1  UNL1        0.0572
     39 H           1.6517    0.4083   -2.5234 H       1  UNL1        0.1030
     40 H           4.6274   -1.1631    2.1464 H       1  UNL1        0.0641
     41 H           5.6393    2.1714   -1.3295 H       1  UNL1        0.0650
@<TRIPOS>BOND
     1     1     2    1
     2     1     3    1
     3     3     4    1
     4     4     5    1
     5     5     6    1
     6     6     7    1
     7     7     8    1
     8     8     9    1
     9     9    10    2
    10     9    11    1
    11    11    12    1
    12    12    13   ar
    13    13    14   ar
    14    14    15   ar
    15    15    16   ar
    16    16    17   ar
    17    17    18   ar
    18    18    19    1
    19    18    20   ar
    20    20    21    1
    21    20    22   ar
    22    16    23   ar
    23    23    24    2
    24     7     1    1
    25    23    12   ar
    26    22    15   ar
    27     1    25    1
    28     2    26    1
    29     3    27    1
    30     3    28    1
    31     4    29    1
    32     4    30    1
    33     5    31    1
    34     5    32    1
    35     6    33    1
    36     7    34    1
    37     8    35    1
    38     8    36    1
    39    11    37    1
    40    11    38    1
    41    13    39    1
    42    17    40    1
    43    22    41    1
