@<TRIPOS>MOLECULE
*****
 55 59 0 0 0
SMALL
GASTEIGER

@<TRIPOS>ATOM
      1 O           6.9104    3.3372   -2.1238 O.2     1  UNL1       -0.2506
      2 C           7.0077    2.3493   -1.3647 C.2     1  UNL1        0.3103
      3 O           6.9158    2.5347    0.0069 O.3     1  UNL1       -0.4804
      4 C           7.2166    0.9951   -1.8788 C.3     1  UNL1        0.0816
      5 C           6.0565    0.0858   -1.4485 C.3     1  UNL1        0.0134
      6 N           6.7160    0.0124   -0.1580 N.3     1  UNL1       -0.2965
      7 C           6.4704   -1.2013    0.5508 C.3     1  UNL1        0.0241
      8 C           4.9834   -1.2865    0.7793 C.ar    1  UNL1       -0.0333
      9 C           4.4376   -0.7335    1.9197 C.ar    1  UNL1       -0.0567
     10 C           3.0787   -0.8059    2.1413 C.ar    1  UNL1       -0.0506
     11 C           2.2151   -1.4188    1.2582 C.ar    1  UNL1        0.0225
     12 C           0.7753   -1.5133    1.4610 C.ar    1  UNL1        0.2024
     13 N           0.2090   -2.3373    2.3609 N.ar    1  UNL1       -0.0557
     14 O          -1.0723   -2.1755    2.2850 O.2     1  UNL1       -0.3325
     15 C          -1.3902   -1.2733    1.3675 C.ar    1  UNL1        0.2587
     16 C          -2.7420   -0.8428    1.0166 C.ar    1  UNL1        0.0395
     17 C          -2.8955    0.1108    0.0336 C.ar    1  UNL1       -0.0492
     18 C          -4.1826    0.5292   -0.3094 C.ar    1  UNL1       -0.0576
     19 C          -5.3077    0.0230    0.2997 C.ar    1  UNL1       -0.0442
     20 C          -6.6765    0.4462   -0.0424 C.3     1  UNL1       -0.0158
     21 C          -7.0151    0.1800   -1.5061 C.3     1  UNL1       -0.0462
     22 C          -8.3378    0.9462   -1.6215 C.3     1  UNL1       -0.0525
     23 C          -8.1614    2.1703   -0.7568 C.3     1  UNL1       -0.0525
     24 C          -6.8731    1.9416    0.0368 C.3     1  UNL1       -0.0462
     25 C          -5.1287   -0.9347    1.2850 C.ar    1  UNL1       -0.0576
     26 C          -3.8617   -1.3540    1.6304 C.ar    1  UNL1       -0.0492
     27 N          -0.2212   -0.8606    0.8527 N.ar    1  UNL1       -0.1870
     28 C           2.7843   -1.9635    0.1268 C.ar    1  UNL1       -0.0506
     29 C           4.1510   -1.9001   -0.1132 C.ar    1  UNL1       -0.0567
     30 C           7.9759    0.1206   -0.8700 C.3     1  UNL1        0.0134
     31 H           6.6729    3.4194    0.4309 H       1  UNL1        0.2951
     32 H           7.5237    0.8733   -2.9142 H       1  UNL1        0.0439
     33 H           6.1727   -0.8642   -2.0194 H       1  UNL1        0.0435
     34 H           5.0738    0.5556   -1.4644 H       1  UNL1        0.0435
     35 H           6.9709   -1.1100    1.5584 H       1  UNL1        0.0476
     36 H           6.8375   -2.1127    0.0612 H       1  UNL1        0.0476
     37 H           5.0661   -0.2327    2.6613 H       1  UNL1        0.0621
     38 H           2.6238   -0.3739    3.0397 H       1  UNL1        0.0625
     39 H          -2.0125    0.5092   -0.4455 H       1  UNL1        0.0625
     40 H          -4.3246    1.2793   -1.0810 H       1  UNL1        0.0621
     41 H          -7.4205   -0.0862    0.5659 H       1  UNL1        0.0349
     42 H          -6.2848    0.6767   -2.1560 H       1  UNL1        0.0271
     43 H          -7.1657   -0.8872   -1.7067 H       1  UNL1        0.0271
     44 H          -9.1440    0.3074   -1.1874 H       1  UNL1        0.0265
     45 H          -8.6034    1.1671   -2.6557 H       1  UNL1        0.0265
     46 H          -9.0289    2.2621   -0.0628 H       1  UNL1        0.0265
     47 H          -8.0699    3.0430   -1.4370 H       1  UNL1        0.0265
     48 H          -6.0675    2.4250   -0.5556 H       1  UNL1        0.0271
     49 H          -6.9514    2.3048    1.0670 H       1  UNL1        0.0271
     50 H          -6.0076   -1.3400    1.7711 H       1  UNL1        0.0621
     51 H          -3.7118   -2.0988    2.3960 H       1  UNL1        0.0625
     52 H           2.1939   -2.4593   -0.6157 H       1  UNL1        0.0625
     53 H           4.5774   -2.3453   -1.0259 H       1  UNL1        0.0621
     54 H           8.2935   -0.8011   -1.3780 H       1  UNL1        0.0435
     55 H           8.7486    0.7067   -0.3532 H       1  UNL1        0.0435
@<TRIPOS>BOND
     1     1     2    2
     2     2     3    1
     3     2     4    1
     4     4     5    1
     5     5     6    1
     6     6     7    1
     7     7     8    1
     8     8     9   ar
     9     9    10   ar
    10    10    11   ar
    11    11    12    1
    12    12    13   ar
    13    13    14   ar
    14    14    15   ar
    15    15    16    1
    16    16    17   ar
    17    17    18   ar
    18    18    19   ar
    19    19    20    1
    20    20    21    1
    21    21    22    1
    22    22    23    1
    23    23    24    1
    24    19    25   ar
    25    25    26   ar
    26    15    27   ar
    27    11    28   ar
    28    28    29   ar
    29     6    30    1
    30    30     4    1
    31    29     8   ar
    32    27    12   ar
    33    26    16   ar
    34    24    20    1
    35     3    31    1
    36     4    32    1
    37     5    33    1
    38     5    34    1
    39     7    35    1
    40     7    36    1
    41     9    37    1
    42    10    38    1
    43    17    39    1
    44    18    40    1
    45    20    41    1
    46    21    42    1
    47    21    43    1
    48    22    44    1
    49    22    45    1
    50    23    46    1
    51    23    47    1
    52    24    48    1
    53    24    49    1
    54    25    50    1
    55    26    51    1
    56    28    52    1
    57    29    53    1
    58    30    54    1
    59    30    55    1
