
     RDKit          3D

 55 59  0  0  0  0  0  0  0  0999 V2000
    6.9104    3.3372   -2.1238 O   0  0  0  0  0  0  0  0  0  0  0  0
    7.0077    2.3493   -1.3647 C   0  0  0  0  0  0  0  0  0  0  0  0
    6.9158    2.5347    0.0069 O   0  0  0  0  0  0  0  0  0  0  0  0
    7.2166    0.9951   -1.8788 C   0  0  0  0  0  0  0  0  0  0  0  0
    6.0565    0.0858   -1.4485 C   0  0  0  0  0  0  0  0  0  0  0  0
    6.7160    0.0124   -0.1580 N   0  0  0  0  0  0  0  0  0  0  0  0
    6.4704   -1.2013    0.5508 C   0  0  0  0  0  0  0  0  0  0  0  0
    4.9834   -1.2865    0.7793 C   0  0  0  0  0  0  0  0  0  0  0  0
    4.4376   -0.7335    1.9197 C   0  0  0  0  0  0  0  0  0  0  0  0
    3.0787   -0.8059    2.1413 C   0  0  0  0  0  0  0  0  0  0  0  0
    2.2151   -1.4188    1.2582 C   0  0  0  0  0  0  0  0  0  0  0  0
    0.7753   -1.5133    1.4610 C   0  0  0  0  0  0  0  0  0  0  0  0
    0.2090   -2.3373    2.3609 N   0  0  0  0  0  0  0  0  0  0  0  0
   -1.0723   -2.1755    2.2850 O   0  0  0  0  0  0  0  0  0  0  0  0
   -1.3902   -1.2733    1.3675 C   0  0  0  0  0  0  0  0  0  0  0  0
   -2.7420   -0.8428    1.0166 C   0  0  0  0  0  0  0  0  0  0  0  0
   -2.8955    0.1108    0.0336 C   0  0  0  0  0  0  0  0  0  0  0  0
   -4.1826    0.5292   -0.3094 C   0  0  0  0  0  0  0  0  0  0  0  0
   -5.3077    0.0230    0.2997 C   0  0  0  0  0  0  0  0  0  0  0  0
   -6.6765    0.4462   -0.0424 C   0  0  0  0  0  0  0  0  0  0  0  0
   -7.0151    0.1800   -1.5061 C   0  0  0  0  0  0  0  0  0  0  0  0
   -8.3378    0.9462   -1.6215 C   0  0  0  0  0  0  0  0  0  0  0  0
   -8.1614    2.1703   -0.7568 C   0  0  0  0  0  0  0  0  0  0  0  0
   -6.8731    1.9416    0.0368 C   0  0  0  0  0  0  0  0  0  0  0  0
   -5.1287   -0.9347    1.2850 C   0  0  0  0  0  0  0  0  0  0  0  0
   -3.8617   -1.3540    1.6304 C   0  0  0  0  0  0  0  0  0  0  0  0
   -0.2212   -0.8606    0.8527 N   0  0  0  0  0  0  0  0  0  0  0  0
    2.7843   -1.9635    0.1268 C   0  0  0  0  0  0  0  0  0  0  0  0
    4.1510   -1.9001   -0.1132 C   0  0  0  0  0  0  0  0  0  0  0  0
    7.9759    0.1206   -0.8700 C   0  0  0  0  0  0  0  0  0  0  0  0
    6.6729    3.4194    0.4309 H   0  0  0  0  0  0  0  0  0  0  0  0
    7.5237    0.8733   -2.9142 H   0  0  0  0  0  0  0  0  0  0  0  0
    6.1727   -0.8642   -2.0194 H   0  0  0  0  0  0  0  0  0  0  0  0
    5.0738    0.5556   -1.4644 H   0  0  0  0  0  0  0  0  0  0  0  0
    6.9709   -1.1100    1.5584 H   0  0  0  0  0  0  0  0  0  0  0  0
    6.8375   -2.1127    0.0612 H   0  0  0  0  0  0  0  0  0  0  0  0
    5.0661   -0.2327    2.6613 H   0  0  0  0  0  0  0  0  0  0  0  0
    2.6238   -0.3739    3.0397 H   0  0  0  0  0  0  0  0  0  0  0  0
   -2.0125    0.5092   -0.4455 H   0  0  0  0  0  0  0  0  0  0  0  0
   -4.3246    1.2793   -1.0810 H   0  0  0  0  0  0  0  0  0  0  0  0
   -7.4205   -0.0862    0.5659 H   0  0  0  0  0  0  0  0  0  0  0  0
   -6.2848    0.6767   -2.1560 H   0  0  0  0  0  0  0  0  0  0  0  0
   -7.1657   -0.8872   -1.7067 H   0  0  0  0  0  0  0  0  0  0  0  0
   -9.1440    0.3074   -1.1874 H   0  0  0  0  0  0  0  0  0  0  0  0
   -8.6034    1.1671   -2.6557 H   0  0  0  0  0  0  0  0  0  0  0  0
   -9.0289    2.2621   -0.0628 H   0  0  0  0  0  0  0  0  0  0  0  0
   -8.0699    3.0430   -1.4370 H   0  0  0  0  0  0  0  0  0  0  0  0
   -6.0675    2.4250   -0.5556 H   0  0  0  0  0  0  0  0  0  0  0  0
   -6.9514    2.3048    1.0670 H   0  0  0  0  0  0  0  0  0  0  0  0
   -6.0076   -1.3400    1.7711 H   0  0  0  0  0  0  0  0  0  0  0  0
   -3.7118   -2.0988    2.3960 H   0  0  0  0  0  0  0  0  0  0  0  0
    2.1939   -2.4593   -0.6157 H   0  0  0  0  0  0  0  0  0  0  0  0
    4.5774   -2.3453   -1.0259 H   0  0  0  0  0  0  0  0  0  0  0  0
    8.2935   -0.8011   -1.3780 H   0  0  0  0  0  0  0  0  0  0  0  0
    8.7486    0.7067   -0.3532 H   0  0  0  0  0  0  0  0  0  0  0  0
  1  2  2  0
  2  3  1  0
  2  4  1  0
  4  5  1  0
  5  6  1  0
  6  7  1  0
  7  8  1  0
  8  9  2  0
  9 10  1  0
 10 11  2  0
 11 12  1  0
 12 13  2  0
 13 14  1  0
 14 15  1  0
 15 16  1  0
 16 17  2  0
 17 18  1  0
 18 19  2  0
 19 20  1  0
 20 21  1  0
 21 22  1  0
 22 23  1  0
 23 24  1  0
 19 25  1  0
 25 26  2  0
 15 27  2  0
 11 28  1  0
 28 29  2  0
  6 30  1  0
 30  4  1  0
 29  8  1  0
 27 12  1  0
 26 16  1  0
 24 20  1  0
  3 31  1  0
  4 32  1  0
  5 33  1  0
  5 34  1  0
  7 35  1  0
  7 36  1  0
  9 37  1  0
 10 38  1  0
 17 39  1  0
 18 40  1  0
 20 41  1  0
 21 42  1  0
 21 43  1  0
 22 44  1  0
 22 45  1  0
 23 46  1  0
 23 47  1  0
 24 48  1  0
 24 49  1  0
 25 50  1  0
 26 51  1  0
 28 52  1  0
 29 53  1  0
 30 54  1  0
 30 55  1  0
M  END
$$$$
