@<TRIPOS>MOLECULE
*****
 36 37 0 0 0
SMALL
GASTEIGER

@<TRIPOS>ATOM
      1 N          -6.9591    0.3257    1.3549 N.pl3   1  UNL1       -0.2466
      2 C          -6.2654   -0.6030    0.5324 C.2     1  UNL1        0.3081
      3 N          -6.9465   -1.6727    0.2618 N.2     1  UNL1       -0.0994
      4 C          -4.9007   -0.3457    0.0469 C.ar    1  UNL1        0.0648
      5 C          -4.4777    0.9549   -0.1285 C.ar    1  UNL1       -0.0451
      6 C          -3.2137    1.2552   -0.5823 C.ar    1  UNL1       -0.0383
      7 C          -2.3800    0.1950   -0.8574 C.ar    1  UNL1        0.0499
      8 N          -1.0553    0.2389   -1.3248 N.pl3   1  UNL1       -0.2195
      9 N           0.2742    0.2489   -1.0088 N.2     1  UNL1       -0.0765
     10 N           0.9435    1.0229   -0.3089 N.2     1  UNL1       -0.1337
     11 C           2.3657    0.8547   -0.0959 C.ar    1  UNL1        0.0876
     12 C           2.6872   -0.4435    0.2485 C.ar    1  UNL1       -0.0337
     13 C           3.9837   -0.8393    0.4982 C.ar    1  UNL1       -0.0448
     14 C           4.9699    0.1492    0.3853 C.ar    1  UNL1        0.0648
     15 C           4.6620    1.4498    0.0423 C.ar    1  UNL1       -0.0448
     16 C           3.3522    1.8075   -0.2006 C.ar    1  UNL1       -0.0337
     17 C           6.3954   -0.0727    0.6066 C.2     1  UNL1        0.3081
     18 N           6.8575   -1.3854    0.3017 N.pl3   1  UNL1       -0.2466
     19 N           7.2399    0.8003    1.0414 N.2     1  UNL1       -0.0994
     20 C          -2.7999   -1.1297   -0.6827 C.ar    1  UNL1       -0.0383
     21 C          -4.0846   -1.4197   -0.2216 C.ar    1  UNL1       -0.0451
     22 H          -7.2429    1.0748    0.6694 H       1  UNL1        0.2884
     23 H          -6.9844    0.0131    2.3425 H       1  UNL1        0.2884
     24 H          -6.4920   -2.3790   -0.3304 H       1  UNL1        0.3633
     25 H          -5.1307    1.7907    0.0850 H       1  UNL1        0.0627
     26 H          -2.7975    2.2269   -0.7496 H       1  UNL1        0.0637
     27 H          -0.9974    0.2872   -2.3717 H       1  UNL1        0.1760
     28 H           1.9601   -1.2648    0.3538 H       1  UNL1        0.0639
     29 H           4.3292   -1.8237    0.7713 H       1  UNL1        0.0627
     30 H           5.3766    2.2481   -0.0580 H       1  UNL1        0.0627
     31 H           3.0063    2.7782   -0.4694 H       1  UNL1        0.0639
     32 H           6.4630   -2.2726    0.7063 H       1  UNL1        0.2884
     33 H           7.6483   -1.3916   -0.3819 H       1  UNL1        0.2884
     34 H           6.8753    1.7633    1.2588 H       1  UNL1        0.3633
     35 H          -2.2112   -2.0209   -0.8745 H       1  UNL1        0.0637
     36 H          -4.4512   -2.4212   -0.0731 H       1  UNL1        0.0627
@<TRIPOS>BOND
     1     1     2    1
     2     2     3    2
     3     2     4    1
     4     4     5   ar
     5     5     6   ar
     6     6     7   ar
     7     7     8    1
     8     8     9    1
     9     9    10    2
    10    10    11    1
    11    11    12   ar
    12    12    13   ar
    13    13    14   ar
    14    14    15   ar
    15    15    16   ar
    16    14    17    1
    17    17    18    1
    18    17    19    2
    19     7    20   ar
    20    20    21   ar
    21    21     4   ar
    22    16    11   ar
    23     1    22    1
    24     1    23    1
    25     3    24    1
    26     5    25    1
    27     6    26    1
    28     8    27    1
    29    12    28    1
    30    13    29    1
    31    15    30    1
    32    16    31    1
    33    18    32    1
    34    18    33    1
    35    19    34    1
    36    20    35    1
    37    21    36    1
