@<TRIPOS>MOLECULE
*****
 83 84 0 0 0
SMALL
GASTEIGER

@<TRIPOS>ATOM
      1 C          -9.6814    1.3944   -1.9441 C.3     1  UNL1       -0.0376
      2 C          -8.8340    2.5585   -1.6274 C.ar    1  UNL1       -0.0214
      3 C          -9.2318    3.8522   -1.8046 C.ar    1  UNL1       -0.0566
      4 C          -8.4302    4.9190   -1.4993 C.ar    1  UNL1       -0.0579
      5 C          -7.1449    4.7129   -0.9808 C.ar    1  UNL1       -0.0171
      6 C          -6.7247    3.4124   -0.7946 C.ar    1  UNL1        0.1561
      7 O          -5.6098    2.8683   -0.3430 O.2     1  UNL1       -0.4330
      8 C          -5.6945    1.5609   -0.3626 C.ar    1  UNL1        0.2666
      9 C          -4.6857    0.5880    0.0509 C.2     1  UNL1        0.2371
     10 O          -4.9478   -0.6335   -0.0537 O.2     1  UNL1       -0.2850
     11 C          -3.3595    0.9883    0.5871 C.3     1  UNL1        0.0880
     12 C          -3.5118    1.8397    1.8349 C.3     1  UNL1       -0.0392
     13 N          -2.5883   -0.2093    0.8373 N.am    1  UNL1       -0.3039
     14 C          -1.3310   -0.4624    0.1816 C.2     1  UNL1        0.2344
     15 O          -0.9513    0.4201   -0.6098 O.2     1  UNL1       -0.2737
     16 C          -0.6023   -1.7144    0.4844 C.3     1  UNL1        0.1076
     17 C          -0.4582   -2.0183    1.9388 C.3     1  UNL1        0.0510
     18 C           0.2279   -3.3078    2.2179 C.2     1  UNL1        0.2173
     19 O           1.3109   -3.6065    1.6603 O.2     1  UNL1       -0.2755
     20 N          -0.3495   -4.2458    3.1429 N.am    1  UNL1       -0.3075
     21 C           0.3269   -5.4825    3.4307 C.3     1  UNL1        0.0028
     22 C          -1.6305   -3.9517    3.7569 C.3     1  UNL1        0.0028
     23 N           0.6172   -1.6382   -0.2881 N.am    1  UNL1       -0.3020
     24 C           1.8617   -1.1689    0.1496 C.2     1  UNL1        0.2345
     25 O           1.9814   -0.7384    1.3231 O.2     1  UNL1       -0.2737
     26 C           3.0507   -1.1565   -0.7258 C.3     1  UNL1        0.1042
     27 N           4.1414   -0.4000   -0.0585 N.am    1  UNL1       -0.3035
     28 C           4.5754    0.8038   -0.6717 C.2     1  UNL1        0.2141
     29 O           4.0807    1.2530   -1.7333 O.2     1  UNL1       -0.2758
     30 C           5.6657    1.5603   -0.0190 C.3     1  UNL1        0.0289
     31 C           6.0564    2.8280   -0.6930 C.3     1  UNL1       -0.0295
     32 C           7.1913    3.4365    0.1279 C.3     1  UNL1       -0.0596
     33 C           4.9257    3.8379   -0.6998 C.3     1  UNL1       -0.0596
     34 C           6.5447    2.6615   -2.1104 C.3     1  UNL1       -0.0596
     35 C           3.5765   -2.4924   -1.1382 C.3     1  UNL1       -0.0108
     36 C           2.5703   -3.2802   -1.9159 C.3     1  UNL1       -0.0579
     37 C           4.7466   -2.2217   -2.0930 C.3     1  UNL1       -0.0579
     38 C           4.1663   -3.2917   -0.0031 C.3     1  UNL1       -0.0579
     39 N          -6.9006    1.2597   -0.8385 N.ar    1  UNL1       -0.2062
     40 C          -7.5504    2.3808   -1.1111 C.ar    1  UNL1        0.1129
     41 H          -9.0850    0.4449   -1.8303 H       1  UNL1        0.0278
     42 H          -9.9925    1.4394   -2.9943 H       1  UNL1        0.0278
     43 H         -10.5267    1.2925   -1.2159 H       1  UNL1        0.0278
     44 H         -10.2427    3.9945   -2.2157 H       1  UNL1        0.0621
     45 H          -8.7512    5.9505   -1.6404 H       1  UNL1        0.0619
     46 H          -6.5185    5.5419   -0.7431 H       1  UNL1        0.0655
     47 H          -2.8765    1.6356   -0.1727 H       1  UNL1        0.0580
     48 H          -3.7360    2.8749    1.5144 H       1  UNL1        0.0252
     49 H          -2.6001    1.8453    2.4536 H       1  UNL1        0.0252
     50 H          -4.3938    1.4614    2.3861 H       1  UNL1        0.0252
     51 H          -2.9191   -0.9332    1.5034 H       1  UNL1        0.1494
     52 H          -1.1790   -2.6064    0.0829 H       1  UNL1        0.0599
     53 H           0.0579   -1.2416    2.5371 H       1  UNL1        0.0381
     54 H          -1.4993   -2.0778    2.3554 H       1  UNL1        0.0381
     55 H          -0.3910   -6.3504    3.4747 H       1  UNL1        0.0428
     56 H           0.9001   -5.4513    4.3872 H       1  UNL1        0.0428
     57 H           1.0427   -5.7317    2.6074 H       1  UNL1        0.0428
     58 H          -2.4252   -3.7632    2.9701 H       1  UNL1        0.0428
     59 H          -2.0336   -4.8567    4.3051 H       1  UNL1        0.0428
     60 H          -1.5874   -3.1518    4.5192 H       1  UNL1        0.0428
     61 H           0.4676   -1.9663   -1.2972 H       1  UNL1        0.1495
     62 H           2.7666   -0.5634   -1.6103 H       1  UNL1        0.0600
     63 H           4.5588   -0.7605    0.8335 H       1  UNL1        0.1495
     64 H           6.5452    0.8851    0.0579 H       1  UNL1        0.0363
     65 H           5.3990    1.8133    1.0400 H       1  UNL1        0.0363
     66 H           6.8334    4.3239    0.7031 H       1  UNL1        0.0235
     67 H           8.0204    3.7472   -0.5440 H       1  UNL1        0.0235
     68 H           7.5572    2.7270    0.8895 H       1  UNL1        0.0235
     69 H           5.3822    4.8719   -0.6296 H       1  UNL1        0.0235
     70 H           4.3322    3.8424   -1.6106 H       1  UNL1        0.0235
     71 H           4.2895    3.6820    0.2080 H       1  UNL1        0.0235
     72 H           6.9713    1.6355   -2.2404 H       1  UNL1        0.0235
     73 H           5.6967    2.8604   -2.8059 H       1  UNL1        0.0235
     74 H           7.3312    3.4080   -2.3025 H       1  UNL1        0.0235
     75 H           2.1029   -2.6978   -2.7338 H       1  UNL1        0.0236
     76 H           1.8510   -3.8338   -1.3037 H       1  UNL1        0.0236
     77 H           3.0963   -4.1216   -2.5026 H       1  UNL1        0.0236
     78 H           5.0985   -3.2240   -2.4270 H       1  UNL1        0.0236
     79 H           4.4392   -1.6593   -2.9650 H       1  UNL1        0.0236
     80 H           5.6146   -1.7726   -1.5387 H       1  UNL1        0.0236
     81 H           4.2913   -2.7239    0.9363 H       1  UNL1        0.0236
     82 H           5.1759   -3.6927   -0.2272 H       1  UNL1        0.0236
     83 H           3.5363   -4.2136    0.1807 H       1  UNL1        0.0236
@<TRIPOS>BOND
     1     1     2    1
     2     2     3   ar
     3     3     4   ar
     4     4     5   ar
     5     5     6   ar
     6     6     7   ar
     7     7     8   ar
     8     8     9    1
     9     9    10    2
    10     9    11    1
    11    11    12    1
    12    11    13    1
    13    13    14   am
    14    14    15    2
    15    14    16    1
    16    16    17    1
    17    17    18    1
    18    18    19    2
    19    18    20   am
    20    20    21    1
    21    20    22    1
    22    16    23    1
    23    23    24   am
    24    24    25    2
    25    24    26    1
    26    26    27    1
    27    27    28   am
    28    28    29    2
    29    28    30    1
    30    30    31    1
    31    31    32    1
    32    31    33    1
    33    31    34    1
    34    26    35    1
    35    35    36    1
    36    35    37    1
    37    35    38    1
    38     8    39   ar
    39    39    40   ar
    40    40     2   ar
    41    40     6   ar
    42     1    41    1
    43     1    42    1
    44     1    43    1
    45     3    44    1
    46     4    45    1
    47     5    46    1
    48    11    47    1
    49    12    48    1
    50    12    49    1
    51    12    50    1
    52    13    51    1
    53    16    52    1
    54    17    53    1
    55    17    54    1
    56    21    55    1
    57    21    56    1
    58    21    57    1
    59    22    58    1
    60    22    59    1
    61    22    60    1
    62    23    61    1
    63    26    62    1
    64    27    63    1
    65    30    64    1
    66    30    65    1
    67    32    66    1
    68    32    67    1
    69    32    68    1
    70    33    69    1
    71    33    70    1
    72    33    71    1
    73    34    72    1
    74    34    73    1
    75    34    74    1
    76    36    75    1
    77    36    76    1
    78    36    77    1
    79    37    78    1
    80    37    79    1
    81    37    80    1
    82    38    81    1
    83    38    82    1
    84    38    83    1
