@<TRIPOS>MOLECULE
*****
 42 43 0 0 0
SMALL
GASTEIGER

@<TRIPOS>ATOM
      1 C          -4.1064   -1.8485    1.4610 C.3     1  UNL1        0.0332
      2 C          -2.8000   -1.1249    1.5103 C.2     1  UNL1        0.3040
      3 O          -2.2894   -0.4159    2.4408 O.2     1  UNL1       -0.2512
      4 O          -2.0298   -1.2587    0.3412 O.3     1  UNL1       -0.4644
      5 C          -0.7514   -0.6382    0.2023 C.3     1  UNL1        0.0984
      6 C          -0.7167    0.8337    0.1761 C.3     1  UNL1        0.0291
      7 C           0.6298    1.4963    0.0975 C.3     1  UNL1       -0.0258
      8 C           1.5240    1.3090   -1.0348 C.3     1  UNL1        0.0265
      9 N           2.0485    0.0525   -1.4116 N.ar    1  UNL1       -0.3149
     10 C           1.8208   -0.9555   -2.3124 C.ar    1  UNL1        0.0982
     11 N           2.7248   -1.9131   -2.2361 N.ar    1  UNL1       -0.2326
     12 C           3.5962   -1.6002   -1.2907 C.ar    1  UNL1        0.1260
     13 C           4.6953   -2.3225   -0.8861 C.ar    1  UNL1        0.0602
     14 N           5.4404   -1.7781    0.1177 N.ar    1  UNL1       -0.2209
     15 C           5.0547   -0.5878    0.6368 C.ar    1  UNL1        0.2145
     16 N           5.8604   -0.0422    1.6920 N.pl3   1  UNL1       -0.3274
     17 N           3.9741    0.0861    0.2136 N.ar    1  UNL1       -0.1950
     18 C           3.1861   -0.3877   -0.7762 C.ar    1  UNL1        0.1653
     19 C          -1.5735    1.3346   -0.9892 C.3     1  UNL1        0.0984
     20 O          -2.9203    1.0342   -0.9509 O.3     1  UNL1       -0.4644
     21 C          -3.8278    1.5172   -0.0007 C.2     1  UNL1        0.3040
     22 C          -5.2774    1.2043    0.0546 C.3     1  UNL1        0.0332
     23 O          -3.3458    2.2835    0.8739 O.2     1  UNL1       -0.2512
     24 H          -4.7165   -1.4852    2.3036 H       1  UNL1        0.0342
     25 H          -3.8456   -2.9272    1.5514 H       1  UNL1        0.0342
     26 H          -4.5793   -1.6692    0.4761 H       1  UNL1        0.0342
     27 H          -0.1856   -1.1344   -0.6008 H       1  UNL1        0.0701
     28 H          -0.2170   -0.9470    1.1417 H       1  UNL1        0.0701
     29 H          -1.2034    1.2026    1.1260 H       1  UNL1        0.0367
     30 H           1.1624    1.3083    1.1039 H       1  UNL1        0.0287
     31 H           0.3798    2.6111    0.2306 H       1  UNL1        0.0287
     32 H           2.3965    2.0478   -0.8867 H       1  UNL1        0.0493
     33 H           1.0435    1.7970   -1.9628 H       1  UNL1        0.0493
     34 H           0.9312   -0.8046   -2.9459 H       1  UNL1        0.1029
     35 H           4.9562   -3.2696   -1.3374 H       1  UNL1        0.0853
     36 H           6.5164    0.7075    1.9627 H       1  UNL1        0.1452
     37 H           5.9416   -0.4322    2.6555 H       1  UNL1        0.1452
     38 H          -1.1530    0.9013   -1.9455 H       1  UNL1        0.0701
     39 H          -1.3657    2.4289   -1.0820 H       1  UNL1        0.0701
     40 H          -5.5383    0.2935   -0.5258 H       1  UNL1        0.0342
     41 H          -5.5665    1.0155    1.1157 H       1  UNL1        0.0342
     42 H          -5.8737    2.0777   -0.3093 H       1  UNL1        0.0342
@<TRIPOS>BOND
     1     1     2    1
     2     2     3    2
     3     2     4    1
     4     4     5    1
     5     5     6    1
     6     6     7    1
     7     7     8    1
     8     8     9    1
     9     9    10   ar
    10    10    11   ar
    11    11    12   ar
    12    12    13   ar
    13    13    14   ar
    14    14    15   ar
    15    15    16    1
    16    15    17   ar
    17    17    18   ar
    18     6    19    1
    19    19    20    1
    20    20    21    1
    21    21    22    1
    22    21    23    2
    23    18     9   ar
    24    18    12   ar
    25     1    24    1
    26     1    25    1
    27     1    26    1
    28     5    27    1
    29     5    28    1
    30     6    29    1
    31     7    30    1
    32     7    31    1
    33     8    32    1
    34     8    33    1
    35    10    34    1
    36    13    35    1
    37    16    36    1
    38    16    37    1
    39    19    38    1
    40    19    39    1
    41    22    40    1
    42    22    41    1
    43    22    42    1
