
     RDKit          3D

 39 41  0  0  0  0  0  0  0  0999 V2000
   -3.1135   -1.9657   -0.4998 C   0  0  0  0  0  0  0  0  0  0  0  0
   -3.7106   -0.6268   -0.4313 C   0  0  0  0  0  0  0  0  0  0  0  0
   -5.0906   -0.4952   -0.5650 C   0  0  0  0  0  0  0  0  0  0  0  0
   -5.6233    0.7815   -0.4957 C   0  0  0  0  0  0  0  0  0  0  0  0
   -4.7999    1.8802   -0.2998 C   0  0  0  0  0  0  0  0  0  0  0  0
   -3.4146    1.7195   -0.1683 C   0  0  0  0  0  0  0  0  0  0  0  0
   -2.5142    2.8714    0.0411 C   0  0  0  0  0  0  0  0  0  0  0  0
   -2.8946    0.4614   -0.2371 C   0  0  0  0  0  0  0  0  0  0  0  0
   -1.5014    0.2496   -0.1099 N   0  0  0  0  0  0  0  0  0  0  0  0
   -0.9552    0.0255    1.1805 C   0  0  0  0  0  0  0  0  0  0  0  0
   -1.6905    0.0140    2.1965 O   0  0  0  0  0  0  0  0  0  0  0  0
    0.4708   -0.1983    1.3729 C   0  0  0  0  0  0  0  0  0  0  0  0
    1.1341   -0.4280    2.5660 C   0  0  0  0  0  0  0  0  0  0  0  0
    2.4683   -0.5838    2.2754 C   0  0  0  0  0  0  0  0  0  0  0  0
    2.5822   -0.4446    0.9104 C   0  0  0  0  0  0  0  0  0  0  0  0
    3.8420   -0.5375    0.1589 C   0  0  0  0  0  0  0  0  0  0  0  0
    5.0449   -0.7786    0.7814 C   0  0  0  0  0  0  0  0  0  0  0  0
    6.2375   -0.8674    0.0774 C   0  0  0  0  0  0  0  0  0  0  0  0
    6.2536   -0.7145   -1.2867 C   0  0  0  0  0  0  0  0  0  0  0  0
    7.7235   -0.8149   -2.2335 Cl  0  0  0  0  0  0  0  0  0  0  0  0
    5.0523   -0.4724   -1.9200 C   0  0  0  0  0  0  0  0  0  0  0  0
    3.8507   -0.3830   -1.2104 C   0  0  0  0  0  0  0  0  0  0  0  0
    2.3252   -0.0770   -2.0012 Cl  0  0  0  0  0  0  0  0  0  0  0  0
    1.3998   -0.2240    0.4423 O   0  0  0  0  0  0  0  0  0  0  0  0
   -3.1728   -2.5062    0.4853 H   0  0  0  0  0  0  0  0  0  0  0  0
   -3.6832   -2.5880   -1.2468 H   0  0  0  0  0  0  0  0  0  0  0  0
   -2.0561   -1.9104   -0.8280 H   0  0  0  0  0  0  0  0  0  0  0  0
   -5.7340   -1.3495   -0.7177 H   0  0  0  0  0  0  0  0  0  0  0  0
   -6.6830    0.9680   -0.5900 H   0  0  0  0  0  0  0  0  0  0  0  0
   -5.1933    2.8752   -0.2434 H   0  0  0  0  0  0  0  0  0  0  0  0
   -1.6585    2.8177   -0.6813 H   0  0  0  0  0  0  0  0  0  0  0  0
   -3.0851    3.7844   -0.1699 H   0  0  0  0  0  0  0  0  0  0  0  0
   -2.1414    2.8161    1.0762 H   0  0  0  0  0  0  0  0  0  0  0  0
   -0.8612    0.2541   -0.9462 H   0  0  0  0  0  0  0  0  0  0  0  0
    0.6209   -0.4649    3.5288 H   0  0  0  0  0  0  0  0  0  0  0  0
    3.2436   -0.7748    2.9887 H   0  0  0  0  0  0  0  0  0  0  0  0
    5.1005   -0.9080    1.8493 H   0  0  0  0  0  0  0  0  0  0  0  0
    7.1829   -1.0563    0.5614 H   0  0  0  0  0  0  0  0  0  0  0  0
    5.0442   -0.3487   -2.9976 H   0  0  0  0  0  0  0  0  0  0  0  0
  1  2  1  0
  2  3  2  0
  3  4  1  0
  4  5  2  0
  5  6  1  0
  6  7  1  0
  6  8  2  0
  8  9  1  0
  9 10  1  0
 10 11  2  0
 10 12  1  0
 12 13  2  0
 13 14  1  0
 14 15  2  0
 15 16  1  0
 16 17  2  0
 17 18  1  0
 18 19  2  0
 19 20  1  0
 19 21  1  0
 21 22  2  0
 22 23  1  0
 15 24  1  0
  8  2  1  0
 24 12  1  0
 22 16  1  0
  1 25  1  0
  1 26  1  0
  1 27  1  0
  3 28  1  0
  4 29  1  0
  5 30  1  0
  7 31  1  0
  7 32  1  0
  7 33  1  0
  9 34  1  0
 13 35  1  0
 14 36  1  0
 17 37  1  0
 18 38  1  0
 21 39  1  0
M  END
$$$$
