@<TRIPOS>MOLECULE
*****
 39 41 0 0 0
SMALL
GASTEIGER

@<TRIPOS>ATOM
      1 C          -3.1135   -1.9657   -0.4998 C.3     1  UNL1       -0.0379
      2 C          -3.7106   -0.6268   -0.4313 C.ar    1  UNL1       -0.0290
      3 C          -5.0906   -0.4952   -0.5650 C.ar    1  UNL1       -0.0571
      4 C          -5.6233    0.7815   -0.4957 C.ar    1  UNL1       -0.0611
      5 C          -4.7999    1.8802   -0.2998 C.ar    1  UNL1       -0.0571
      6 C          -3.4146    1.7195   -0.1683 C.ar    1  UNL1       -0.0290
      7 C          -2.5142    2.8714    0.0411 C.3     1  UNL1       -0.0379
      8 C          -2.8946    0.4614   -0.2371 C.ar    1  UNL1        0.0396
      9 N          -1.5014    0.2496   -0.1099 N.am    1  UNL1       -0.2785
     10 C          -0.9552    0.0255    1.1805 C.2     1  UNL1        0.2836
     11 O          -1.6905    0.0140    2.1965 O.2     1  UNL1       -0.2665
     12 C           0.4708   -0.1983    1.3729 C.ar    1  UNL1        0.1902
     13 C           1.1341   -0.4280    2.5660 C.ar    1  UNL1       -0.0106
     14 C           2.4683   -0.5838    2.2754 C.ar    1  UNL1       -0.0151
     15 C           2.5822   -0.4446    0.9104 C.ar    1  UNL1        0.1373
     16 C           3.8420   -0.5375    0.1589 C.ar    1  UNL1        0.0356
     17 C           5.0449   -0.7786    0.7814 C.ar    1  UNL1       -0.0483
     18 C           6.2375   -0.8674    0.0774 C.ar    1  UNL1       -0.0426
     19 C           6.2536   -0.7145   -1.2867 C.ar    1  UNL1        0.0424
     20 CL          7.7235   -0.8149   -2.2335 Cl      1  UNL1       -0.0835
     21 C           5.0523   -0.4724   -1.9200 C.ar    1  UNL1       -0.0243
     22 C           3.8507   -0.3830   -1.2104 C.ar    1  UNL1        0.0530
     23 CL          2.3252   -0.0770   -2.0012 Cl      1  UNL1       -0.0828
     24 O           1.3998   -0.2240    0.4423 O.2     1  UNL1       -0.4502
     25 H          -3.1728   -2.5062    0.4853 H       1  UNL1        0.0278
     26 H          -3.6832   -2.5880   -1.2468 H       1  UNL1        0.0278
     27 H          -2.0561   -1.9104   -0.8280 H       1  UNL1        0.0278
     28 H          -5.7340   -1.3495   -0.7177 H       1  UNL1        0.0621
     29 H          -6.6830    0.9680   -0.5900 H       1  UNL1        0.0618
     30 H          -5.1933    2.8752   -0.2434 H       1  UNL1        0.0621
     31 H          -1.6585    2.8177   -0.6813 H       1  UNL1        0.0278
     32 H          -3.0851    3.7844   -0.1699 H       1  UNL1        0.0278
     33 H          -2.1414    2.8161    1.0762 H       1  UNL1        0.0278
     34 H          -0.8612    0.2541   -0.9462 H       1  UNL1        0.1552
     35 H           0.6209   -0.4649    3.5288 H       1  UNL1        0.0657
     36 H           3.2436   -0.7748    2.9887 H       1  UNL1        0.0656
     37 H           5.1005   -0.9080    1.8493 H       1  UNL1        0.0625
     38 H           7.1829   -1.0563    0.5614 H       1  UNL1        0.0632
     39 H           5.0442   -0.3487   -2.9976 H       1  UNL1        0.0647
@<TRIPOS>BOND
     1     1     2    1
     2     2     3   ar
     3     3     4   ar
     4     4     5   ar
     5     5     6   ar
     6     6     7    1
     7     6     8   ar
     8     8     9    1
     9     9    10   am
    10    10    11    2
    11    10    12    1
    12    12    13   ar
    13    13    14   ar
    14    14    15   ar
    15    15    16    1
    16    16    17   ar
    17    17    18   ar
    18    18    19   ar
    19    19    20    1
    20    19    21   ar
    21    21    22   ar
    22    22    23    1
    23    15    24   ar
    24     8     2   ar
    25    24    12   ar
    26    22    16   ar
    27     1    25    1
    28     1    26    1
    29     1    27    1
    30     3    28    1
    31     4    29    1
    32     5    30    1
    33     7    31    1
    34     7    32    1
    35     7    33    1
    36     9    34    1
    37    13    35    1
    38    14    36    1
    39    17    37    1
    40    18    38    1
    41    21    39    1
