
     RDKit          3D

 60 63  0  0  0  0  0  0  0  0999 V2000
   -0.3651    2.8615   -1.6175 C   0  0  0  0  0  0  0  0  0  0  0  0
   -0.3884    1.6157   -1.0350 O   0  0  0  0  0  0  0  0  0  0  0  0
    0.8669    1.0066   -0.7973 C   0  0  0  0  0  0  0  0  0  0  0  0
    1.9262    1.7355   -1.3948 C   0  0  0  0  0  0  0  0  0  0  0  0
    3.2058    1.2000   -1.0904 C   0  0  0  0  0  0  0  0  0  0  0  0
    3.4310    0.1147   -0.3010 C   0  0  0  0  0  0  0  0  0  0  0  0
    4.5523   -0.1864    0.1764 C   0  0  0  0  0  0  0  0  0  0  0  0
    5.8552   -0.5155    0.7123 C   0  0  0  0  0  0  0  0  0  0  0  0
    7.2633   -0.8549    1.3139 C   0  0  0  0  0  0  0  0  0  0  0  0
    8.1809   -0.8103    0.3238 C   0  0  0  0  0  0  0  0  0  0  0  0
    9.3869   -0.4232    0.6648 N   0  0  0  0  0  0  0  0  0  0  0  0
    9.7197   -0.0973    1.9298 C   0  0  0  0  0  0  0  0  0  0  0  0
   11.0826    0.3814    2.0971 N   0  0  0  0  0  0  0  0  0  0  0  0
    8.7928   -0.1795    2.8064 N   0  0  0  0  0  0  0  0  0  0  0  0
    7.4230   -0.5603    2.6618 C   0  0  0  0  0  0  0  0  0  0  0  0
    2.2628   -0.5511    0.2159 C   0  0  0  0  0  0  0  0  0  0  0  0
    0.9714   -0.0845   -0.0510 C   0  0  0  0  0  0  0  0  0  0  0  0
   -0.1887   -0.9416    0.3005 C   0  0  0  0  0  0  0  0  0  0  0  0
   -0.0559   -1.6788    1.3512 O   0  0  0  0  0  0  0  0  0  0  0  0
   -1.4129   -0.9635   -0.3957 N   0  0  0  0  0  0  0  0  0  0  0  0
   -2.6453   -1.5883   -0.2000 C   0  0  0  0  0  0  0  0  0  0  0  0
   -2.6744   -2.9930   -0.0681 C   0  0  0  0  0  0  0  0  0  0  0  0
   -3.8522   -3.7324    0.0304 C   0  0  0  0  0  0  0  0  0  0  0  0
   -3.8887   -5.1947    0.2808 C   0  0  0  0  0  0  0  0  0  0  0  0
   -3.1036   -5.9230   -0.5549 F   0  0  0  0  0  0  0  0  0  0  0  0
   -5.2336   -5.5950    0.3336 F   0  0  0  0  0  0  0  0  0  0  0  0
   -3.4472   -5.3255    1.6285 F   0  0  0  0  0  0  0  0  0  0  0  0
   -5.0695   -3.0368   -0.0159 C   0  0  0  0  0  0  0  0  0  0  0  0
   -5.0728   -1.7010   -0.1466 C   0  0  0  0  0  0  0  0  0  0  0  0
   -3.8371   -0.9828   -0.2332 C   0  0  0  0  0  0  0  0  0  0  0  0
   -4.0584    0.4116   -0.2425 N   0  0  0  0  0  0  0  0  0  0  0  0
   -3.6621    1.2459    0.8613 C   0  0  0  0  0  0  0  0  0  0  0  0
   -4.8463    2.1296    1.2211 C   0  0  0  0  0  0  0  0  0  0  0  0
   -5.0736    3.1257    0.1201 C   0  0  0  0  0  0  0  0  0  0  0  0
   -4.8737    2.5250   -1.2162 C   0  0  0  0  0  0  0  0  0  0  0  0
   -4.8049    1.0319   -1.2950 C   0  0  0  0  0  0  0  0  0  0  0  0
   -1.0772    3.5964   -1.1028 H   0  0  0  0  0  0  0  0  0  0  0  0
    0.6534    3.3939   -1.1650 H   0  0  0  0  0  0  0  0  0  0  0  0
   -0.1486    2.9243   -2.6527 H   0  0  0  0  0  0  0  0  0  0  0  0
    1.7857    2.5730   -2.0351 H   0  0  0  0  0  0  0  0  0  0  0  0
    4.0245    1.6956   -1.5346 H   0  0  0  0  0  0  0  0  0  0  0  0
    7.9157   -1.0364   -0.7242 H   0  0  0  0  0  0  0  0  0  0  0  0
   11.5199    0.8836    1.2524 H   0  0  0  0  0  0  0  0  0  0  0  0
   11.5978    0.2767    2.9353 H   0  0  0  0  0  0  0  0  0  0  0  0
    6.7335   -0.6321    3.3561 H   0  0  0  0  0  0  0  0  0  0  0  0
    2.4412   -1.4108    0.7998 H   0  0  0  0  0  0  0  0  0  0  0  0
   -1.3225   -0.4487   -1.3714 H   0  0  0  0  0  0  0  0  0  0  0  0
   -1.7420   -3.5322   -0.1137 H   0  0  0  0  0  0  0  0  0  0  0  0
   -5.9871   -3.6390    0.0487 H   0  0  0  0  0  0  0  0  0  0  0  0
   -6.0022   -1.1562   -0.1929 H   0  0  0  0  0  0  0  0  0  0  0  0
   -2.7388    1.8052    0.7120 H   0  0  0  0  0  0  0  0  0  0  0  0
   -3.5481    0.5864    1.8042 H   0  0  0  0  0  0  0  0  0  0  0  0
   -5.7551    1.4400    1.2916 H   0  0  0  0  0  0  0  0  0  0  0  0
   -4.6892    2.4750    2.2287 H   0  0  0  0  0  0  0  0  0  0  0  0
   -4.3497    3.9732    0.2204 H   0  0  0  0  0  0  0  0  0  0  0  0
   -6.0670    3.6204    0.3172 H   0  0  0  0  0  0  0  0  0  0  0  0
   -3.8745    2.8989   -1.6247 H   0  0  0  0  0  0  0  0  0  0  0  0
   -5.6568    2.8682   -1.9425 H   0  0  0  0  0  0  0  0  0  0  0  0
   -5.8464    0.5884   -1.3905 H   0  0  0  0  0  0  0  0  0  0  0  0
   -4.2329    0.7903   -2.2803 H   0  0  0  0  0  0  0  0  0  0  0  0
  1  2  1  0
  2  3  1  0
  3  4  2  0
  4  5  1  0
  5  6  2  0
  6  7  1  0
  7  8  3  0
  8  9  1  0
  9 10  2  0
 10 11  1  0
 11 12  2  0
 12 13  1  0
 12 14  1  0
 14 15  2  0
  6 16  1  0
 16 17  2  0
 17 18  1  0
 18 19  2  0
 18 20  1  0
 20 21  1  0
 21 22  2  0
 22 23  1  0
 23 24  1  0
 24 25  1  0
 24 26  1  0
 24 27  1  0
 23 28  2  0
 28 29  1  0
 29 30  2  0
 30 31  1  0
 31 32  1  0
 32 33  1  0
 33 34  1  0
 34 35  1  0
 35 36  1  0
 17  3  1  0
 30 21  1  0
 36 31  1  0
 15  9  1  0
  1 37  1  0
  1 38  1  0
  1 39  1  0
  4 40  1  0
  5 41  1  0
 10 42  1  0
 13 43  1  0
 13 44  1  0
 15 45  1  0
 16 46  1  0
 20 47  1  0
 22 48  1  0
 28 49  1  0
 29 50  1  0
 32 51  1  0
 32 52  1  0
 33 53  1  0
 33 54  1  0
 34 55  1  0
 34 56  1  0
 35 57  1  0
 35 58  1  0
 36 59  1  0
 36 60  1  0
M  END
$$$$
