@<TRIPOS>MOLECULE
*****
 60 63 0 0 0
SMALL
GASTEIGER

@<TRIPOS>ATOM
      1 C          -0.3651    2.8615   -1.6175 C.3     1  UNL1        0.0788
      2 O          -0.3884    1.6157   -1.0350 O.3     1  UNL1       -0.4944
      3 C           0.8669    1.0066   -0.7973 C.ar    1  UNL1        0.1323
      4 C           1.9262    1.7355   -1.3948 C.ar    1  UNL1       -0.0180
      5 C           3.2058    1.2000   -1.0904 C.ar    1  UNL1       -0.0428
      6 C           3.4310    0.1147   -0.3010 C.ar    1  UNL1        0.0262
      7 C           4.5523   -0.1864    0.1764 C.1     1  UNL1       -0.0609
      8 C           5.8552   -0.5155    0.7123 C.1     1  UNL1       -0.0580
      9 C           7.2633   -0.8549    1.3139 C.ar    1  UNL1        0.0615
     10 C           8.1809   -0.8103    0.3238 C.ar    1  UNL1        0.0480
     11 N           9.3869   -0.4232    0.6648 N.ar    1  UNL1       -0.2219
     12 C           9.7197   -0.0973    1.9298 C.ar    1  UNL1        0.2125
     13 N          11.0826    0.3814    2.0971 N.pl3   1  UNL1       -0.3275
     14 N           8.7928   -0.1795    2.8064 N.ar    1  UNL1       -0.2219
     15 C           7.4230   -0.5603    2.6618 C.ar    1  UNL1        0.0480
     16 C           2.2628   -0.5511    0.2159 C.ar    1  UNL1       -0.0306
     17 C           0.9714   -0.0845   -0.0510 C.ar    1  UNL1        0.0797
     18 C          -0.1887   -0.9416    0.3005 C.2     1  UNL1        0.2519
     19 O          -0.0559   -1.6788    1.3512 O.2     1  UNL1       -0.2697
     20 N          -1.4129   -0.9635   -0.3957 N.am    1  UNL1       -0.2798
     21 C          -2.6453   -1.5883   -0.2000 C.ar    1  UNL1        0.0554
     22 C          -2.6744   -2.9930   -0.0681 C.ar    1  UNL1       -0.0270
     23 C          -3.8522   -3.7324    0.0304 C.ar    1  UNL1        0.0567
     24 C          -3.8887   -5.1947    0.2808 C.3     1  UNL1        0.4175
     25 F          -3.1036   -5.9230   -0.5549 F       1  UNL1       -0.1659
     26 F          -5.2336   -5.5950    0.3336 F       1  UNL1       -0.1659
     27 F          -3.4472   -5.3255    1.6285 F       1  UNL1       -0.1659
     28 C          -5.0695   -3.0368   -0.0159 C.ar    1  UNL1       -0.0483
     29 C          -5.0728   -1.7010   -0.1466 C.ar    1  UNL1       -0.0383
     30 C          -3.8371   -0.9828   -0.2332 C.ar    1  UNL1        0.0512
     31 N          -4.0584    0.4116   -0.2425 N.pl3   1  UNL1       -0.3285
     32 C          -3.6621    1.2459    0.8613 C.3     1  UNL1        0.0122
     33 C          -4.8463    2.1296    1.2211 C.3     1  UNL1       -0.0372
     34 C          -5.0736    3.1257    0.1201 C.3     1  UNL1       -0.0502
     35 C          -4.8737    2.5250   -1.2162 C.3     1  UNL1       -0.0372
     36 C          -4.8049    1.0319   -1.2950 C.3     1  UNL1        0.0122
     37 H          -1.0772    3.5964   -1.1028 H       1  UNL1        0.0660
     38 H           0.6534    3.3939   -1.1650 H       1  UNL1        0.0660
     39 H          -0.1486    2.9243   -2.6527 H       1  UNL1        0.0660
     40 H           1.7857    2.5730   -2.0351 H       1  UNL1        0.0655
     41 H           4.0245    1.6956   -1.5346 H       1  UNL1        0.0631
     42 H           7.9157   -1.0364   -0.7242 H       1  UNL1        0.0844
     43 H          11.5199    0.8836    1.2524 H       1  UNL1        0.1452
     44 H          11.5978    0.2767    2.9353 H       1  UNL1        0.1452
     45 H           6.7335   -0.6321    3.3561 H       1  UNL1        0.0844
     46 H           2.4412   -1.4108    0.7998 H       1  UNL1        0.0638
     47 H          -1.3225   -0.4487   -1.3714 H       1  UNL1        0.1552
     48 H          -1.7420   -3.5322   -0.1137 H       1  UNL1        0.0642
     49 H          -5.9871   -3.6390    0.0487 H       1  UNL1        0.0624
     50 H          -6.0022   -1.1562   -0.1929 H       1  UNL1        0.0637
     51 H          -2.7388    1.8052    0.7120 H       1  UNL1        0.0464
     52 H          -3.5481    0.5864    1.8042 H       1  UNL1        0.0464
     53 H          -5.7551    1.4400    1.2916 H       1  UNL1        0.0280
     54 H          -4.6892    2.4750    2.2287 H       1  UNL1        0.0280
     55 H          -4.3497    3.9732    0.2204 H       1  UNL1        0.0266
     56 H          -6.0670    3.6204    0.3172 H       1  UNL1        0.0266
     57 H          -3.8745    2.8989   -1.6247 H       1  UNL1        0.0280
     58 H          -5.6568    2.8682   -1.9425 H       1  UNL1        0.0280
     59 H          -5.8464    0.5884   -1.3905 H       1  UNL1        0.0464
     60 H          -4.2329    0.7903   -2.2803 H       1  UNL1        0.0464
@<TRIPOS>BOND
     1     1     2    1
     2     2     3    1
     3     3     4   ar
     4     4     5   ar
     5     5     6   ar
     6     6     7    1
     7     7     8    3
     8     8     9    1
     9     9    10   ar
    10    10    11   ar
    11    11    12   ar
    12    12    13    1
    13    12    14   ar
    14    14    15   ar
    15     6    16   ar
    16    16    17   ar
    17    17    18    1
    18    18    19    2
    19    18    20   am
    20    20    21    1
    21    21    22   ar
    22    22    23   ar
    23    23    24    1
    24    24    25    1
    25    24    26    1
    26    24    27    1
    27    23    28   ar
    28    28    29   ar
    29    29    30   ar
    30    30    31    1
    31    31    32    1
    32    32    33    1
    33    33    34    1
    34    34    35    1
    35    35    36    1
    36    17     3   ar
    37    30    21   ar
    38    36    31    1
    39    15     9   ar
    40     1    37    1
    41     1    38    1
    42     1    39    1
    43     4    40    1
    44     5    41    1
    45    10    42    1
    46    13    43    1
    47    13    44    1
    48    15    45    1
    49    16    46    1
    50    20    47    1
    51    22    48    1
    52    28    49    1
    53    29    50    1
    54    32    51    1
    55    32    52    1
    56    33    53    1
    57    33    54    1
    58    34    55    1
    59    34    56    1
    60    35    57    1
    61    35    58    1
    62    36    59    1
    63    36    60    1
