@<TRIPOS>MOLECULE
*****
 72 77 0 0 0
SMALL
GASTEIGER

@<TRIPOS>ATOM
      1 C           4.7883    2.4502    2.4213 C.3     1  UNL1       -0.0391
      2 C           5.9827    1.8700    1.7602 C.ar    1  UNL1       -0.0420
      3 C           7.2469    2.2422    2.2309 C.ar    1  UNL1       -0.0443
      4 C           8.3716    1.7167    1.6424 C.ar    1  UNL1        0.0591
      5 C           9.7189    2.0854    2.1095 C.2     1  UNL1        0.3368
      6 O           9.8284    2.8834    3.0485 O.2     1  UNL1       -0.2451
      7 O          10.8509    1.5594    1.5212 O.3     1  UNL1       -0.4771
      8 C           8.2333    0.8293    0.5951 C.ar    1  UNL1       -0.0472
      9 C           6.9842    0.4544    0.1216 C.ar    1  UNL1       -0.0530
     10 C           5.8613    0.9872    0.7185 C.ar    1  UNL1       -0.0149
     11 C           4.5492    0.6066    0.2254 C.ar    1  UNL1       -0.0175
     12 C           4.2941   -0.7358    0.0144 C.ar    1  UNL1       -0.0523
     13 C           3.0342   -1.1220   -0.4685 C.ar    1  UNL1       -0.0392
     14 C           2.0428   -0.2146   -0.7403 C.ar    1  UNL1        0.0455
     15 N           0.7795   -0.6354   -1.2230 N.am    1  UNL1       -0.1920
     16 C           0.2912   -1.9616   -1.4733 C.2     1  UNL1        0.3230
     17 O           0.9237   -3.0341   -1.2979 O.2     1  UNL1       -0.2511
     18 N          -1.0648   -1.8743   -1.9678 N.am    1  UNL1       -0.2083
     19 C          -1.6904   -2.8141   -2.8080 C.ar    1  UNL1        0.2263
     20 N          -1.6495   -2.7402   -4.1599 N.ar    1  UNL1       -0.2224
     21 C          -2.2327   -3.6164   -4.9658 C.ar    1  UNL1        0.0326
     22 C          -2.9265   -4.6719   -4.4192 C.ar    1  UNL1       -0.0253
     23 C          -2.9833   -4.7700   -3.0513 C.ar    1  UNL1        0.0326
     24 N          -2.3709   -3.8494   -2.2830 N.ar    1  UNL1       -0.2224
     25 C          -1.5368   -0.6278   -1.3819 C.3     1  UNL1        0.1254
     26 C          -1.7972   -0.7274    0.0780 C.3     1  UNL1       -0.0095
     27 C          -3.2454   -0.5664    0.4621 C.3     1  UNL1        0.0017
     28 N          -3.8920    0.5509   -0.1124 N.3     1  UNL1       -0.2965
     29 C          -4.2396    1.5938    0.8020 C.3     1  UNL1        0.0415
     30 C          -5.1820    0.9788    1.8077 C.ar    1  UNL1        0.0581
     31 N          -4.7649    0.6650    3.0461 N.ar    1  UNL1       -0.2583
     32 C          -5.5374    0.1241    3.9771 C.ar    1  UNL1        0.0279
     33 C          -6.8571   -0.1325    3.6494 C.ar    1  UNL1       -0.0433
     34 C          -7.3322    0.1674    2.4047 C.ar    1  UNL1       -0.0557
     35 C          -6.4927    0.7249    1.4802 C.ar    1  UNL1       -0.0279
     36 C          -6.9368    1.0782    0.1037 C.3     1  UNL1       -0.0380
     37 C          -3.4668    0.9665   -1.3932 C.3     1  UNL1        0.0017
     38 C          -2.6763   -0.0338   -2.1635 C.3     1  UNL1       -0.0095
     39 C          -0.3287    0.2121   -1.5868 C.2     1  UNL1        0.2517
     40 O          -0.3117    1.3843   -1.9860 O.2     1  UNL1       -0.2724
     41 C           2.3105    1.1231   -0.5251 C.ar    1  UNL1       -0.0392
     42 C           3.5498    1.5124   -0.0493 C.ar    1  UNL1       -0.0523
     43 H           4.6031    3.5166    2.0987 H       1  UNL1        0.0278
     44 H           3.8995    1.8152    2.3624 H       1  UNL1        0.0278
     45 H           5.0620    2.5635    3.5145 H       1  UNL1        0.0278
     46 H           7.3443    2.9320    3.0445 H       1  UNL1        0.0628
     47 H          11.7434    2.0744    1.4945 H       1  UNL1        0.2954
     48 H           9.1440    0.4233    0.1420 H       1  UNL1        0.0626
     49 H           6.9216   -0.2486   -0.7073 H       1  UNL1        0.0624
     50 H           5.0456   -1.4966    0.2139 H       1  UNL1        0.0624
     51 H           2.8911   -2.1593   -0.6130 H       1  UNL1        0.0636
     52 H          -2.1990   -3.5547   -6.0520 H       1  UNL1        0.0831
     53 H          -3.4033   -5.3885   -5.0673 H       1  UNL1        0.0648
     54 H          -3.5332   -5.6069   -2.6224 H       1  UNL1        0.0831
     55 H          -1.4710   -1.7163    0.4598 H       1  UNL1        0.0303
     56 H          -1.2261    0.0602    0.6077 H       1  UNL1        0.0303
     57 H          -3.2445   -0.4245    1.5832 H       1  UNL1        0.0427
     58 H          -3.7654   -1.5380    0.3088 H       1  UNL1        0.0427
     59 H          -3.3248    1.8686    1.3649 H       1  UNL1        0.0491
     60 H          -4.7506    2.4417    0.3495 H       1  UNL1        0.0491
     61 H          -5.2168   -0.1351    4.9802 H       1  UNL1        0.0829
     62 H          -7.5438   -0.5714    4.3572 H       1  UNL1        0.0633
     63 H          -8.3647   -0.0265    2.1297 H       1  UNL1        0.0621
     64 H          -8.0279    0.8923    0.0106 H       1  UNL1        0.0278
     65 H          -6.7374    2.1308   -0.0905 H       1  UNL1        0.0278
     66 H          -6.3807    0.4452   -0.6119 H       1  UNL1        0.0278
     67 H          -4.3124    1.3106   -1.9970 H       1  UNL1        0.0427
     68 H          -2.7986    1.8672   -1.2584 H       1  UNL1        0.0427
     69 H          -3.3694   -0.8872   -2.4093 H       1  UNL1        0.0303
     70 H          -2.3426    0.3755   -3.1179 H       1  UNL1        0.0303
     71 H           1.5273    1.8272   -0.7370 H       1  UNL1        0.0636
     72 H           3.7040    2.5711    0.0980 H       1  UNL1        0.0624
@<TRIPOS>BOND
     1     1     2    1
     2     2     3   ar
     3     3     4   ar
     4     4     5    1
     5     5     6    2
     6     5     7    1
     7     4     8   ar
     8     8     9   ar
     9     9    10   ar
    10    10    11    1
    11    11    12   ar
    12    12    13   ar
    13    13    14   ar
    14    14    15    1
    15    15    16   am
    16    16    17    2
    17    16    18   am
    18    18    19    1
    19    19    20   ar
    20    20    21   ar
    21    21    22   ar
    22    22    23   ar
    23    23    24   ar
    24    18    25    1
    25    25    26    1
    26    26    27    1
    27    27    28    1
    28    28    29    1
    29    29    30    1
    30    30    31   ar
    31    31    32   ar
    32    32    33   ar
    33    33    34   ar
    34    34    35   ar
    35    35    36    1
    36    28    37    1
    37    37    38    1
    38    25    39    1
    39    39    40    2
    40    14    41   ar
    41    41    42   ar
    42    10     2   ar
    43    42    11   ar
    44    39    15   am
    45    24    19   ar
    46    38    25    1
    47    35    30   ar
    48     1    43    1
    49     1    44    1
    50     1    45    1
    51     3    46    1
    52     7    47    1
    53     8    48    1
    54     9    49    1
    55    12    50    1
    56    13    51    1
    57    21    52    1
    58    22    53    1
    59    23    54    1
    60    26    55    1
    61    26    56    1
    62    27    57    1
    63    27    58    1
    64    29    59    1
    65    29    60    1
    66    32    61    1
    67    33    62    1
    68    34    63    1
    69    36    64    1
    70    36    65    1
    71    36    66    1
    72    37    67    1
    73    37    68    1
    74    38    69    1
    75    38    70    1
    76    41    71    1
    77    42    72    1
