@<TRIPOS>MOLECULE
*****
 39 41 0 0 0
SMALL
GASTEIGER

@<TRIPOS>ATOM
      1 CL          7.0461   -2.1730    0.5352 Cl      1  UNL1       -0.0835
      2 C           5.5200   -1.3546    0.1902 C.ar    1  UNL1        0.0424
      3 C           4.9599   -0.4867    1.0932 C.ar    1  UNL1       -0.0247
      4 C           3.7620    0.1907    0.8854 C.ar    1  UNL1        0.0477
      5 CL          3.1164    1.2926    2.1113 Cl      1  UNL1       -0.0831
      6 C           3.1114   -0.0439   -0.3205 C.ar    1  UNL1       -0.0035
      7 C           1.8318    0.6824   -0.5373 C.3     1  UNL1        0.0749
      8 O           0.8568    0.0603    0.2189 O.3     1  UNL1       -0.3655
      9 C          -0.3907    0.6323    0.1118 C.3     1  UNL1        0.1032
     10 C          -0.9761    1.1551    1.3871 C.3     1  UNL1        0.0546
     11 N          -2.2897    1.7496    1.2302 N.ar    1  UNL1       -0.3340
     12 C          -3.5239    1.1733    1.3134 C.ar    1  UNL1        0.0241
     13 C          -4.4913    2.1336    1.0911 C.ar    1  UNL1        0.0454
     14 N          -3.8357    3.2968    0.8722 N.ar    1  UNL1       -0.2441
     15 C          -2.5330    3.0512    0.9583 C.ar    1  UNL1        0.0960
     16 C          -1.3368   -0.3663   -0.4570 C.ar    1  UNL1        0.0012
     17 C          -1.1607   -1.6714   -0.0420 C.ar    1  UNL1        0.0480
     18 CL          0.0751   -2.2087    1.0853 Cl      1  UNL1       -0.0831
     19 C          -1.9960   -2.6532   -0.5249 C.ar    1  UNL1       -0.0247
     20 C          -3.0043   -2.3323   -1.4195 C.ar    1  UNL1        0.0424
     21 CL         -4.1033   -3.5155   -2.0777 Cl      1  UNL1       -0.0835
     22 C          -3.1947   -1.0367   -1.8440 C.ar    1  UNL1       -0.0430
     23 C          -2.3461   -0.0576   -1.3499 C.ar    1  UNL1       -0.0533
     24 C           3.6836   -0.9196   -1.2232 C.ar    1  UNL1       -0.0536
     25 C           4.8687   -1.5755   -0.9919 C.ar    1  UNL1       -0.0430
     26 H           5.5127   -0.3426    2.0183 H       1  UNL1        0.0647
     27 H           1.6151    0.6521   -1.6246 H       1  UNL1        0.0611
     28 H           2.0045    1.7267   -0.1806 H       1  UNL1        0.0611
     29 H          -0.3503    1.5106   -0.5910 H       1  UNL1        0.0665
     30 H          -0.3338    1.9153    1.8804 H       1  UNL1        0.0521
     31 H          -1.0852    0.3516    2.1552 H       1  UNL1        0.0521
     32 H          -3.6597    0.1179    1.5240 H       1  UNL1        0.0825
     33 H          -5.5604    1.9801    1.0928 H       1  UNL1        0.0845
     34 H          -1.7839    3.8390    0.8181 H       1  UNL1        0.1029
     35 H          -1.9701   -3.7130   -0.2836 H       1  UNL1        0.0647
     36 H          -3.9717   -0.7508   -2.5415 H       1  UNL1        0.0632
     37 H          -2.4399    0.9739   -1.6408 H       1  UNL1        0.0622
     38 H           3.1006   -1.0343   -2.1310 H       1  UNL1        0.0622
     39 H           5.2727   -2.2496   -1.7295 H       1  UNL1        0.0632
@<TRIPOS>BOND
     1     1     2    1
     2     2     3   ar
     3     3     4   ar
     4     4     5    1
     5     4     6   ar
     6     6     7    1
     7     7     8    1
     8     8     9    1
     9     9    10    1
    10    10    11    1
    11    11    12   ar
    12    12    13   ar
    13    13    14   ar
    14    14    15   ar
    15     9    16    1
    16    16    17   ar
    17    17    18    1
    18    17    19   ar
    19    19    20   ar
    20    20    21    1
    21    20    22   ar
    22    22    23   ar
    23     6    24   ar
    24    24    25   ar
    25    25     2   ar
    26    15    11   ar
    27    23    16   ar
    28     3    26    1
    29     7    27    1
    30     7    28    1
    31     9    29    1
    32    10    30    1
    33    10    31    1
    34    12    32    1
    35    13    33    1
    36    15    34    1
    37    19    35    1
    38    22    36    1
    39    23    37    1
    40    24    38    1
    41    25    39    1
