@<TRIPOS>MOLECULE
*****
 33 34 0 0 0
SMALL
GASTEIGER

@<TRIPOS>ATOM
      1 C           5.2759   -0.4359   -0.4261 C.3     1  UNL1       -0.0652
      2 C           5.1301    0.8061    0.4013 C.3     1  UNL1       -0.0528
      3 C           3.9300    0.7457    1.3178 C.3     1  UNL1       -0.0189
      4 C           2.6597    0.5822    0.5128 C.3     1  UNL1        0.0896
      5 O           1.5285    0.5233    1.3414 O.3     1  UNL1       -0.4920
      6 C           0.2382    0.3759    0.8566 C.ar    1  UNL1        0.1205
      7 C          -0.0289    0.2755   -0.4907 C.ar    1  UNL1       -0.0193
      8 C          -1.3376    0.1267   -0.9703 C.ar    1  UNL1       -0.0491
      9 C          -2.4101    0.0750   -0.1102 C.ar    1  UNL1        0.0020
     10 C          -3.7767   -0.0786   -0.5789 C.ar    1  UNL1        0.0890
     11 C          -4.0874   -0.1810   -1.8905 C.ar    1  UNL1        0.0535
     12 N          -5.3949   -0.3227   -2.2456 N.ar    1  UNL1       -0.2596
     13 C          -6.3632   -0.3618   -1.3330 C.ar    1  UNL1        0.0457
     14 C          -6.0383   -0.2564    0.0079 C.ar    1  UNL1        0.0464
     15 N          -4.7502   -0.1168    0.3569 N.ar    1  UNL1       -0.2520
     16 C          -2.1391    0.1771    1.2600 C.ar    1  UNL1       -0.0491
     17 C          -0.8457    0.3225    1.7043 C.ar    1  UNL1       -0.0193
     18 H           6.3779   -0.6215   -0.5600 H       1  UNL1        0.0230
     19 H           4.8572   -1.3389    0.0363 H       1  UNL1        0.0230
     20 H           4.8982   -0.2817   -1.4780 H       1  UNL1        0.0230
     21 H           4.9713    1.6614   -0.3013 H       1  UNL1        0.0264
     22 H           6.0217    0.9318    1.0358 H       1  UNL1        0.0264
     23 H           4.0030   -0.1387    1.9943 H       1  UNL1        0.0298
     24 H           3.8581    1.6361    1.9712 H       1  UNL1        0.0298
     25 H           2.5446    1.5030   -0.1181 H       1  UNL1        0.0696
     26 H           2.7234   -0.2592   -0.1817 H       1  UNL1        0.0696
     27 H           0.7991    0.3124   -1.2088 H       1  UNL1        0.0654
     28 H          -1.4722    0.0535   -2.0513 H       1  UNL1        0.0625
     29 H          -3.3488   -0.1559   -2.6698 H       1  UNL1        0.0851
     30 H          -7.4025   -0.4758   -1.6385 H       1  UNL1        0.0845
     31 H          -6.8175   -0.2879    0.7403 H       1  UNL1        0.0845
     32 H          -2.9751    0.1377    1.9472 H       1  UNL1        0.0625
     33 H          -0.6289    0.4024    2.7686 H       1  UNL1        0.0654
@<TRIPOS>BOND
     1     1     2    1
     2     2     3    1
     3     3     4    1
     4     4     5    1
     5     5     6    1
     6     6     7   ar
     7     7     8   ar
     8     8     9   ar
     9     9    10    1
    10    10    11   ar
    11    11    12   ar
    12    12    13   ar
    13    13    14   ar
    14    14    15   ar
    15     9    16   ar
    16    16    17   ar
    17    17     6   ar
    18    15    10   ar
    19     1    18    1
    20     1    19    1
    21     1    20    1
    22     2    21    1
    23     2    22    1
    24     3    23    1
    25     3    24    1
    26     4    25    1
    27     4    26    1
    28     7    27    1
    29     8    28    1
    30    11    29    1
    31    13    30    1
    32    14    31    1
    33    16    32    1
    34    17    33    1
