@<TRIPOS>MOLECULE
*****
 100 106 0 0 0
SMALL
GASTEIGER

@<TRIPOS>ATOM
      1 C          -3.2468    1.1408    0.0344 C.3     1  UNL1       -0.0142
      2 C          -2.6747    2.1030    1.0334 C.3     1  UNL1       -0.0478
      3 C          -1.9427    1.3891    2.0980 C.3     1  UNL1       -0.0527
      4 C          -0.8565    0.5160    1.6857 C.3     1  UNL1       -0.0530
      5 C           0.3530    0.9584    0.9645 C.3     1  UNL1       -0.0531
      6 C           0.2856    1.5171   -0.3830 C.3     1  UNL1       -0.0530
      7 C           1.5919    1.9801   -0.9276 C.3     1  UNL1       -0.0526
      8 C           2.7532    1.1363   -1.1401 C.3     1  UNL1       -0.0430
      9 C           3.4723    0.4821   -0.0190 C.3     1  UNL1        0.0449
     10 C           4.6569   -0.2426   -0.6722 C.2     1  UNL1        0.3072
     11 O           4.9664   -0.3079   -1.8837 O.2     1  UNL1       -0.2509
     12 O           5.4398   -0.8872    0.2962 O.3     1  UNL1       -0.4619
     13 C           6.5921   -1.6230   -0.0683 C.3     1  UNL1        0.1211
     14 C           7.1984   -2.1751    1.2059 C.3     1  UNL1        0.1235
     15 O           8.3280   -2.9065    0.9892 O.3     1  UNL1       -0.3446
     16 C           9.3801   -2.3255    1.6811 C.3     1  UNL1        0.1667
     17 N          10.0574   -1.4367    0.7644 N.ar    1  UNL1       -0.2855
     18 C          10.4019   -0.1586    1.0410 C.ar    1  UNL1        0.1004
     19 N          11.0068    0.3252   -0.0594 N.ar    1  UNL1       -0.2306
     20 C          11.0414   -0.6293   -1.0072 C.ar    1  UNL1        0.1473
     21 C          11.5494   -0.6225   -2.2908 C.ar    1  UNL1        0.1472
     22 N          12.1544    0.5699   -2.7535 N.pl3   1  UNL1       -0.3413
     23 N          11.4480   -1.7258   -3.0273 N.ar    1  UNL1       -0.2188
     24 C          10.8479   -2.8337   -2.5019 C.ar    1  UNL1        0.1205
     25 N          10.3476   -2.8512   -1.2472 N.ar    1  UNL1       -0.2159
     26 C          10.4359   -1.7568   -0.4855 C.ar    1  UNL1        0.1674
     27 C           8.7590   -1.5842    2.8434 C.3     1  UNL1        0.1286
     28 O           8.4321   -2.5690    3.8019 O.3     1  UNL1       -0.3847
     29 C           7.4919   -1.0743    2.1926 C.3     1  UNL1        0.1146
     30 O           6.4688   -0.9001    3.1235 O.3     1  UNL1       -0.3864
     31 C          -4.2152    0.1630    0.6755 C.3     1  UNL1       -0.0442
     32 C          -5.2668    0.0315   -0.3727 C.3     1  UNL1       -0.0296
     33 C          -6.6011   -0.4184    0.1031 C.3     1  UNL1       -0.0305
     34 C          -6.6215   -1.6924    0.8750 C.3     1  UNL1       -0.0454
     35 C          -8.0550   -1.9947    1.2519 C.3     1  UNL1       -0.0270
     36 C          -9.0476   -1.1503    0.5417 C.ar    1  UNL1       -0.0405
     37 C         -10.3062   -1.1027    1.1445 C.ar    1  UNL1       -0.0167
     38 C         -11.3332   -0.3565    0.5969 C.ar    1  UNL1        0.1171
     39 O         -12.5726   -0.3393    1.2340 O.3     1  UNL1       -0.5068
     40 C         -11.1118    0.3549   -0.5664 C.ar    1  UNL1       -0.0199
     41 C          -9.8694    0.3116   -1.1668 C.ar    1  UNL1       -0.0546
     42 C          -8.8450   -0.4196   -0.6401 C.ar    1  UNL1       -0.0406
     43 C          -7.4608   -0.5876   -1.1330 C.3     1  UNL1       -0.0125
     44 C          -7.0379    0.2290   -2.2752 C.3     1  UNL1       -0.0454
     45 C          -6.3481    1.5168   -1.9748 C.3     1  UNL1       -0.0444
     46 C          -5.4458    1.4810   -0.7828 C.3     1  UNL1       -0.0027
     47 C          -6.0604    2.3246    0.2867 C.3     1  UNL1       -0.0569
     48 C          -4.0309    1.8606   -1.0556 C.3     1  UNL1        0.0637
     49 O          -3.8546    3.2316   -0.8397 O.3     1  UNL1       -0.3910
     50 H          -2.4530    0.5595   -0.4764 H       1  UNL1        0.0326
     51 H          -3.6061    2.6229    1.4798 H       1  UNL1        0.0269
     52 H          -2.1628    2.9114    0.5376 H       1  UNL1        0.0269
     53 H          -2.6919    0.7208    2.6625 H       1  UNL1        0.0265
     54 H          -1.6489    2.0947    2.9480 H       1  UNL1        0.0265
     55 H          -0.4424   -0.0530    2.6070 H       1  UNL1        0.0265
     56 H          -1.3142   -0.3910    1.1288 H       1  UNL1        0.0265
     57 H           0.9355   -0.0362    0.8390 H       1  UNL1        0.0265
     58 H           1.0608    1.5493    1.5920 H       1  UNL1        0.0265
     59 H          -0.1071    0.7678   -1.1469 H       1  UNL1        0.0265
     60 H          -0.3996    2.3900   -0.5370 H       1  UNL1        0.0265
     61 H           1.9285    2.8641   -0.2483 H       1  UNL1        0.0265
     62 H           1.3977    2.5937   -1.8973 H       1  UNL1        0.0265
     63 H           2.4843    0.3025   -1.8730 H       1  UNL1        0.0270
     64 H           3.5572    1.7622   -1.6815 H       1  UNL1        0.0270
     65 H           3.9092    1.2217    0.7086 H       1  UNL1        0.0377
     66 H           2.9712   -0.3163    0.5301 H       1  UNL1        0.0377
     67 H           6.2154   -2.5108   -0.6230 H       1  UNL1        0.0724
     68 H           7.2835   -1.0625   -0.6959 H       1  UNL1        0.0724
     69 H           6.4330   -2.8367    1.6599 H       1  UNL1        0.0658
     70 H          10.0493   -3.1312    2.0364 H       1  UNL1        0.0866
     71 H          10.2618    0.4393    1.9361 H       1  UNL1        0.1030
     72 H          11.6800    1.0146   -3.5950 H       1  UNL1        0.1438
     73 H          12.9570    1.1988   -2.5359 H       1  UNL1        0.1438
     74 H          10.7425   -3.7534   -3.0625 H       1  UNL1        0.1048
     75 H           9.3883   -0.8139    3.2831 H       1  UNL1        0.0665
     76 H           9.2694   -3.0889    4.0051 H       1  UNL1        0.2101
     77 H           7.7597   -0.1125    1.6894 H       1  UNL1        0.0648
     78 H           5.7562   -0.3975    2.6147 H       1  UNL1        0.2100
     79 H          -3.7054   -0.8086    0.8328 H       1  UNL1        0.0272
     80 H          -4.5733    0.4915    1.6569 H       1  UNL1        0.0272
     81 H          -4.8419   -0.4999   -1.2231 H       1  UNL1        0.0310
     82 H          -7.0419    0.3715    0.7350 H       1  UNL1        0.0310
     83 H          -6.2724   -2.5003    0.1747 H       1  UNL1        0.0271
     84 H          -6.0042   -1.6558    1.7934 H       1  UNL1        0.0271
     85 H          -8.2028   -1.8909    2.3470 H       1  UNL1        0.0313
     86 H          -8.3104   -3.0622    1.0082 H       1  UNL1        0.0313
     87 H         -10.5268   -1.6487    2.0636 H       1  UNL1        0.0657
     88 H         -12.9101    0.5742    1.5613 H       1  UNL1        0.2921
     89 H         -11.9019    0.9427   -1.0071 H       1  UNL1        0.0654
     90 H          -9.6269    0.8316   -2.0599 H       1  UNL1        0.0622
     91 H          -7.3916   -1.6797   -1.4156 H       1  UNL1        0.0352
     92 H          -6.3140   -0.3776   -2.8985 H       1  UNL1        0.0271
     93 H          -7.8547    0.4561   -2.9888 H       1  UNL1        0.0271
     94 H          -5.7372    1.7984   -2.8787 H       1  UNL1        0.0272
     95 H          -7.1274    2.3172   -1.8873 H       1  UNL1        0.0272
     96 H          -7.1804    2.3547    0.1366 H       1  UNL1        0.0236
     97 H          -5.7441    3.3792    0.1144 H       1  UNL1        0.0236
     98 H          -5.9099    1.9906    1.3144 H       1  UNL1        0.0236
     99 H          -3.6796    1.6163   -2.0762 H       1  UNL1        0.0601
    100 H          -3.0132    3.5394   -1.2228 H       1  UNL1        0.2098
@<TRIPOS>BOND
     1     1     2    1
     2     2     3    1
     3     3     4    1
     4     4     5    1
     5     5     6    1
     6     6     7    1
     7     7     8    1
     8     8     9    1
     9     9    10    1
    10    10    11    2
    11    10    12    1
    12    12    13    1
    13    13    14    1
    14    14    15    1
    15    15    16    1
    16    16    17    1
    17    17    18   ar
    18    18    19   ar
    19    19    20   ar
    20    20    21   ar
    21    21    22    1
    22    21    23   ar
    23    23    24   ar
    24    24    25   ar
    25    25    26   ar
    26    16    27    1
    27    27    28    1
    28    27    29    1
    29    29    30    1
    30     1    31    1
    31    31    32    1
    32    32    33    1
    33    33    34    1
    34    34    35    1
    35    35    36    1
    36    36    37   ar
    37    37    38   ar
    38    38    39    1
    39    38    40   ar
    40    40    41   ar
    41    41    42   ar
    42    42    43    1
    43    43    44    1
    44    44    45    1
    45    45    46    1
    46    46    47    1
    47    46    48    1
    48    48    49    1
    49    48     1    1
    50    29    14    1
    51    46    32    1
    52    26    17   ar
    53    43    33    1
    54    26    20   ar
    55    42    36   ar
    56     1    50    1
    57     2    51    1
    58     2    52    1
    59     3    53    1
    60     3    54    1
    61     4    55    1
    62     4    56    1
    63     5    57    1
    64     5    58    1
    65     6    59    1
    66     6    60    1
    67     7    61    1
    68     7    62    1
    69     8    63    1
    70     8    64    1
    71     9    65    1
    72     9    66    1
    73    13    67    1
    74    13    68    1
    75    14    69    1
    76    16    70    1
    77    18    71    1
    78    22    72    1
    79    22    73    1
    80    24    74    1
    81    27    75    1
    82    28    76    1
    83    29    77    1
    84    30    78    1
    85    31    79    1
    86    31    80    1
    87    32    81    1
    88    33    82    1
    89    34    83    1
    90    34    84    1
    91    35    85    1
    92    35    86    1
    93    37    87    1
    94    39    88    1
    95    40    89    1
    96    41    90    1
    97    43    91    1
    98    44    92    1
    99    44    93    1
   100    45    94    1
   101    45    95    1
   102    47    96    1
   103    47    97    1
   104    47    98    1
   105    48    99    1
   106    49   100    1
