@<TRIPOS>MOLECULE
*****
 27 29 0 0 0
SMALL
GASTEIGER

@<TRIPOS>ATOM
      1 O           4.4686   -1.5179    0.5763 O.2     1  UNL1       -0.2920
      2 C           3.6655   -0.5817    0.6769 C.2     1  UNL1        0.1637
      3 C           3.8743    0.8813    0.8708 C.3     1  UNL1        0.0145
      4 C           2.8043    1.4374   -0.0234 C.3     1  UNL1       -0.0200
      5 C           1.6606    0.4846    0.2139 C.ar    1  UNL1       -0.0359
      6 C           0.3095    0.6306    0.0851 C.ar    1  UNL1       -0.0501
      7 C          -0.5482   -0.3928    0.3550 C.ar    1  UNL1       -0.0161
      8 C          -2.0114   -0.2372    0.2150 C.ar    1  UNL1        0.0002
      9 C          -2.5457    0.6000   -0.7414 C.ar    1  UNL1       -0.0512
     10 C          -3.9211    0.7571   -0.8835 C.ar    1  UNL1       -0.0430
     11 C          -4.7428    0.0524   -0.0415 C.ar    1  UNL1        0.0276
     12 N          -4.1998   -0.7645    0.8909 N.ar    1  UNL1       -0.2627
     13 C          -2.8708   -0.9211    1.0341 C.ar    1  UNL1        0.0352
     14 C          -0.0248   -1.6067    0.7693 C.ar    1  UNL1       -0.0533
     15 C           1.3387   -1.7579    0.9006 C.ar    1  UNL1       -0.0504
     16 C           2.1892   -0.7105    0.6230 C.ar    1  UNL1        0.0206
     17 H           4.8668    1.2261    0.5519 H       1  UNL1        0.0348
     18 H           3.6792    1.1085    1.9492 H       1  UNL1        0.0348
     19 H           2.4653    2.4395    0.2355 H       1  UNL1        0.0317
     20 H           3.1594    1.3226   -1.0687 H       1  UNL1        0.0317
     21 H          -0.1242    1.5804   -0.2405 H       1  UNL1        0.0627
     22 H          -1.9105    1.1569   -1.4056 H       1  UNL1        0.0625
     23 H          -4.3594    1.4075   -1.6261 H       1  UNL1        0.0633
     24 H          -5.8179    0.1428   -0.1142 H       1  UNL1        0.0829
     25 H          -2.4995   -1.5780    1.7854 H       1  UNL1        0.0836
     26 H          -0.6870   -2.4503    0.9945 H       1  UNL1        0.0624
     27 H           1.7816   -2.7092    1.2258 H       1  UNL1        0.0625
@<TRIPOS>BOND
     1     1     2    2
     2     2     3    1
     3     3     4    1
     4     4     5    1
     5     5     6   ar
     6     6     7   ar
     7     7     8    1
     8     8     9   ar
     9     9    10   ar
    10    10    11   ar
    11    11    12   ar
    12    12    13   ar
    13     7    14   ar
    14    14    15   ar
    15    15    16   ar
    16    16     2    1
    17    16     5   ar
    18    13     8   ar
    19     3    17    1
    20     3    18    1
    21     4    19    1
    22     4    20    1
    23     6    21    1
    24     9    22    1
    25    10    23    1
    26    11    24    1
    27    13    25    1
    28    14    26    1
    29    15    27    1
