@<TRIPOS>MOLECULE
*****
 45 48 0 0 0
SMALL
GASTEIGER

@<TRIPOS>ATOM
      1 N          -4.5373    3.0937   -1.0067 N.am    1  UNL1       -0.3241
      2 C          -3.3507    2.3062   -0.8841 C.2     1  UNL1        0.2599
      3 O          -2.9739    1.6501   -1.8700 O.2     1  UNL1       -0.2687
      4 C          -2.6202    2.2872    0.3670 C.ar    1  UNL1        0.1280
      5 C          -2.9684    2.9888    1.5239 C.ar    1  UNL1        0.0588
      6 N          -2.0385    2.6996    2.4473 N.ar    1  UNL1       -0.2353
      7 C          -1.1533    1.8567    1.8884 C.ar    1  UNL1        0.1381
      8 C          -0.0302    1.2816    2.4344 C.ar    1  UNL1       -0.0182
      9 C           0.7378    0.4368    1.6652 C.ar    1  UNL1       -0.0477
     10 C           0.4230    0.1403    0.3533 C.ar    1  UNL1        0.0173
     11 C           1.2065   -0.7464   -0.4980 C.ar    1  UNL1        0.0778
     12 C           0.7213   -2.0213   -0.8237 C.ar    1  UNL1        0.0967
     13 C          -0.5273   -2.6457   -0.4103 C.ar    1  UNL1        0.0026
     14 C          -1.4720   -3.0419   -1.3143 C.ar    1  UNL1       -0.0498
     15 C          -2.6713   -3.6403   -0.9241 C.ar    1  UNL1       -0.0258
     16 C          -2.8984   -3.8322    0.4192 C.ar    1  UNL1        0.1234
     17 F          -4.0389   -4.4056    0.8588 F       1  UNL1       -0.2055
     18 C          -1.9342   -3.4273    1.3331 C.ar    1  UNL1       -0.0258
     19 C          -0.7590   -2.8405    0.9416 C.ar    1  UNL1       -0.0498
     20 N           1.6664   -2.5556   -1.6123 N.ar    1  UNL1       -0.2351
     21 C           2.6738   -1.7038   -1.7827 C.ar    1  UNL1        0.0971
     22 N           2.3955   -0.5760   -1.0931 N.ar    1  UNL1       -0.3295
     23 C           3.1837    0.6227   -0.9771 C.3     1  UNL1        0.0271
     24 C           4.1620    0.6308    0.1465 C.3     1  UNL1       -0.0065
     25 C           4.9419    1.9455    0.1645 C.3     1  UNL1        0.0918
     26 F           5.6039    2.0423   -1.0428 F       1  UNL1       -0.2490
     27 C          -0.7348    0.7649   -0.1291 C.ar    1  UNL1        0.0211
     28 N          -1.4860    1.5865    0.6115 N.ar    1  UNL1       -0.2949
     29 H          -4.9818    3.4932   -0.1451 H       1  UNL1        0.1453
     30 H          -4.9992    3.3024   -1.9047 H       1  UNL1        0.1453
     31 H          -3.8248    3.6446    1.6609 H       1  UNL1        0.0853
     32 H           0.2906    1.4592    3.4564 H       1  UNL1        0.0654
     33 H           1.6071   -0.0052    2.1122 H       1  UNL1        0.0626
     34 H          -1.3276   -2.9060   -2.3894 H       1  UNL1        0.0625
     35 H          -3.4331   -3.9622   -1.6158 H       1  UNL1        0.0646
     36 H          -2.0883   -3.5676    2.4061 H       1  UNL1        0.0646
     37 H          -0.0502   -2.5481    1.7026 H       1  UNL1        0.0625
     38 H           3.5861   -1.8106   -2.3511 H       1  UNL1        0.1029
     39 H           3.7668    0.7526   -1.9221 H       1  UNL1        0.0493
     40 H           2.5097    1.5154   -0.8217 H       1  UNL1        0.0493
     41 H           3.6966    0.5673    1.1500 H       1  UNL1        0.0307
     42 H           4.8836   -0.2249    0.1036 H       1  UNL1        0.0307
     43 H           4.2601    2.8121    0.2158 H       1  UNL1        0.0615
     44 H           5.6169    2.0061    1.0266 H       1  UNL1        0.0615
     45 H          -1.0341    0.5750   -1.1428 H       1  UNL1        0.0820
@<TRIPOS>BOND
     1     1     2   am
     2     2     3    2
     3     2     4    1
     4     4     5   ar
     5     5     6   ar
     6     6     7   ar
     7     7     8   ar
     8     8     9   ar
     9     9    10   ar
    10    10    11    1
    11    11    12   ar
    12    12    13    1
    13    13    14   ar
    14    14    15   ar
    15    15    16   ar
    16    16    17    1
    17    16    18   ar
    18    18    19   ar
    19    12    20   ar
    20    20    21   ar
    21    21    22   ar
    22    22    23    1
    23    23    24    1
    24    24    25    1
    25    25    26    1
    26    10    27   ar
    27    27    28   ar
    28    28     4   ar
    29    28     7   ar
    30    22    11   ar
    31    19    13   ar
    32     1    29    1
    33     1    30    1
    34     5    31    1
    35     8    32    1
    36     9    33    1
    37    14    34    1
    38    15    35    1
    39    18    36    1
    40    19    37    1
    41    21    38    1
    42    23    39    1
    43    23    40    1
    44    24    41    1
    45    24    42    1
    46    25    43    1
    47    25    44    1
    48    27    45    1
