@<TRIPOS>MOLECULE
*****
 43 44 0 0 0
SMALL
GASTEIGER

@<TRIPOS>ATOM
      1 O           1.2649   -1.3150    2.0708 O.2     1  UNL1       -0.1498
      2 S           2.0399   -0.1238    1.6349 S.O2    1  UNL1        0.0750
      3 O           2.5968    0.6142    2.8113 O.2     1  UNL1       -0.1498
      4 C           3.3990   -0.7210    0.6740 C.ar    1  UNL1        0.1087
      5 C           3.3038   -1.8884   -0.0593 C.ar    1  UNL1       -0.0351
      6 C           4.3606   -2.3612   -0.8120 C.ar    1  UNL1       -0.0599
      7 C           5.5546   -1.6740   -0.8537 C.ar    1  UNL1       -0.0616
      8 C           5.6476   -0.5116   -0.1228 C.ar    1  UNL1       -0.0599
      9 C           4.5943   -0.0365    0.6300 C.ar    1  UNL1       -0.0351
     10 N           1.0826    0.9206    0.6252 N.pl3   1  UNL1       -0.1944
     11 C           1.6893    2.1159    0.0834 C.3     1  UNL1        0.1300
     12 C           1.5427    3.3195    0.9827 C.3     1  UNL1        0.4069
     13 F           2.1297    3.0963    2.2086 F       1  UNL1       -0.1689
     14 F           2.2271    4.4178    0.4436 F       1  UNL1       -0.1689
     15 F           0.2299    3.6933    1.1321 F       1  UNL1       -0.1689
     16 C          -0.2756    0.5840    0.3382 C.ar    1  UNL1        0.0516
     17 C          -0.5500   -0.1795   -0.7775 C.ar    1  UNL1       -0.0387
     18 C          -1.8436   -0.5265   -1.0972 C.ar    1  UNL1       -0.0535
     19 C          -2.9381   -0.1288   -0.3176 C.ar    1  UNL1        0.0016
     20 C          -4.2649   -0.5563   -0.7505 C.3     1  UNL1        0.2815
     21 O          -4.2128   -0.7751   -2.1487 O.3     1  UNL1       -0.3692
     22 C          -4.6881   -1.8841   -0.1634 C.3     1  UNL1        0.4311
     23 F          -3.8044   -2.8785   -0.5327 F       1  UNL1       -0.1669
     24 F          -5.9065   -2.2078   -0.7410 F       1  UNL1       -0.1669
     25 F          -4.8919   -1.8274    1.1933 F       1  UNL1       -0.1669
     26 C          -5.3506    0.4419   -0.5305 C.3     1  UNL1        0.4311
     27 F          -5.0387    1.6116   -1.2353 F       1  UNL1       -0.1669
     28 F          -6.5722   -0.0276   -1.0282 F       1  UNL1       -0.1669
     29 F          -5.5590    0.7177    0.8006 F       1  UNL1       -0.1669
     30 C          -2.6281    0.6248    0.7775 C.ar    1  UNL1       -0.0535
     31 C          -1.3355    0.9796    1.1093 C.ar    1  UNL1       -0.0387
     32 H           2.3722   -2.4501   -0.0436 H       1  UNL1        0.0637
     33 H           4.2618   -3.2920   -1.3871 H       1  UNL1        0.0618
     34 H           6.3701   -2.0679   -1.4537 H       1  UNL1        0.0618
     35 H           6.6066    0.0191   -0.1703 H       1  UNL1        0.0618
     36 H           4.7287    0.8736    1.1766 H       1  UNL1        0.0637
     37 H           1.3615    2.3248   -0.9535 H       1  UNL1        0.0571
     38 H           2.7999    1.9368   -0.0008 H       1  UNL1        0.0571
     39 H           0.2499   -0.5340   -1.4442 H       1  UNL1        0.0637
     40 H          -2.0226   -1.1319   -1.9880 H       1  UNL1        0.0622
     41 H          -3.9517   -1.7263   -2.3249 H       1  UNL1        0.2112
     42 H          -3.4071    0.9593    1.4130 H       1  UNL1        0.0622
     43 H          -1.1723    1.5744    1.9917 H       1  UNL1        0.0637
@<TRIPOS>BOND
     1     1     2    2
     2     2     3    2
     3     2     4    1
     4     4     5   ar
     5     5     6   ar
     6     6     7   ar
     7     7     8   ar
     8     8     9   ar
     9     2    10    1
    10    10    11    1
    11    11    12    1
    12    12    13    1
    13    12    14    1
    14    12    15    1
    15    10    16    1
    16    16    17   ar
    17    17    18   ar
    18    18    19   ar
    19    19    20    1
    20    20    21    1
    21    20    22    1
    22    22    23    1
    23    22    24    1
    24    22    25    1
    25    20    26    1
    26    26    27    1
    27    26    28    1
    28    26    29    1
    29    19    30   ar
    30    30    31   ar
    31     9     4   ar
    32    31    16   ar
    33     5    32    1
    34     6    33    1
    35     7    34    1
    36     8    35    1
    37     9    36    1
    38    11    37    1
    39    11    38    1
    40    17    39    1
    41    18    40    1
    42    21    41    1
    43    30    42    1
    44    31    43    1
