
     RDKit          3D

 43 44  0  0  0  0  0  0  0  0999 V2000
    1.2649   -1.3150    2.0708 O   0  0  0  0  0  0  0  0  0  0  0  0
    2.0399   -0.1238    1.6349 S   0  0  0  0  0  6  0  0  0  0  0  0
    2.5968    0.6142    2.8113 O   0  0  0  0  0  0  0  0  0  0  0  0
    3.3990   -0.7210    0.6740 C   0  0  0  0  0  0  0  0  0  0  0  0
    3.3038   -1.8884   -0.0593 C   0  0  0  0  0  0  0  0  0  0  0  0
    4.3606   -2.3612   -0.8120 C   0  0  0  0  0  0  0  0  0  0  0  0
    5.5546   -1.6740   -0.8537 C   0  0  0  0  0  0  0  0  0  0  0  0
    5.6476   -0.5116   -0.1228 C   0  0  0  0  0  0  0  0  0  0  0  0
    4.5943   -0.0365    0.6300 C   0  0  0  0  0  0  0  0  0  0  0  0
    1.0826    0.9206    0.6252 N   0  0  0  0  0  0  0  0  0  0  0  0
    1.6893    2.1159    0.0834 C   0  0  0  0  0  0  0  0  0  0  0  0
    1.5427    3.3195    0.9827 C   0  0  0  0  0  0  0  0  0  0  0  0
    2.1297    3.0963    2.2086 F   0  0  0  0  0  0  0  0  0  0  0  0
    2.2271    4.4178    0.4436 F   0  0  0  0  0  0  0  0  0  0  0  0
    0.2299    3.6933    1.1321 F   0  0  0  0  0  0  0  0  0  0  0  0
   -0.2756    0.5840    0.3382 C   0  0  0  0  0  0  0  0  0  0  0  0
   -0.5500   -0.1795   -0.7775 C   0  0  0  0  0  0  0  0  0  0  0  0
   -1.8436   -0.5265   -1.0972 C   0  0  0  0  0  0  0  0  0  0  0  0
   -2.9381   -0.1288   -0.3176 C   0  0  0  0  0  0  0  0  0  0  0  0
   -4.2649   -0.5563   -0.7505 C   0  0  0  0  0  0  0  0  0  0  0  0
   -4.2128   -0.7751   -2.1487 O   0  0  0  0  0  0  0  0  0  0  0  0
   -4.6881   -1.8841   -0.1634 C   0  0  0  0  0  0  0  0  0  0  0  0
   -3.8044   -2.8785   -0.5327 F   0  0  0  0  0  0  0  0  0  0  0  0
   -5.9065   -2.2078   -0.7410 F   0  0  0  0  0  0  0  0  0  0  0  0
   -4.8919   -1.8274    1.1933 F   0  0  0  0  0  0  0  0  0  0  0  0
   -5.3506    0.4419   -0.5305 C   0  0  0  0  0  0  0  0  0  0  0  0
   -5.0387    1.6116   -1.2353 F   0  0  0  0  0  0  0  0  0  0  0  0
   -6.5722   -0.0276   -1.0282 F   0  0  0  0  0  0  0  0  0  0  0  0
   -5.5590    0.7177    0.8006 F   0  0  0  0  0  0  0  0  0  0  0  0
   -2.6281    0.6248    0.7775 C   0  0  0  0  0  0  0  0  0  0  0  0
   -1.3355    0.9796    1.1093 C   0  0  0  0  0  0  0  0  0  0  0  0
    2.3722   -2.4501   -0.0436 H   0  0  0  0  0  0  0  0  0  0  0  0
    4.2618   -3.2920   -1.3871 H   0  0  0  0  0  0  0  0  0  0  0  0
    6.3701   -2.0679   -1.4537 H   0  0  0  0  0  0  0  0  0  0  0  0
    6.6066    0.0191   -0.1703 H   0  0  0  0  0  0  0  0  0  0  0  0
    4.7287    0.8736    1.1766 H   0  0  0  0  0  0  0  0  0  0  0  0
    1.3615    2.3248   -0.9535 H   0  0  0  0  0  0  0  0  0  0  0  0
    2.7999    1.9368   -0.0008 H   0  0  0  0  0  0  0  0  0  0  0  0
    0.2499   -0.5340   -1.4442 H   0  0  0  0  0  0  0  0  0  0  0  0
   -2.0226   -1.1319   -1.9880 H   0  0  0  0  0  0  0  0  0  0  0  0
   -3.9517   -1.7263   -2.3249 H   0  0  0  0  0  0  0  0  0  0  0  0
   -3.4071    0.9593    1.4130 H   0  0  0  0  0  0  0  0  0  0  0  0
   -1.1723    1.5744    1.9917 H   0  0  0  0  0  0  0  0  0  0  0  0
  1  2  2  0
  2  3  2  0
  2  4  1  0
  4  5  2  0
  5  6  1  0
  6  7  2  0
  7  8  1  0
  8  9  2  0
  2 10  1  0
 10 11  1  0
 11 12  1  0
 12 13  1  0
 12 14  1  0
 12 15  1  0
 10 16  1  0
 16 17  2  0
 17 18  1  0
 18 19  2  0
 19 20  1  0
 20 21  1  0
 20 22  1  0
 22 23  1  0
 22 24  1  0
 22 25  1  0
 20 26  1  0
 26 27  1  0
 26 28  1  0
 26 29  1  0
 19 30  1  0
 30 31  2  0
  9  4  1  0
 31 16  1  0
  5 32  1  0
  6 33  1  0
  7 34  1  0
  8 35  1  0
  9 36  1  0
 11 37  1  0
 11 38  1  0
 17 39  1  0
 18 40  1  0
 21 41  1  0
 30 42  1  0
 31 43  1  0
M  END
$$$$
