@<TRIPOS>MOLECULE
*****
 69 74 0 0 0
SMALL
GASTEIGER

@<TRIPOS>ATOM
      1 O          -1.3895    2.8309   -0.8256 O.2     1  UNL1       -0.2741
      2 C          -0.8623    1.9098   -0.1974 C.2     1  UNL1        0.2308
      3 N          -1.5669    0.7065    0.0148 N.am    1  UNL1       -0.3106
      4 C          -2.8920    0.4291   -0.4484 C.3     1  UNL1        0.0289
      5 C          -3.0718   -0.8256   -1.2147 C.3     1  UNL1       -0.0211
      6 C          -2.8249   -2.0664   -0.3788 C.3     1  UNL1       -0.0456
      7 C          -3.7467   -2.0855    0.8072 C.3     1  UNL1       -0.0394
      8 C          -3.4804   -0.8324    1.6231 C.3     1  UNL1       -0.0456
      9 C          -3.8055    0.3572    0.7738 C.3     1  UNL1       -0.0211
     10 C          -5.2541    0.3458    0.3408 C.3     1  UNL1       -0.0327
     11 C          -5.4741   -0.9068   -0.4664 C.3     1  UNL1        0.0685
     12 C          -6.8518   -0.8923   -0.9854 C.2     1  UNL1        0.3110
     13 O          -7.6443    0.0537   -0.7441 O.2     1  UNL1       -0.2504
     14 O          -7.3547   -1.9361   -1.7784 O.3     1  UNL1       -0.4802
     15 C          -5.1997   -2.1089    0.4099 C.3     1  UNL1       -0.0344
     16 C          -4.5369   -0.8843   -1.6478 C.3     1  UNL1       -0.0327
     17 C           0.5484    2.1605    0.3136 C.3     1  UNL1        0.0901
     18 C           0.4784    3.3835    1.0840 C.3     1  UNL1       -0.0169
     19 C           1.5157    4.0913    1.8083 C.3     1  UNL1       -0.0480
     20 C           0.5020    3.2719    2.6124 C.3     1  UNL1       -0.0480
     21 N           1.0205    0.9391    0.7345 N.3     1  UNL1       -0.2883
     22 C           1.1303    0.0957   -0.4780 C.3     1  UNL1        0.0154
     23 C           2.4866    0.3458   -1.1533 C.3     1  UNL1        0.0263
     24 N           3.4640   -0.2528   -0.2591 N.pl3   1  UNL1       -0.3127
     25 C           4.7722   -0.5743   -0.6549 C.ar    1  UNL1        0.1213
     26 C           5.6081   -1.2551    0.1903 C.ar    1  UNL1       -0.0212
     27 C           6.9159   -1.5603   -0.2229 C.ar    1  UNL1       -0.0454
     28 C           7.3539   -1.1775   -1.4696 C.ar    1  UNL1        0.0730
     29 C           8.7430   -1.5137   -1.8779 C.3     1  UNL1        0.4188
     30 F           9.1830   -0.7258   -2.9131 F       1  UNL1       -0.1658
     31 F           9.5961   -1.3663   -0.7991 F       1  UNL1       -0.1658
     32 F           8.7973   -2.8326   -2.2657 F       1  UNL1       -0.1658
     33 C           6.4733   -0.4924   -2.2874 C.ar    1  UNL1        0.0413
     34 N           5.2185   -0.2091   -1.8688 N.ar    1  UNL1       -0.2398
     35 C           3.0035   -0.4946    1.0778 C.3     1  UNL1        0.0263
     36 C           2.1460    0.7213    1.5202 C.3     1  UNL1        0.0154
     37 H          -1.0793   -0.0365    0.5585 H       1  UNL1        0.1490
     38 H          -3.3222    1.2774   -1.0504 H       1  UNL1        0.0504
     39 H          -2.4855   -0.9050   -2.1419 H       1  UNL1        0.0319
     40 H          -1.7891   -1.9956    0.0118 H       1  UNL1        0.0271
     41 H          -2.9560   -2.9443   -1.0399 H       1  UNL1        0.0271
     42 H          -3.4728   -2.9420    1.4517 H       1  UNL1        0.0301
     43 H          -4.1038   -0.8061    2.5408 H       1  UNL1        0.0271
     44 H          -2.4048   -0.8128    1.8912 H       1  UNL1        0.0271
     45 H          -3.6492    1.2932    1.3698 H       1  UNL1        0.0319
     46 H          -5.4276    1.2114   -0.3026 H       1  UNL1        0.0279
     47 H          -5.8655    0.3478    1.2650 H       1  UNL1        0.0279
     48 H          -8.0981   -1.7491   -2.4575 H       1  UNL1        0.2951
     49 H          -5.8050   -2.0115    1.3316 H       1  UNL1        0.0278
     50 H          -5.4700   -3.0601   -0.0768 H       1  UNL1        0.0278
     51 H          -4.8120   -0.0364   -2.2934 H       1  UNL1        0.0279
     52 H          -4.6728   -1.8185   -2.2216 H       1  UNL1        0.0279
     53 H           1.0877    2.4215   -0.6691 H       1  UNL1        0.0561
     54 H          -0.3533    4.0781    0.7115 H       1  UNL1        0.0321
     55 H           1.3692    5.1980    1.9777 H       1  UNL1        0.0269
     56 H           2.5437    3.8196    1.9883 H       1  UNL1        0.0269
     57 H          -0.2917    3.8123    3.1726 H       1  UNL1        0.0269
     58 H           0.8603    2.3788    3.1069 H       1  UNL1        0.0269
     59 H           1.0184   -0.9627   -0.2732 H       1  UNL1        0.0442
     60 H           0.3967    0.4482   -1.2442 H       1  UNL1        0.0442
     61 H           2.4344   -0.1900   -2.1222 H       1  UNL1        0.0477
     62 H           2.7381    1.3979   -1.2451 H       1  UNL1        0.0477
     63 H           5.3518   -1.5974    1.1813 H       1  UNL1        0.0652
     64 H           7.5937   -2.0959    0.4240 H       1  UNL1        0.0625
     65 H           6.8412   -0.2027   -3.2617 H       1  UNL1        0.0836
     66 H           2.3807   -1.4205    1.1663 H       1  UNL1        0.0477
     67 H           3.7829   -0.5855    1.8434 H       1  UNL1        0.0477
     68 H           2.8781    1.5154    1.6437 H       1  UNL1        0.0442
     69 H           1.7806    0.3239    2.5243 H       1  UNL1        0.0442
@<TRIPOS>BOND
     1     1     2    2
     2     2     3   am
     3     3     4    1
     4     4     5    1
     5     5     6    1
     6     6     7    1
     7     7     8    1
     8     8     9    1
     9     9    10    1
    10    10    11    1
    11    11    12    1
    12    12    13    2
    13    12    14    1
    14    11    15    1
    15    11    16    1
    16     2    17    1
    17    17    18    1
    18    18    19    1
    19    19    20    1
    20    17    21    1
    21    21    22    1
    22    22    23    1
    23    23    24    1
    24    24    25    1
    25    25    26   ar
    26    26    27   ar
    27    27    28   ar
    28    28    29    1
    29    29    30    1
    30    29    31    1
    31    29    32    1
    32    28    33   ar
    33    33    34   ar
    34    24    35    1
    35    35    36    1
    36     9     4    1
    37    20    18    1
    38    36    21    1
    39    16     5    1
    40    34    25   ar
    41    15     7    1
    42     3    37    1
    43     4    38    1
    44     5    39    1
    45     6    40    1
    46     6    41    1
    47     7    42    1
    48     8    43    1
    49     8    44    1
    50     9    45    1
    51    10    46    1
    52    10    47    1
    53    14    48    1
    54    15    49    1
    55    15    50    1
    56    16    51    1
    57    16    52    1
    58    17    53    1
    59    18    54    1
    60    19    55    1
    61    19    56    1
    62    20    57    1
    63    20    58    1
    64    22    59    1
    65    22    60    1
    66    23    61    1
    67    23    62    1
    68    26    63    1
    69    27    64    1
    70    33    65    1
    71    35    66    1
    72    35    67    1
    73    36    68    1
    74    36    69    1
