
     RDKit          3D

 69 74  0  0  0  0  0  0  0  0999 V2000
   -1.3895    2.8309   -0.8256 O   0  0  0  0  0  0  0  0  0  0  0  0
   -0.8623    1.9098   -0.1974 C   0  0  0  0  0  0  0  0  0  0  0  0
   -1.5669    0.7065    0.0148 N   0  0  0  0  0  0  0  0  0  0  0  0
   -2.8920    0.4291   -0.4484 C   0  0  1  0  0  0  0  0  0  0  0  0
   -3.0718   -0.8256   -1.2147 C   0  0  0  0  0  0  0  0  0  0  0  0
   -2.8249   -2.0664   -0.3788 C   0  0  0  0  0  0  0  0  0  0  0  0
   -3.7467   -2.0855    0.8072 C   0  0  0  0  0  0  0  0  0  0  0  0
   -3.4804   -0.8324    1.6231 C   0  0  0  0  0  0  0  0  0  0  0  0
   -3.8055    0.3572    0.7738 C   0  0  0  0  0  0  0  0  0  0  0  0
   -5.2541    0.3458    0.3408 C   0  0  0  0  0  0  0  0  0  0  0  0
   -5.4741   -0.9068   -0.4664 C   0  0  2  0  0  0  0  0  0  0  0  0
   -6.8518   -0.8923   -0.9854 C   0  0  0  0  0  0  0  0  0  0  0  0
   -7.6443    0.0537   -0.7441 O   0  0  0  0  0  0  0  0  0  0  0  0
   -7.3547   -1.9361   -1.7784 O   0  0  0  0  0  0  0  0  0  0  0  0
   -5.1997   -2.1089    0.4099 C   0  0  0  0  0  0  0  0  0  0  0  0
   -4.5369   -0.8843   -1.6478 C   0  0  0  0  0  0  0  0  0  0  0  0
    0.5484    2.1605    0.3136 C   0  0  0  0  0  0  0  0  0  0  0  0
    0.4784    3.3835    1.0840 C   0  0  0  0  0  0  0  0  0  0  0  0
    1.5157    4.0913    1.8083 C   0  0  0  0  0  0  0  0  0  0  0  0
    0.5020    3.2719    2.6124 C   0  0  0  0  0  0  0  0  0  0  0  0
    1.0205    0.9391    0.7345 N   0  0  0  0  0  0  0  0  0  0  0  0
    1.1303    0.0957   -0.4780 C   0  0  0  0  0  0  0  0  0  0  0  0
    2.4866    0.3458   -1.1533 C   0  0  0  0  0  0  0  0  0  0  0  0
    3.4640   -0.2528   -0.2591 N   0  0  0  0  0  0  0  0  0  0  0  0
    4.7722   -0.5743   -0.6549 C   0  0  0  0  0  0  0  0  0  0  0  0
    5.6081   -1.2551    0.1903 C   0  0  0  0  0  0  0  0  0  0  0  0
    6.9159   -1.5603   -0.2229 C   0  0  0  0  0  0  0  0  0  0  0  0
    7.3539   -1.1775   -1.4696 C   0  0  0  0  0  0  0  0  0  0  0  0
    8.7430   -1.5137   -1.8779 C   0  0  0  0  0  0  0  0  0  0  0  0
    9.1830   -0.7258   -2.9131 F   0  0  0  0  0  0  0  0  0  0  0  0
    9.5961   -1.3663   -0.7991 F   0  0  0  0  0  0  0  0  0  0  0  0
    8.7973   -2.8326   -2.2657 F   0  0  0  0  0  0  0  0  0  0  0  0
    6.4733   -0.4924   -2.2874 C   0  0  0  0  0  0  0  0  0  0  0  0
    5.2185   -0.2091   -1.8688 N   0  0  0  0  0  0  0  0  0  0  0  0
    3.0035   -0.4946    1.0778 C   0  0  0  0  0  0  0  0  0  0  0  0
    2.1460    0.7213    1.5202 C   0  0  0  0  0  0  0  0  0  0  0  0
   -1.0793   -0.0365    0.5585 H   0  0  0  0  0  0  0  0  0  0  0  0
   -3.3222    1.2774   -1.0504 H   0  0  0  0  0  0  0  0  0  0  0  0
   -2.4855   -0.9050   -2.1419 H   0  0  0  0  0  0  0  0  0  0  0  0
   -1.7891   -1.9956    0.0118 H   0  0  0  0  0  0  0  0  0  0  0  0
   -2.9560   -2.9443   -1.0399 H   0  0  0  0  0  0  0  0  0  0  0  0
   -3.4728   -2.9420    1.4517 H   0  0  0  0  0  0  0  0  0  0  0  0
   -4.1038   -0.8061    2.5408 H   0  0  0  0  0  0  0  0  0  0  0  0
   -2.4048   -0.8128    1.8912 H   0  0  0  0  0  0  0  0  0  0  0  0
   -3.6492    1.2932    1.3698 H   0  0  0  0  0  0  0  0  0  0  0  0
   -5.4276    1.2114   -0.3026 H   0  0  0  0  0  0  0  0  0  0  0  0
   -5.8655    0.3478    1.2650 H   0  0  0  0  0  0  0  0  0  0  0  0
   -8.0981   -1.7491   -2.4575 H   0  0  0  0  0  0  0  0  0  0  0  0
   -5.8050   -2.0115    1.3316 H   0  0  0  0  0  0  0  0  0  0  0  0
   -5.4700   -3.0601   -0.0768 H   0  0  0  0  0  0  0  0  0  0  0  0
   -4.8120   -0.0364   -2.2934 H   0  0  0  0  0  0  0  0  0  0  0  0
   -4.6728   -1.8185   -2.2216 H   0  0  0  0  0  0  0  0  0  0  0  0
    1.0877    2.4215   -0.6691 H   0  0  0  0  0  0  0  0  0  0  0  0
   -0.3533    4.0781    0.7115 H   0  0  0  0  0  0  0  0  0  0  0  0
    1.3692    5.1980    1.9777 H   0  0  0  0  0  0  0  0  0  0  0  0
    2.5437    3.8196    1.9883 H   0  0  0  0  0  0  0  0  0  0  0  0
   -0.2917    3.8123    3.1726 H   0  0  0  0  0  0  0  0  0  0  0  0
    0.8603    2.3788    3.1069 H   0  0  0  0  0  0  0  0  0  0  0  0
    1.0184   -0.9627   -0.2732 H   0  0  0  0  0  0  0  0  0  0  0  0
    0.3967    0.4482   -1.2442 H   0  0  0  0  0  0  0  0  0  0  0  0
    2.4344   -0.1900   -2.1222 H   0  0  0  0  0  0  0  0  0  0  0  0
    2.7381    1.3979   -1.2451 H   0  0  0  0  0  0  0  0  0  0  0  0
    5.3518   -1.5974    1.1813 H   0  0  0  0  0  0  0  0  0  0  0  0
    7.5937   -2.0959    0.4240 H   0  0  0  0  0  0  0  0  0  0  0  0
    6.8412   -0.2027   -3.2617 H   0  0  0  0  0  0  0  0  0  0  0  0
    2.3807   -1.4205    1.1663 H   0  0  0  0  0  0  0  0  0  0  0  0
    3.7829   -0.5855    1.8434 H   0  0  0  0  0  0  0  0  0  0  0  0
    2.8781    1.5154    1.6437 H   0  0  0  0  0  0  0  0  0  0  0  0
    1.7806    0.3239    2.5243 H   0  0  0  0  0  0  0  0  0  0  0  0
  1  2  2  0
  2  3  1  0
  3  4  1  0
  4  5  1  0
  5  6  1  0
  6  7  1  0
  7  8  1  0
  8  9  1  0
  9 10  1  0
 10 11  1  0
 11 12  1  6
 12 13  2  0
 12 14  1  0
 11 15  1  0
 11 16  1  0
  2 17  1  0
 17 18  1  0
 18 19  1  0
 19 20  1  0
 17 21  1  0
 21 22  1  0
 22 23  1  0
 23 24  1  0
 24 25  1  0
 25 26  2  0
 26 27  1  0
 27 28  2  0
 28 29  1  0
 29 30  1  0
 29 31  1  0
 29 32  1  0
 28 33  1  0
 33 34  2  0
 24 35  1  0
 35 36  1  0
  9  4  1  0
 20 18  1  0
 36 21  1  0
 16  5  1  0
 34 25  1  0
 15  7  1  0
  3 37  1  0
  4 38  1  6
  5 39  1  0
  6 40  1  0
  6 41  1  0
  7 42  1  0
  8 43  1  0
  8 44  1  0
  9 45  1  0
 10 46  1  0
 10 47  1  0
 14 48  1  0
 15 49  1  0
 15 50  1  0
 16 51  1  0
 16 52  1  0
 17 53  1  0
 18 54  1  0
 19 55  1  0
 19 56  1  0
 20 57  1  0
 20 58  1  0
 22 59  1  0
 22 60  1  0
 23 61  1  0
 23 62  1  0
 26 63  1  0
 27 64  1  0
 33 65  1  0
 35 66  1  0
 35 67  1  0
 36 68  1  0
 36 69  1  0
M  END
$$$$
