@<TRIPOS>MOLECULE
*****
 59 61 0 0 0
SMALL
GASTEIGER

@<TRIPOS>ATOM
      1 C          -4.7755    1.0860   -0.3672 C.3     1  UNL1       -0.0607
      2 C          -6.0216    0.3706   -0.7832 C.3     1  UNL1       -0.0194
      3 C          -7.2006    1.1214   -0.1840 C.3     1  UNL1       -0.0607
      4 C          -6.0428   -1.0863   -0.3811 C.3     1  UNL1        0.1276
      5 N          -5.9452   -1.1885    1.0316 N.3     1  UNL1       -0.1759
      6 S          -4.5699   -1.9990    1.6185 S.O2    1  UNL1        0.0591
      7 O          -4.6687   -2.0056    3.1389 O.2     1  UNL1       -0.1530
      8 O          -4.5994   -3.4698    1.2252 O.2     1  UNL1       -0.1530
      9 C          -3.0694   -1.2642    1.2073 C.ar    1  UNL1        0.1053
     10 C          -2.4243   -1.6179    0.0447 C.ar    1  UNL1       -0.0348
     11 C          -1.2195   -1.0614   -0.3333 C.ar    1  UNL1       -0.0522
     12 C          -0.6369   -0.1183    0.4771 C.ar    1  UNL1       -0.0178
     13 C           0.6319    0.5001    0.1281 C.ar    1  UNL1       -0.0177
     14 C           0.9842    1.7802    0.4693 C.ar    1  UNL1       -0.0506
     15 C           2.1825    2.3433    0.1318 C.ar    1  UNL1       -0.0194
     16 C           3.1256    1.5775   -0.6116 C.ar    1  UNL1        0.1210
     17 O           4.3027    2.1225   -0.9479 O.3     1  UNL1       -0.4874
     18 C           5.4426    1.7946   -1.5981 C.3     1  UNL1        0.1147
     19 C           6.2618    0.6859   -1.0515 C.ar    1  UNL1       -0.0096
     20 C           6.2283   -0.6086   -1.4974 C.ar    1  UNL1       -0.0553
     21 C           6.9867   -1.6263   -0.9720 C.ar    1  UNL1       -0.0606
     22 C           7.8404   -1.3427    0.0698 C.ar    1  UNL1       -0.0478
     23 C           7.9191   -0.0517    0.5643 C.ar    1  UNL1        0.0592
     24 C           8.8260    0.2645    1.6755 C.2     1  UNL1        0.3368
     25 O           9.5212   -0.6447    2.1644 O.2     1  UNL1       -0.2451
     26 O           8.9242    1.5445    2.1883 O.3     1  UNL1       -0.4771
     27 C           7.1445    0.9350    0.0114 C.ar    1  UNL1       -0.0414
     28 C           2.7645    0.2979   -0.9491 C.ar    1  UNL1       -0.0194
     29 C           1.5459   -0.2309   -0.5883 C.ar    1  UNL1       -0.0506
     30 C          -1.2496    0.2525    1.6327 C.ar    1  UNL1       -0.0522
     31 C          -2.4660   -0.3177    2.0019 C.ar    1  UNL1       -0.0348
     32 C          -7.2821   -1.6740   -0.9362 C.2     1  UNL1        0.3238
     33 O          -7.4382   -1.6197   -2.1821 O.2     1  UNL1       -0.2492
     34 O          -8.2767   -2.2757   -0.1885 O.3     1  UNL1       -0.4795
     35 H          -4.6831    1.0966    0.7319 H       1  UNL1        0.0233
     36 H          -4.9005    2.1524   -0.6759 H       1  UNL1        0.0233
     37 H          -3.8575    0.7239   -0.8846 H       1  UNL1        0.0233
     38 H          -6.1189    0.4938   -1.8886 H       1  UNL1        0.0316
     39 H          -8.0915    0.4723   -0.2447 H       1  UNL1        0.0233
     40 H          -7.3648    2.0326   -0.8094 H       1  UNL1        0.0233
     41 H          -6.9617    1.4721    0.8225 H       1  UNL1        0.0233
     42 H          -5.1727   -1.5670   -0.8971 H       1  UNL1        0.0595
     43 H          -6.0349   -0.2444    1.4605 H       1  UNL1        0.1489
     44 H          -2.8427   -2.3606   -0.6336 H       1  UNL1        0.0637
     45 H          -0.7103   -1.3324   -1.2388 H       1  UNL1        0.0624
     46 H           0.2783    2.3837    1.0377 H       1  UNL1        0.0625
     47 H           2.4847    3.3529    0.3895 H       1  UNL1        0.0654
     48 H           6.0890    2.7187   -1.7244 H       1  UNL1        0.0748
     49 H           5.2025    1.4897   -2.6564 H       1  UNL1        0.0748
     50 H           5.5692   -0.8577   -2.3257 H       1  UNL1        0.0621
     51 H           6.9011   -2.6155   -1.3791 H       1  UNL1        0.0618
     52 H           8.4610   -2.0871    0.5277 H       1  UNL1        0.0626
     53 H           9.7007    1.7767    2.8233 H       1  UNL1        0.2954
     54 H           7.1922    1.9633    0.3885 H       1  UNL1        0.0629
     55 H           3.4332   -0.3109   -1.5137 H       1  UNL1        0.0654
     56 H           1.3038   -1.2451   -0.8759 H       1  UNL1        0.0625
     57 H          -0.8180    1.0014    2.3071 H       1  UNL1        0.0624
     58 H          -2.9137    0.0117    2.9325 H       1  UNL1        0.0637
     59 H          -8.8911   -2.9947   -0.5336 H       1  UNL1        0.2951
@<TRIPOS>BOND
     1     1     2    1
     2     2     3    1
     3     2     4    1
     4     4     5    1
     5     5     6    1
     6     6     7    2
     7     6     8    2
     8     6     9    1
     9     9    10   ar
    10    10    11   ar
    11    11    12   ar
    12    12    13    1
    13    13    14   ar
    14    14    15   ar
    15    15    16   ar
    16    16    17    1
    17    17    18    1
    18    18    19    1
    19    19    20   ar
    20    20    21   ar
    21    21    22   ar
    22    22    23   ar
    23    23    24    1
    24    24    25    2
    25    24    26    1
    26    23    27   ar
    27    16    28   ar
    28    28    29   ar
    29    12    30   ar
    30    30    31   ar
    31     4    32    1
    32    32    33    2
    33    32    34    1
    34    31     9   ar
    35    29    13   ar
    36    27    19   ar
    37     1    35    1
    38     1    36    1
    39     1    37    1
    40     2    38    1
    41     3    39    1
    42     3    40    1
    43     3    41    1
    44     4    42    1
    45     5    43    1
    46    10    44    1
    47    11    45    1
    48    14    46    1
    49    15    47    1
    50    18    48    1
    51    18    49    1
    52    20    50    1
    53    21    51    1
    54    22    52    1
    55    26    53    1
    56    27    54    1
    57    28    55    1
    58    29    56    1
    59    30    57    1
    60    31    58    1
    61    34    59    1
