@<TRIPOS>MOLECULE
*****
 45 48 0 0 0
SMALL
GASTEIGER

@<TRIPOS>ATOM
      1 C          -3.1879    3.8032    0.7748 C.3     1  UNL1        0.0124
      2 C          -3.3156    2.9532   -0.4380 C.2     1  UNL1        0.2128
      3 O          -4.3598    3.0650   -1.1356 O.2     1  UNL1       -0.2759
      4 N          -2.3119    2.0317   -0.8299 N.am    1  UNL1       -0.2968
      5 C          -2.4662    1.2293   -2.0039 C.3     1  UNL1        0.0204
      6 C          -2.3254   -0.2534   -1.6924 C.3     1  UNL1        0.0055
      7 C          -1.1182   -0.4749   -0.8558 C.ar    1  UNL1        0.0473
      8 C          -0.5705    0.5292   -0.0883 C.ar    1  UNL1        0.0324
      9 C           0.5490    0.0332    0.5871 C.ar    1  UNL1        0.1498
     10 N           1.4146    0.7259    1.4751 N.pl3   1  UNL1       -0.2977
     11 C           2.7943    0.8956    1.1978 C.ar    1  UNL1        0.0325
     12 C           3.6362    1.5902    2.0385 C.ar    1  UNL1       -0.0395
     13 C           4.9816    1.7509    1.7852 C.ar    1  UNL1       -0.0460
     14 C           5.5441    1.2083    0.6533 C.ar    1  UNL1        0.0180
     15 BR          7.4061    1.3961    0.2506 Br      1  UNL1       -0.0503
     16 C           4.7121    0.5120   -0.1947 C.ar    1  UNL1       -0.0460
     17 C           3.3703    0.3481    0.0518 C.ar    1  UNL1       -0.0395
     18 N           0.6332   -1.2621    0.1967 N.ar    1  UNL1       -0.1554
     19 N          -0.3387   -1.5531   -0.6427 N.ar    1  UNL1       -0.2659
     20 C          -0.5411   -2.8697   -1.2552 C.3     1  UNL1        0.0447
     21 C          -1.4089   -3.7082   -0.3717 C.3     1  UNL1       -0.0214
     22 C          -0.8602   -3.9717    1.0367 C.3     1  UNL1       -0.0482
     23 C          -1.0013   -5.0824    0.0224 C.3     1  UNL1       -0.0482
     24 C          -1.1253    1.9174   -0.0229 C.3     1  UNL1        0.0447
     25 H          -3.4050    3.1861    1.6679 H       1  UNL1        0.0323
     26 H          -3.8623    4.6782    0.6822 H       1  UNL1        0.0323
     27 H          -2.1402    4.1672    0.8339 H       1  UNL1        0.0323
     28 H          -1.7083    1.5098   -2.7578 H       1  UNL1        0.0468
     29 H          -3.4563    1.4085   -2.4681 H       1  UNL1        0.0468
     30 H          -3.2455   -0.6375   -1.2013 H       1  UNL1        0.0343
     31 H          -2.2277   -0.7683   -2.6713 H       1  UNL1        0.0343
     32 H           1.0360    1.1252    2.3538 H       1  UNL1        0.1536
     33 H           3.2052    2.0218    2.9316 H       1  UNL1        0.0636
     34 H           5.6398    2.2989    2.4504 H       1  UNL1        0.0629
     35 H           5.1904    0.0889   -1.0918 H       1  UNL1        0.0629
     36 H           2.7484   -0.1974   -0.6239 H       1  UNL1        0.0636
     37 H          -0.9727   -2.7814   -2.2625 H       1  UNL1        0.0511
     38 H           0.4801   -3.3206   -1.3799 H       1  UNL1        0.0511
     39 H          -2.4924   -3.5186   -0.4332 H       1  UNL1        0.0318
     40 H          -1.5428   -3.9220    1.8893 H       1  UNL1        0.0269
     41 H           0.1762   -3.6177    1.2192 H       1  UNL1        0.0269
     42 H          -1.7914   -5.8420    0.1707 H       1  UNL1        0.0269
     43 H          -0.0457   -5.5164   -0.3632 H       1  UNL1        0.0269
     44 H          -0.3583    2.5852   -0.4942 H       1  UNL1        0.0515
     45 H          -1.3380    2.2381    1.0091 H       1  UNL1        0.0515
@<TRIPOS>BOND
     1     1     2    1
     2     2     3    2
     3     2     4   am
     4     4     5    1
     5     5     6    1
     6     6     7    1
     7     7     8   ar
     8     8     9   ar
     9     9    10    1
    10    10    11    1
    11    11    12   ar
    12    12    13   ar
    13    13    14   ar
    14    14    15    1
    15    14    16   ar
    16    16    17   ar
    17     9    18   ar
    18    18    19   ar
    19    19    20    1
    20    20    21    1
    21    21    22    1
    22    22    23    1
    23     8    24    1
    24    24     4    1
    25    19     7   ar
    26    23    21    1
    27    17    11   ar
    28     1    25    1
    29     1    26    1
    30     1    27    1
    31     5    28    1
    32     5    29    1
    33     6    30    1
    34     6    31    1
    35    10    32    1
    36    12    33    1
    37    13    34    1
    38    16    35    1
    39    17    36    1
    40    20    37    1
    41    20    38    1
    42    21    39    1
    43    22    40    1
    44    22    41    1
    45    23    42    1
    46    23    43    1
    47    24    44    1
    48    24    45    1
