@<TRIPOS>MOLECULE
*****
 61 65 0 0 0
SMALL
GASTEIGER

@<TRIPOS>ATOM
      1 N           6.3106   -0.6762   -2.8105 N.pl3   1  UNL1       -0.3425
      2 C           4.9211   -0.7339   -2.4685 C.ar    1  UNL1        0.1308
      3 N           4.0522   -1.2818   -3.3249 N.ar    1  UNL1       -0.2204
      4 C           2.7386   -1.3358   -3.0583 C.ar    1  UNL1        0.1204
      5 N           2.3070   -0.8196   -1.8948 N.ar    1  UNL1       -0.2158
      6 C           3.1150   -0.2582   -0.9934 C.ar    1  UNL1        0.1688
      7 C           4.4776   -0.2031   -1.2693 C.ar    1  UNL1        0.0862
      8 C           5.1003    0.4184   -0.2123 C.ar    1  UNL1        0.1057
      9 C           6.5074    0.7060   -0.0837 C.ar    1  UNL1        0.0030
     10 C           7.5008   -0.2253   -0.2061 C.ar    1  UNL1       -0.0511
     11 C           8.8461    0.0945   -0.1044 C.ar    1  UNL1       -0.0428
     12 C           9.2195    1.4056    0.1317 C.ar    1  UNL1        0.0410
     13 CL         10.9120    1.8578    0.2681 Cl      1  UNL1       -0.0835
     14 C           8.2216    2.3501    0.2572 C.ar    1  UNL1       -0.0428
     15 C           6.8852    2.0246    0.1544 C.ar    1  UNL1       -0.0511
     16 N           4.1008    0.7196    0.6625 N.ar    1  UNL1       -0.1637
     17 N           2.9488    0.3241    0.2042 N.ar    1  UNL1       -0.2133
     18 C           1.6619    0.4530    0.8205 C.ar    1  UNL1        0.0683
     19 C           1.4864    1.5046    1.6911 C.ar    1  UNL1       -0.0362
     20 C           0.2661    1.6905    2.3239 C.ar    1  UNL1       -0.0591
     21 C          -0.7594    0.7927    2.0540 C.ar    1  UNL1       -0.0524
     22 C          -0.6251   -0.2567    1.2013 C.ar    1  UNL1        0.0036
     23 C          -1.6407   -1.2381    0.8520 C.ar    1  UNL1        0.0889
     24 C          -1.4103   -2.6358    0.8352 C.ar    1  UNL1        0.0771
     25 N          -2.5264   -3.1960    0.4281 N.ar    1  UNL1       -0.1373
     26 N          -3.3904   -2.2597    0.2048 N.ar    1  UNL1       -0.0652
     27 N          -2.9000   -1.0472    0.4489 N.ar    1  UNL1       -0.2440
     28 C          -3.6371    0.1651    0.3186 C.3     1  UNL1        0.0438
     29 C          -4.5022    0.5216    1.4706 C.3     1  UNL1       -0.0333
     30 C          -5.5681   -0.5130    1.7561 C.3     1  UNL1       -0.0510
     31 C          -6.5022   -0.7369    0.6171 C.3     1  UNL1       -0.0447
     32 C          -7.2594    0.4968    0.2013 C.3     1  UNL1        0.0259
     33 C          -8.1719    0.2105   -0.9355 C.2     1  UNL1        0.2354
     34 O          -8.2827   -0.9242   -1.4680 O.2     1  UNL1       -0.2737
     35 N          -8.9626    1.2756   -1.4498 N.am    1  UNL1       -0.1975
     36 O          -9.8091    1.0494   -2.4902 O.3     1  UNL1       -0.2952
     37 C           0.6310   -0.3966    0.5892 C.ar    1  UNL1       -0.0270
     38 H           6.9138   -1.5291   -2.7765 H       1  UNL1        0.1437
     39 H           6.7752    0.2079   -3.1046 H       1  UNL1        0.1437
     40 H           2.0182   -1.7827   -3.7531 H       1  UNL1        0.1048
     41 H           7.2499   -1.2595   -0.3673 H       1  UNL1        0.0625
     42 H           9.6224   -0.6519   -0.2040 H       1  UNL1        0.0632
     43 H           8.5102    3.3838    0.4435 H       1  UNL1        0.0632
     44 H           6.1225    2.7698    0.2543 H       1  UNL1        0.0625
     45 H           2.2774    2.2153    1.9131 H       1  UNL1        0.0639
     46 H           0.1363    2.5181    3.0058 H       1  UNL1        0.0618
     47 H          -1.6693    0.9622    2.5585 H       1  UNL1        0.0624
     48 H          -0.4687   -3.0893    1.1169 H       1  UNL1        0.0870
     49 H          -4.2865    0.1371   -0.5988 H       1  UNL1        0.0509
     50 H          -2.9504    1.0290    0.1388 H       1  UNL1        0.0509
     51 H          -3.9037    0.5838    2.3915 H       1  UNL1        0.0283
     52 H          -4.9322    1.5312    1.3071 H       1  UNL1        0.0283
     53 H          -5.0870   -1.4551    2.0162 H       1  UNL1        0.0266
     54 H          -6.1302   -0.1611    2.6419 H       1  UNL1        0.0266
     55 H          -7.2569   -1.4822    0.9458 H       1  UNL1        0.0270
     56 H          -6.0166   -1.1696   -0.2794 H       1  UNL1        0.0270
     57 H          -7.8422    0.9502    0.9987 H       1  UNL1        0.0359
     58 H          -6.5350    1.2764   -0.1570 H       1  UNL1        0.0359
     59 H          -8.8936    2.2149   -1.0347 H       1  UNL1        0.1822
     60 H         -10.7059    0.8639   -2.0776 H       1  UNL1        0.2414
     61 H           0.7896   -1.2183   -0.0997 H       1  UNL1        0.0645
@<TRIPOS>BOND
     1     1     2    1
     2     2     3   ar
     3     3     4   ar
     4     4     5   ar
     5     5     6   ar
     6     6     7   ar
     7     7     8   ar
     8     8     9    1
     9     9    10   ar
    10    10    11   ar
    11    11    12   ar
    12    12    13    1
    13    12    14   ar
    14    14    15   ar
    15     8    16   ar
    16    16    17   ar
    17    17    18    1
    18    18    19   ar
    19    19    20   ar
    20    20    21   ar
    21    21    22   ar
    22    22    23    1
    23    23    24   ar
    24    24    25   ar
    25    25    26   ar
    26    26    27   ar
    27    27    28    1
    28    28    29    1
    29    29    30    1
    30    30    31    1
    31    31    32    1
    32    32    33    1
    33    33    34    2
    34    33    35   am
    35    35    36    1
    36    22    37   ar
    37     7     2   ar
    38    15     9   ar
    39    37    18   ar
    40    17     6   ar
    41    27    23   ar
    42     1    38    1
    43     1    39    1
    44     4    40    1
    45    10    41    1
    46    11    42    1
    47    14    43    1
    48    15    44    1
    49    19    45    1
    50    20    46    1
    51    21    47    1
    52    24    48    1
    53    28    49    1
    54    28    50    1
    55    29    51    1
    56    29    52    1
    57    30    53    1
    58    30    54    1
    59    31    55    1
    60    31    56    1
    61    32    57    1
    62    32    58    1
    63    35    59    1
    64    36    60    1
    65    37    61    1
