
     RDKit          3D

 61 65  0  0  0  0  0  0  0  0999 V2000
    6.3106   -0.6762   -2.8105 N   0  0  0  0  0  0  0  0  0  0  0  0
    4.9211   -0.7339   -2.4685 C   0  0  0  0  0  0  0  0  0  0  0  0
    4.0522   -1.2818   -3.3249 N   0  0  0  0  0  0  0  0  0  0  0  0
    2.7386   -1.3358   -3.0583 C   0  0  0  0  0  0  0  0  0  0  0  0
    2.3070   -0.8196   -1.8948 N   0  0  0  0  0  0  0  0  0  0  0  0
    3.1150   -0.2582   -0.9934 C   0  0  0  0  0  0  0  0  0  0  0  0
    4.4776   -0.2031   -1.2693 C   0  0  0  0  0  0  0  0  0  0  0  0
    5.1003    0.4184   -0.2123 C   0  0  0  0  0  0  0  0  0  0  0  0
    6.5074    0.7060   -0.0837 C   0  0  0  0  0  0  0  0  0  0  0  0
    7.5008   -0.2253   -0.2061 C   0  0  0  0  0  0  0  0  0  0  0  0
    8.8461    0.0945   -0.1044 C   0  0  0  0  0  0  0  0  0  0  0  0
    9.2195    1.4056    0.1317 C   0  0  0  0  0  0  0  0  0  0  0  0
   10.9120    1.8578    0.2681 Cl  0  0  0  0  0  0  0  0  0  0  0  0
    8.2216    2.3501    0.2572 C   0  0  0  0  0  0  0  0  0  0  0  0
    6.8852    2.0246    0.1544 C   0  0  0  0  0  0  0  0  0  0  0  0
    4.1008    0.7196    0.6625 N   0  0  0  0  0  0  0  0  0  0  0  0
    2.9488    0.3241    0.2042 N   0  0  0  0  0  0  0  0  0  0  0  0
    1.6619    0.4530    0.8205 C   0  0  0  0  0  0  0  0  0  0  0  0
    1.4864    1.5046    1.6911 C   0  0  0  0  0  0  0  0  0  0  0  0
    0.2661    1.6905    2.3239 C   0  0  0  0  0  0  0  0  0  0  0  0
   -0.7594    0.7927    2.0540 C   0  0  0  0  0  0  0  0  0  0  0  0
   -0.6251   -0.2567    1.2013 C   0  0  0  0  0  0  0  0  0  0  0  0
   -1.6407   -1.2381    0.8520 C   0  0  0  0  0  0  0  0  0  0  0  0
   -1.4103   -2.6358    0.8352 C   0  0  0  0  0  0  0  0  0  0  0  0
   -2.5264   -3.1960    0.4281 N   0  0  0  0  0  0  0  0  0  0  0  0
   -3.3904   -2.2597    0.2048 N   0  0  0  0  0  0  0  0  0  0  0  0
   -2.9000   -1.0472    0.4489 N   0  0  0  0  0  0  0  0  0  0  0  0
   -3.6371    0.1651    0.3186 C   0  0  0  0  0  0  0  0  0  0  0  0
   -4.5022    0.5216    1.4706 C   0  0  0  0  0  0  0  0  0  0  0  0
   -5.5681   -0.5130    1.7561 C   0  0  0  0  0  0  0  0  0  0  0  0
   -6.5022   -0.7369    0.6171 C   0  0  0  0  0  0  0  0  0  0  0  0
   -7.2594    0.4968    0.2013 C   0  0  0  0  0  0  0  0  0  0  0  0
   -8.1719    0.2105   -0.9355 C   0  0  0  0  0  0  0  0  0  0  0  0
   -8.2827   -0.9242   -1.4680 O   0  0  0  0  0  0  0  0  0  0  0  0
   -8.9626    1.2756   -1.4498 N   0  0  0  0  0  0  0  0  0  0  0  0
   -9.8091    1.0494   -2.4902 O   0  0  0  0  0  0  0  0  0  0  0  0
    0.6310   -0.3966    0.5892 C   0  0  0  0  0  0  0  0  0  0  0  0
    6.9138   -1.5291   -2.7765 H   0  0  0  0  0  0  0  0  0  0  0  0
    6.7752    0.2079   -3.1046 H   0  0  0  0  0  0  0  0  0  0  0  0
    2.0182   -1.7827   -3.7531 H   0  0  0  0  0  0  0  0  0  0  0  0
    7.2499   -1.2595   -0.3673 H   0  0  0  0  0  0  0  0  0  0  0  0
    9.6224   -0.6519   -0.2040 H   0  0  0  0  0  0  0  0  0  0  0  0
    8.5102    3.3838    0.4435 H   0  0  0  0  0  0  0  0  0  0  0  0
    6.1225    2.7698    0.2543 H   0  0  0  0  0  0  0  0  0  0  0  0
    2.2774    2.2153    1.9131 H   0  0  0  0  0  0  0  0  0  0  0  0
    0.1363    2.5181    3.0058 H   0  0  0  0  0  0  0  0  0  0  0  0
   -1.6693    0.9622    2.5585 H   0  0  0  0  0  0  0  0  0  0  0  0
   -0.4687   -3.0893    1.1169 H   0  0  0  0  0  0  0  0  0  0  0  0
   -4.2865    0.1371   -0.5988 H   0  0  0  0  0  0  0  0  0  0  0  0
   -2.9504    1.0290    0.1388 H   0  0  0  0  0  0  0  0  0  0  0  0
   -3.9037    0.5838    2.3915 H   0  0  0  0  0  0  0  0  0  0  0  0
   -4.9322    1.5312    1.3071 H   0  0  0  0  0  0  0  0  0  0  0  0
   -5.0870   -1.4551    2.0162 H   0  0  0  0  0  0  0  0  0  0  0  0
   -6.1302   -0.1611    2.6419 H   0  0  0  0  0  0  0  0  0  0  0  0
   -7.2569   -1.4822    0.9458 H   0  0  0  0  0  0  0  0  0  0  0  0
   -6.0166   -1.1696   -0.2794 H   0  0  0  0  0  0  0  0  0  0  0  0
   -7.8422    0.9502    0.9987 H   0  0  0  0  0  0  0  0  0  0  0  0
   -6.5350    1.2764   -0.1570 H   0  0  0  0  0  0  0  0  0  0  0  0
   -8.8936    2.2149   -1.0347 H   0  0  0  0  0  0  0  0  0  0  0  0
  -10.7059    0.8639   -2.0776 H   0  0  0  0  0  0  0  0  0  0  0  0
    0.7896   -1.2183   -0.0997 H   0  0  0  0  0  0  0  0  0  0  0  0
  1  2  1  0
  2  3  2  0
  3  4  1  0
  4  5  2  0
  5  6  1  0
  6  7  2  0
  7  8  1  0
  8  9  1  0
  9 10  2  0
 10 11  1  0
 11 12  2  0
 12 13  1  0
 12 14  1  0
 14 15  2  0
  8 16  2  0
 16 17  1  0
 17 18  1  0
 18 19  2  0
 19 20  1  0
 20 21  2  0
 21 22  1  0
 22 23  1  0
 23 24  2  0
 24 25  1  0
 25 26  2  0
 26 27  1  0
 27 28  1  0
 28 29  1  0
 29 30  1  0
 30 31  1  0
 31 32  1  0
 32 33  1  0
 33 34  2  0
 33 35  1  0
 35 36  1  0
 22 37  2  0
  7  2  1  0
 15  9  1  0
 37 18  1  0
 17  6  1  0
 27 23  1  0
  1 38  1  0
  1 39  1  0
  4 40  1  0
 10 41  1  0
 11 42  1  0
 14 43  1  0
 15 44  1  0
 19 45  1  0
 20 46  1  0
 21 47  1  0
 24 48  1  0
 28 49  1  0
 28 50  1  0
 29 51  1  0
 29 52  1  0
 30 53  1  0
 30 54  1  0
 31 55  1  0
 31 56  1  0
 32 57  1  0
 32 58  1  0
 35 59  1  0
 36 60  1  0
 37 61  1  0
M  END
$$$$
