@<TRIPOS>MOLECULE
*****
 58 60 0 0 0
SMALL
GASTEIGER

@<TRIPOS>ATOM
      1 C           8.6811    4.2185   -0.6946 C.3     1  UNL1       -0.0025
      2 C           8.4869    2.7508   -0.6940 C.1     1  UNL1       -0.1022
      3 C           8.3353    1.6279   -0.6734 C.1     1  UNL1       -0.0617
      4 C           8.1554    0.1405   -0.6531 C.3     1  UNL1        0.1499
      5 O           7.1733   -0.3793    0.0793 O.3     1  UNL1       -0.4780
      6 C           5.8248   -0.4309    0.0628 C.ar    1  UNL1        0.1399
      7 C           5.0542    0.1259   -0.9214 C.ar    1  UNL1       -0.0162
      8 C           3.6497    0.0480   -0.9262 C.ar    1  UNL1       -0.0277
      9 C           3.0862   -0.6242    0.1229 C.ar    1  UNL1        0.1259
     10 C           1.6483   -0.8291    0.2025 C.2     1  UNL1        0.2666
     11 O           0.9732   -0.5429   -0.8101 O.2     1  UNL1       -0.2682
     12 N           1.0401   -1.3301    1.3640 N.am    1  UNL1       -0.2802
     13 C          -0.3126   -1.6217    1.5964 C.ar    1  UNL1        0.0343
     14 C          -0.6603   -2.1957    2.7950 C.ar    1  UNL1       -0.0377
     15 C          -1.9629   -2.5431    3.0431 C.ar    1  UNL1       -0.0243
     16 C          -2.9619   -2.3356    2.1228 C.ar    1  UNL1        0.1311
     17 F          -4.2440   -2.6646    2.3216 F       1  UNL1       -0.2050
     18 C          -2.6438   -1.7554    0.9002 C.ar    1  UNL1        0.0420
     19 C          -3.6695   -1.5482   -0.1365 C.3     1  UNL1        0.1959
     20 C          -4.2281   -2.9337   -0.5529 C.3     1  UNL1       -0.0112
     21 C          -3.0299   -0.8928   -1.3488 C.3     1  UNL1        0.1183
     22 S          -2.9518    0.8519   -1.0363 S.O2    1  UNL1       -0.0101
     23 O          -2.2805    1.1461    0.2605 O.2     1  UNL1       -0.1731
     24 O          -2.2788    1.5652   -2.1788 O.2     1  UNL1       -0.1731
     25 C          -4.6502    1.3601   -0.8322 C.3     1  UNL1        0.1831
     26 C          -5.3277    1.3141   -2.1654 C.3     1  UNL1       -0.0288
     27 C          -4.7364    2.7334   -0.2245 C.3     1  UNL1       -0.0288
     28 C          -5.2359    0.3448    0.1177 C.2     1  UNL1        0.3067
     29 N          -6.4033    0.8236    0.8058 N.pl3   1  UNL1       -0.2488
     30 N          -4.7610   -0.7591    0.3044 N.2     1  UNL1       -0.0727
     31 C          -1.3182   -1.4169    0.6825 C.ar    1  UNL1       -0.0301
     32 N           3.8417   -1.1645    1.0922 N.ar    1  UNL1       -0.2467
     33 C           5.1764   -1.0981    1.1070 C.ar    1  UNL1        0.0701
     34 H           9.7195    4.4940   -0.8573 H       1  UNL1        0.0362
     35 H           8.2573    4.6562    0.2417 H       1  UNL1        0.0362
     36 H           8.0656    4.6760   -1.5191 H       1  UNL1        0.0362
     37 H           9.1689   -0.2590   -0.3130 H       1  UNL1        0.0837
     38 H           8.0318   -0.1982   -1.7405 H       1  UNL1        0.0837
     39 H           5.5624    0.6505   -1.7205 H       1  UNL1        0.0655
     40 H           3.0930    0.5033   -1.7371 H       1  UNL1        0.0641
     41 H           1.7500   -1.4742    2.1781 H       1  UNL1        0.1552
     42 H           0.1047   -2.3809    3.5499 H       1  UNL1        0.0637
     43 H          -2.2081   -2.9866    3.9872 H       1  UNL1        0.0647
     44 H          -4.2451   -3.6355    0.3026 H       1  UNL1        0.0279
     45 H          -3.6457   -3.3380   -1.3732 H       1  UNL1        0.0279
     46 H          -5.2900   -2.7931   -0.8749 H       1  UNL1        0.0279
     47 H          -3.7825   -1.0599   -2.1931 H       1  UNL1        0.0550
     48 H          -2.0821   -1.3540   -1.6322 H       1  UNL1        0.0550
     49 H          -5.0465    0.3804   -2.6973 H       1  UNL1        0.0256
     50 H          -5.1670    2.2077   -2.7957 H       1  UNL1        0.0256
     51 H          -6.4530    1.2357   -1.9901 H       1  UNL1        0.0256
     52 H          -4.1721    3.4316   -0.8457 H       1  UNL1        0.0256
     53 H          -5.8141    3.0210   -0.2751 H       1  UNL1        0.0256
     54 H          -4.4562    2.7577    0.8523 H       1  UNL1        0.0256
     55 H          -6.5032    0.6308    1.8052 H       1  UNL1        0.2881
     56 H          -7.1323    1.3624    0.3005 H       1  UNL1        0.2881
     57 H          -1.0209   -0.9684   -0.2535 H       1  UNL1        0.0641
     58 H           5.7956   -1.5443    1.9070 H       1  UNL1        0.0867
@<TRIPOS>BOND
     1     1     2    1
     2     2     3    3
     3     3     4    1
     4     4     5    1
     5     5     6    1
     6     6     7   ar
     7     7     8   ar
     8     8     9   ar
     9     9    10    1
    10    10    11    2
    11    10    12   am
    12    12    13    1
    13    13    14   ar
    14    14    15   ar
    15    15    16   ar
    16    16    17    1
    17    16    18   ar
    18    18    19    1
    19    19    20    1
    20    19    21    1
    21    21    22    1
    22    22    23    2
    23    22    24    2
    24    22    25    1
    25    25    26    1
    26    25    27    1
    27    25    28    1
    28    28    29    1
    29    28    30    2
    30    18    31   ar
    31     9    32   ar
    32    32    33   ar
    33    33     6   ar
    34    31    13   ar
    35    30    19    1
    36     1    34    1
    37     1    35    1
    38     1    36    1
    39     4    37    1
    40     4    38    1
    41     7    39    1
    42     8    40    1
    43    12    41    1
    44    14    42    1
    45    15    43    1
    46    20    44    1
    47    20    45    1
    48    20    46    1
    49    21    47    1
    50    21    48    1
    51    26    49    1
    52    26    50    1
    53    26    51    1
    54    27    52    1
    55    27    53    1
    56    27    54    1
    57    29    55    1
    58    29    56    1
    59    31    57    1
    60    33    58    1
