
     RDKit          3D

 58 60  0  0  0  0  0  0  0  0999 V2000
    8.6811    4.2185   -0.6946 C   0  0  0  0  0  0  0  0  0  0  0  0
    8.4869    2.7508   -0.6940 C   0  0  0  0  0  0  0  0  0  0  0  0
    8.3353    1.6279   -0.6734 C   0  0  0  0  0  0  0  0  0  0  0  0
    8.1554    0.1405   -0.6531 C   0  0  0  0  0  0  0  0  0  0  0  0
    7.1733   -0.3793    0.0793 O   0  0  0  0  0  0  0  0  0  0  0  0
    5.8248   -0.4309    0.0628 C   0  0  0  0  0  0  0  0  0  0  0  0
    5.0542    0.1259   -0.9214 C   0  0  0  0  0  0  0  0  0  0  0  0
    3.6497    0.0480   -0.9262 C   0  0  0  0  0  0  0  0  0  0  0  0
    3.0862   -0.6242    0.1229 C   0  0  0  0  0  0  0  0  0  0  0  0
    1.6483   -0.8291    0.2025 C   0  0  0  0  0  0  0  0  0  0  0  0
    0.9732   -0.5429   -0.8101 O   0  0  0  0  0  0  0  0  0  0  0  0
    1.0401   -1.3301    1.3640 N   0  0  0  0  0  0  0  0  0  0  0  0
   -0.3126   -1.6217    1.5964 C   0  0  0  0  0  0  0  0  0  0  0  0
   -0.6603   -2.1957    2.7950 C   0  0  0  0  0  0  0  0  0  0  0  0
   -1.9629   -2.5431    3.0431 C   0  0  0  0  0  0  0  0  0  0  0  0
   -2.9619   -2.3356    2.1228 C   0  0  0  0  0  0  0  0  0  0  0  0
   -4.2440   -2.6646    2.3216 F   0  0  0  0  0  0  0  0  0  0  0  0
   -2.6438   -1.7554    0.9002 C   0  0  0  0  0  0  0  0  0  0  0  0
   -3.6695   -1.5482   -0.1365 C   0  0  2  0  0  0  0  0  0  0  0  0
   -4.2281   -2.9337   -0.5529 C   0  0  0  0  0  0  0  0  0  0  0  0
   -3.0299   -0.8928   -1.3488 C   0  0  0  0  0  0  0  0  0  0  0  0
   -2.9518    0.8519   -1.0363 S   0  0  0  0  0  6  0  0  0  0  0  0
   -2.2805    1.1461    0.2605 O   0  0  0  0  0  0  0  0  0  0  0  0
   -2.2788    1.5652   -2.1788 O   0  0  0  0  0  0  0  0  0  0  0  0
   -4.6502    1.3601   -0.8322 C   0  0  0  0  0  0  0  0  0  0  0  0
   -5.3277    1.3141   -2.1654 C   0  0  0  0  0  0  0  0  0  0  0  0
   -4.7364    2.7334   -0.2245 C   0  0  0  0  0  0  0  0  0  0  0  0
   -5.2359    0.3448    0.1177 C   0  0  0  0  0  0  0  0  0  0  0  0
   -6.4033    0.8236    0.8058 N   0  0  0  0  0  0  0  0  0  0  0  0
   -4.7610   -0.7591    0.3044 N   0  0  0  0  0  0  0  0  0  0  0  0
   -1.3182   -1.4169    0.6825 C   0  0  0  0  0  0  0  0  0  0  0  0
    3.8417   -1.1645    1.0922 N   0  0  0  0  0  0  0  0  0  0  0  0
    5.1764   -1.0981    1.1070 C   0  0  0  0  0  0  0  0  0  0  0  0
    9.7195    4.4940   -0.8573 H   0  0  0  0  0  0  0  0  0  0  0  0
    8.2573    4.6562    0.2417 H   0  0  0  0  0  0  0  0  0  0  0  0
    8.0656    4.6760   -1.5191 H   0  0  0  0  0  0  0  0  0  0  0  0
    9.1689   -0.2590   -0.3130 H   0  0  0  0  0  0  0  0  0  0  0  0
    8.0318   -0.1982   -1.7405 H   0  0  0  0  0  0  0  0  0  0  0  0
    5.5624    0.6505   -1.7205 H   0  0  0  0  0  0  0  0  0  0  0  0
    3.0930    0.5033   -1.7371 H   0  0  0  0  0  0  0  0  0  0  0  0
    1.7500   -1.4742    2.1781 H   0  0  0  0  0  0  0  0  0  0  0  0
    0.1047   -2.3809    3.5499 H   0  0  0  0  0  0  0  0  0  0  0  0
   -2.2081   -2.9866    3.9872 H   0  0  0  0  0  0  0  0  0  0  0  0
   -4.2451   -3.6355    0.3026 H   0  0  0  0  0  0  0  0  0  0  0  0
   -3.6457   -3.3380   -1.3732 H   0  0  0  0  0  0  0  0  0  0  0  0
   -5.2900   -2.7931   -0.8749 H   0  0  0  0  0  0  0  0  0  0  0  0
   -3.7825   -1.0599   -2.1931 H   0  0  0  0  0  0  0  0  0  0  0  0
   -2.0821   -1.3540   -1.6322 H   0  0  0  0  0  0  0  0  0  0  0  0
   -5.0465    0.3804   -2.6973 H   0  0  0  0  0  0  0  0  0  0  0  0
   -5.1670    2.2077   -2.7957 H   0  0  0  0  0  0  0  0  0  0  0  0
   -6.4530    1.2357   -1.9901 H   0  0  0  0  0  0  0  0  0  0  0  0
   -4.1721    3.4316   -0.8457 H   0  0  0  0  0  0  0  0  0  0  0  0
   -5.8141    3.0210   -0.2751 H   0  0  0  0  0  0  0  0  0  0  0  0
   -4.4562    2.7577    0.8523 H   0  0  0  0  0  0  0  0  0  0  0  0
   -6.5032    0.6308    1.8052 H   0  0  0  0  0  0  0  0  0  0  0  0
   -7.1323    1.3624    0.3005 H   0  0  0  0  0  0  0  0  0  0  0  0
   -1.0209   -0.9684   -0.2535 H   0  0  0  0  0  0  0  0  0  0  0  0
    5.7956   -1.5443    1.9070 H   0  0  0  0  0  0  0  0  0  0  0  0
  1  2  1  0
  2  3  3  0
  3  4  1  0
  4  5  1  0
  5  6  1  0
  6  7  2  0
  7  8  1  0
  8  9  2  0
  9 10  1  0
 10 11  2  0
 10 12  1  0
 12 13  1  0
 13 14  2  0
 14 15  1  0
 15 16  2  0
 16 17  1  0
 16 18  1  0
 18 19  1  0
 19 20  1  6
 19 21  1  0
 21 22  1  0
 22 23  2  0
 22 24  2  0
 22 25  1  0
 25 26  1  0
 25 27  1  0
 25 28  1  0
 28 29  1  0
 28 30  2  0
 18 31  2  0
  9 32  1  0
 32 33  2  0
 33  6  1  0
 31 13  1  0
 30 19  1  0
  1 34  1  0
  1 35  1  0
  1 36  1  0
  4 37  1  0
  4 38  1  0
  7 39  1  0
  8 40  1  0
 12 41  1  0
 14 42  1  0
 15 43  1  0
 20 44  1  0
 20 45  1  0
 20 46  1  0
 21 47  1  0
 21 48  1  0
 26 49  1  0
 26 50  1  0
 26 51  1  0
 27 52  1  0
 27 53  1  0
 27 54  1  0
 29 55  1  0
 29 56  1  0
 31 57  1  0
 33 58  1  0
M  END
$$$$
