@<TRIPOS>MOLECULE
*****
 66 69 0 0 0
SMALL
GASTEIGER

@<TRIPOS>ATOM
      1 C           0.1101   -3.3834   -1.8079 C.3     1  UNL1       -0.0421
      2 C           0.2527   -2.6321   -0.5156 C.3     1  UNL1        0.0515
      3 C           1.5394   -1.9128   -0.3975 C.ar    1  UNL1       -0.0271
      4 C           1.7822   -1.1043    0.6935 C.ar    1  UNL1       -0.0562
      5 C           2.9820   -0.4114    0.8386 C.ar    1  UNL1       -0.0523
      6 C           3.9638   -0.5238   -0.1218 C.ar    1  UNL1        0.0004
      7 C           5.2065    0.2156    0.0636 C.ar    1  UNL1        0.0710
      8 C           6.2597    0.1856   -0.8223 C.ar    1  UNL1       -0.0350
      9 C           7.4367    0.8960   -0.6302 C.ar    1  UNL1       -0.0462
     10 C           7.5864    1.6792    0.4950 C.ar    1  UNL1        0.0546
     11 C           8.8010    2.4435    0.7430 C.2     1  UNL1        0.2430
     12 N           9.8714    2.3973   -0.1794 N.am    1  UNL1       -0.3253
     13 O           8.8993    3.1437    1.7752 O.2     1  UNL1       -0.2704
     14 C           6.5161    1.6986    1.3775 C.ar    1  UNL1        0.0403
     15 N           5.3918    0.9968    1.1572 N.ar    1  UNL1       -0.2542
     16 C           3.7243   -1.3261   -1.2054 C.ar    1  UNL1       -0.0523
     17 C           2.5238   -2.0218   -1.3546 C.ar    1  UNL1       -0.0562
     18 N          -0.8916   -1.8154   -0.2117 N.am    1  UNL1       -0.2605
     19 C          -1.7792   -2.0551    0.9409 C.3     1  UNL1        0.0224
     20 C          -2.1361   -0.7254    1.5116 C.3     1  UNL1        0.0076
     21 C          -3.0584    0.0464    0.5378 C.3     1  UNL1        0.1440
     22 C          -3.1314    1.4186    1.1295 C.3     1  UNL1        0.0199
     23 C          -3.9395    2.4421    0.4468 C.3     1  UNL1        0.0645
     24 C          -3.5118    2.7633   -0.9622 C.3     1  UNL1       -0.0362
     25 C          -3.6882    3.7630    1.2226 C.3     1  UNL1       -0.0362
     26 O          -5.3189    2.2563    0.5705 O.3     1  UNL1       -0.3890
     27 C          -4.3645   -0.6601    0.4763 C.ar    1  UNL1       -0.0040
     28 C          -5.3012   -0.4122   -0.5028 C.ar    1  UNL1       -0.0548
     29 C          -6.5203   -1.0372   -0.5660 C.ar    1  UNL1       -0.0614
     30 C          -6.8654   -1.9611    0.3698 C.ar    1  UNL1       -0.0617
     31 C          -5.9649   -2.2453    1.3688 C.ar    1  UNL1       -0.0614
     32 C          -4.7426   -1.6111    1.4231 C.ar    1  UNL1       -0.0548
     33 O          -2.4554   -0.0027   -0.7285 O.3     1  UNL1       -0.4387
     34 C          -1.2669   -0.6960   -1.0058 C.2     1  UNL1        0.4042
     35 O          -0.5457   -0.3232   -1.9509 O.2     1  UNL1       -0.2262
     36 H           0.3562   -2.8127   -2.6973 H       1  UNL1        0.0251
     37 H           0.6999   -4.3235   -1.8259 H       1  UNL1        0.0251
     38 H          -0.9608   -3.7064   -1.8775 H       1  UNL1        0.0251
     39 H           0.2815   -3.4279    0.2896 H       1  UNL1        0.0549
     40 H           1.0343   -0.9895    1.4721 H       1  UNL1        0.0621
     41 H           3.1679    0.2278    1.7059 H       1  UNL1        0.0624
     42 H           6.1704   -0.4225   -1.7175 H       1  UNL1        0.0639
     43 H           8.2543    0.8595   -1.3388 H       1  UNL1        0.0626
     44 H           9.7533    2.7301   -1.1826 H       1  UNL1        0.1453
     45 H          10.8291    2.0461    0.0410 H       1  UNL1        0.1453
     46 H           6.6366    2.3184    2.2663 H       1  UNL1        0.0837
     47 H           4.4577   -1.4515   -1.9887 H       1  UNL1        0.0624
     48 H           2.3286   -2.6522   -2.2004 H       1  UNL1        0.0621
     49 H          -1.3149   -2.6953    1.6890 H       1  UNL1        0.0467
     50 H          -2.6647   -2.5749    0.4704 H       1  UNL1        0.0467
     51 H          -2.4871   -0.7049    2.5344 H       1  UNL1        0.0322
     52 H          -1.1918   -0.0974    1.5047 H       1  UNL1        0.0322
     53 H          -3.4157    1.3534    2.2207 H       1  UNL1        0.0335
     54 H          -2.0664    1.7926    1.1757 H       1  UNL1        0.0335
     55 H          -2.5826    3.4030   -0.8767 H       1  UNL1        0.0257
     56 H          -3.3657    1.9180   -1.6239 H       1  UNL1        0.0257
     57 H          -4.2799    3.4884   -1.3486 H       1  UNL1        0.0257
     58 H          -3.9608    3.6218    2.2691 H       1  UNL1        0.0257
     59 H          -4.3970    4.5172    0.7974 H       1  UNL1        0.0257
     60 H          -2.6749    4.1248    1.0379 H       1  UNL1        0.0257
     61 H          -5.5569    1.7679    1.3868 H       1  UNL1        0.2101
     62 H          -5.0545    0.3123   -1.2761 H       1  UNL1        0.0622
     63 H          -7.2013   -0.7947   -1.3565 H       1  UNL1        0.0618
     64 H          -7.8429   -2.4605    0.3167 H       1  UNL1        0.0618
     65 H          -6.2445   -2.9775    2.1055 H       1  UNL1        0.0618
     66 H          -4.0723   -1.8755    2.2416 H       1  UNL1        0.0622
@<TRIPOS>BOND
     1     1     2    1
     2     2     3    1
     3     3     4   ar
     4     4     5   ar
     5     5     6   ar
     6     6     7    1
     7     7     8   ar
     8     8     9   ar
     9     9    10   ar
    10    10    11    1
    11    11    12   am
    12    11    13    2
    13    10    14   ar
    14    14    15   ar
    15     6    16   ar
    16    16    17   ar
    17     2    18    1
    18    18    19    1
    19    19    20    1
    20    20    21    1
    21    21    22    1
    22    22    23    1
    23    23    24    1
    24    23    25    1
    25    23    26    1
    26    21    27    1
    27    27    28   ar
    28    28    29   ar
    29    29    30   ar
    30    30    31   ar
    31    31    32   ar
    32    21    33    1
    33    33    34    1
    34    34    35    2
    35    17     3   ar
    36    34    18   am
    37    15     7   ar
    38    32    27   ar
    39     1    36    1
    40     1    37    1
    41     1    38    1
    42     2    39    1
    43     4    40    1
    44     5    41    1
    45     8    42    1
    46     9    43    1
    47    12    44    1
    48    12    45    1
    49    14    46    1
    50    16    47    1
    51    17    48    1
    52    19    49    1
    53    19    50    1
    54    20    51    1
    55    20    52    1
    56    22    53    1
    57    22    54    1
    58    24    55    1
    59    24    56    1
    60    24    57    1
    61    25    58    1
    62    25    59    1
    63    25    60    1
    64    26    61    1
    65    28    62    1
    66    29    63    1
    67    30    64    1
    68    31    65    1
    69    32    66    1
