@<TRIPOS>MOLECULE
*****
 70 72 0 0 0
SMALL
GASTEIGER

@<TRIPOS>ATOM
      1 C          -0.8871   -2.2020   -1.0598 C.3     1  UNL1       -0.0615
      2 C          -1.7960   -1.8466    0.0917 C.3     1  UNL1       -0.0323
      3 C          -1.4540   -2.8444    1.2055 C.3     1  UNL1       -0.0615
      4 C          -1.5282   -0.4254    0.6094 C.3     1  UNL1        0.0229
      5 N          -1.7059    0.5867   -0.3264 N.3     1  UNL1       -0.1738
      6 C          -0.6561    1.0749   -1.1101 C.3     1  UNL1        0.0483
      7 C           0.1142    2.2464   -0.6133 C.3     1  UNL1        0.0882
      8 O          -0.7862    3.2901   -0.4293 O.3     1  UNL1       -0.3886
      9 C           0.9617    1.9552    0.5575 C.3     1  UNL1        0.0573
     10 C           1.8246    3.1564    0.9598 C.3     1  UNL1       -0.0066
     11 C           2.7350    3.5911   -0.1008 C.ar    1  UNL1       -0.0455
     12 C           4.0235    3.0639   -0.2123 C.ar    1  UNL1       -0.0585
     13 C           4.9023    3.4511   -1.1954 C.ar    1  UNL1       -0.0615
     14 C           4.4874    4.4054   -2.1123 C.ar    1  UNL1       -0.0617
     15 C           3.2117    4.9197   -1.9922 C.ar    1  UNL1       -0.0615
     16 C           2.3212    4.5398   -1.0112 C.ar    1  UNL1       -0.0585
     17 N           1.9039    0.8846    0.3254 N.am    1  UNL1       -0.2754
     18 C           2.2682   -0.0986    1.2749 C.2     1  UNL1        0.4009
     19 O           1.7533   -0.0564    2.4106 O.2     1  UNL1       -0.2265
     20 O           3.1868   -1.1163    0.9813 O.3     1  UNL1       -0.4447
     21 C           3.4877   -2.0476    1.9830 C.3     1  UNL1        0.1299
     22 C           3.2296   -3.4740    1.5389 C.3     1  UNL1        0.0101
     23 C           4.4753   -4.1860    1.9780 C.3     1  UNL1        0.0513
     24 O           5.0938   -3.3453    2.9026 O.3     1  UNL1       -0.3760
     25 C           4.9571   -2.0789    2.3311 C.3     1  UNL1        0.0848
     26 S          -3.2017    1.3359   -0.4793 S.O2    1  UNL1        0.0609
     27 O          -3.0876    2.3876   -1.5731 O.2     1  UNL1       -0.1528
     28 O          -3.6845    2.0075    0.7743 O.2     1  UNL1       -0.1528
     29 C          -4.4216    0.1775   -0.9430 C.ar    1  UNL1        0.1056
     30 C          -4.6363   -0.2096   -2.2447 C.ar    1  UNL1       -0.0336
     31 C          -5.6295   -1.1219   -2.5659 C.ar    1  UNL1       -0.0392
     32 C          -6.4466   -1.6846   -1.6140 C.ar    1  UNL1        0.0247
     33 N          -7.4535   -2.6148   -1.9782 N.pl3   1  UNL1       -0.3580
     34 C          -6.2422   -1.3036   -0.2947 C.ar    1  UNL1       -0.0392
     35 C          -5.2556   -0.3975    0.0244 C.ar    1  UNL1       -0.0336
     36 H          -1.1777   -1.7206   -2.0111 H       1  UNL1        0.0233
     37 H          -1.0204   -3.3149   -1.2005 H       1  UNL1        0.0233
     38 H           0.1461   -2.0442   -0.7436 H       1  UNL1        0.0233
     39 H          -2.8631   -1.9574   -0.1677 H       1  UNL1        0.0308
     40 H          -2.3694   -3.0027    1.8124 H       1  UNL1        0.0233
     41 H          -1.0992   -3.7850    0.7447 H       1  UNL1        0.0233
     42 H          -0.6386   -2.3656    1.7915 H       1  UNL1        0.0233
     43 H          -2.2970   -0.2737    1.4333 H       1  UNL1        0.0446
     44 H          -0.5767   -0.4857    1.1281 H       1  UNL1        0.0446
     45 H          -1.0991    1.3899   -2.1038 H       1  UNL1        0.0470
     46 H           0.0297    0.2388   -1.3974 H       1  UNL1        0.0470
     47 H           0.8175    2.6335   -1.4224 H       1  UNL1        0.0625
     48 H          -1.0170    3.4643    0.4970 H       1  UNL1        0.2099
     49 H           0.3857    1.7262    1.4740 H       1  UNL1        0.0528
     50 H           2.4247    2.8082    1.8270 H       1  UNL1        0.0332
     51 H           1.1988    3.9864    1.3324 H       1  UNL1        0.0332
     52 H           4.3681    2.3186    0.4922 H       1  UNL1        0.0620
     53 H           5.8985    3.0467   -1.2859 H       1  UNL1        0.0618
     54 H           5.1656    4.7197   -2.8898 H       1  UNL1        0.0618
     55 H           2.8777    5.6710   -2.7110 H       1  UNL1        0.0618
     56 H           1.3257    4.9873   -0.9734 H       1  UNL1        0.0620
     57 H           2.3662    0.8144   -0.6181 H       1  UNL1        0.1524
     58 H           2.9249   -1.8206    2.8965 H       1  UNL1        0.0758
     59 H           2.3121   -3.8439    2.0419 H       1  UNL1        0.0324
     60 H           3.0643   -3.4917    0.4442 H       1  UNL1        0.0324
     61 H           5.1822   -4.3318    1.1409 H       1  UNL1        0.0561
     62 H           4.2041   -5.1284    2.4796 H       1  UNL1        0.0561
     63 H           5.5735   -2.0114    1.4234 H       1  UNL1        0.0597
     64 H           5.2499   -1.2854    3.0482 H       1  UNL1        0.0597
     65 H          -4.0132    0.2103   -3.0213 H       1  UNL1        0.0638
     66 H          -5.7672   -1.4034   -3.6068 H       1  UNL1        0.0636
     67 H          -7.8345   -3.2952   -1.2916 H       1  UNL1        0.1423
     68 H          -7.8181   -2.6216   -2.9381 H       1  UNL1        0.1423
     69 H          -6.8904   -1.7513    0.4465 H       1  UNL1        0.0636
     70 H          -5.0984   -0.1011    1.0592 H       1  UNL1        0.0638
@<TRIPOS>BOND
     1     1     2    1
     2     2     3    1
     3     2     4    1
     4     4     5    1
     5     5     6    1
     6     6     7    1
     7     7     8    1
     8     7     9    1
     9     9    10    1
    10    10    11    1
    11    11    12   ar
    12    12    13   ar
    13    13    14   ar
    14    14    15   ar
    15    15    16   ar
    16     9    17    1
    17    17    18   am
    18    18    19    2
    19    18    20    1
    20    20    21    1
    21    21    22    1
    22    22    23    1
    23    23    24    1
    24    24    25    1
    25     5    26    1
    26    26    27    2
    27    26    28    2
    28    26    29    1
    29    29    30   ar
    30    30    31   ar
    31    31    32   ar
    32    32    33    1
    33    32    34   ar
    34    34    35   ar
    35    16    11   ar
    36    25    21    1
    37    35    29   ar
    38     1    36    1
    39     1    37    1
    40     1    38    1
    41     2    39    1
    42     3    40    1
    43     3    41    1
    44     3    42    1
    45     4    43    1
    46     4    44    1
    47     6    45    1
    48     6    46    1
    49     7    47    1
    50     8    48    1
    51     9    49    1
    52    10    50    1
    53    10    51    1
    54    12    52    1
    55    13    53    1
    56    14    54    1
    57    15    55    1
    58    16    56    1
    59    17    57    1
    60    21    58    1
    61    22    59    1
    62    22    60    1
    63    23    61    1
    64    23    62    1
    65    25    63    1
    66    25    64    1
    67    30    65    1
    68    31    66    1
    69    33    67    1
    70    33    68    1
    71    34    69    1
    72    35    70    1
