@<TRIPOS>MOLECULE
*****
 23 23 0 0 0
SMALL
GASTEIGER

@<TRIPOS>ATOM
      1 N          -2.6903    1.5749    0.6302 N.3     1  UNL1       -0.3170
      2 CA         -1.5156    0.9470    0.0606 C.3     1  UNL1        0.1214
      3 C          -0.5029    0.5816    1.1168 C.3     1  UNL1        0.0532
      4 N           0.6752   -0.0477    0.5628 N.ar    1  UNL1       -0.2957
      5 C           0.8068   -1.3933    0.3996 C.ar    1  UNL1        0.0500
      6 C           1.9548   -1.9607   -0.1337 C.ar    1  UNL1        0.2035
      7 F           2.0285   -3.2937   -0.2714 F       1  UNL1       -0.1983
      8 C           2.9580   -1.1140   -0.4926 C.ar    1  UNL1        0.2894
      9 O           4.0333   -1.5648   -0.9857 O.2     1  UNL1       -0.2646
     10 N           2.8687    0.2208   -0.3482 N.ar    1  UNL1       -0.2726
     11 C           1.7321    0.7229    0.1750 C.ar    1  UNL1        0.3295
     12 O           1.6333    1.9653    0.3162 O.2     1  UNL1       -0.2465
     13 C          -1.8319   -0.1477   -0.8756 C.2     1  UNL1        0.3235
     14 O          -3.1830   -0.4284   -1.0621 O.3     1  UNL1       -0.4795
     15 OXT        -1.0692   -0.9076   -1.5668 O.2     1  UNL1       -0.2492
     16 H1         -3.4326    1.6406   -0.0774 H       1  UNL1        0.1190
     17 H2         -2.4789    2.5289    0.9604 H       1  UNL1        0.1190
     18 HA         -1.0044    1.7334   -0.5699 H       1  UNL1        0.0592
     19 H          -0.1619    1.5241    1.5919 H       1  UNL1        0.0514
     20 H          -0.9362   -0.0973    1.8912 H       1  UNL1        0.0514
     21 H          -0.0319   -2.0376    0.7064 H       1  UNL1        0.0841
     22 H           3.6443    0.8693   -0.6261 H       1  UNL1        0.1735
     23 H          -3.4964   -1.3161   -1.4016 H       1  UNL1        0.2951
@<TRIPOS>BOND
     1     1     2    1
     2     2     3    1
     3     3     4    1
     4     4     5   ar
     5     5     6   ar
     6     6     7    1
     7     6     8   ar
     8     8     9    2
     9     8    10   ar
    10    10    11   ar
    11    11    12    2
    12     2    13    1
    13    13    14    1
    14    13    15    2
    15    11     4   ar
    16     1    16    1
    17     1    17    1
    18     2    18    1
    19     3    19    1
    20     3    20    1
    21     5    21    1
    22    10    22    1
    23    14    23    1
