
     RDKit          3D

 23 23  0  0  0  0  0  0  0  0999 V2000
   -2.6903    1.5749    0.6302 N   0  0  0  0  0  0  0  0  0  0  0  0
   -1.5156    0.9470    0.0606 C   0  0  1  0  0  0  0  0  0  0  0  0
   -0.5029    0.5816    1.1168 C   0  0  0  0  0  0  0  0  0  0  0  0
    0.6752   -0.0477    0.5628 N   0  0  0  0  0  0  0  0  0  0  0  0
    0.8068   -1.3933    0.3996 C   0  0  0  0  0  0  0  0  0  0  0  0
    1.9548   -1.9607   -0.1337 C   0  0  0  0  0  0  0  0  0  0  0  0
    2.0285   -3.2937   -0.2714 F   0  0  0  0  0  0  0  0  0  0  0  0
    2.9580   -1.1140   -0.4926 C   0  0  0  0  0  0  0  0  0  0  0  0
    4.0333   -1.5648   -0.9857 O   0  0  0  0  0  0  0  0  0  0  0  0
    2.8687    0.2208   -0.3482 N   0  0  0  0  0  0  0  0  0  0  0  0
    1.7321    0.7229    0.1750 C   0  0  0  0  0  0  0  0  0  0  0  0
    1.6333    1.9653    0.3162 O   0  0  0  0  0  0  0  0  0  0  0  0
   -1.8319   -0.1477   -0.8756 C   0  0  0  0  0  0  0  0  0  0  0  0
   -3.1830   -0.4284   -1.0621 O   0  0  0  0  0  0  0  0  0  0  0  0
   -1.0692   -0.9076   -1.5668 O   0  0  0  0  0  0  0  0  0  0  0  0
   -3.4326    1.6406   -0.0774 H   0  0  0  0  0  0  0  0  0  0  0  0
   -2.4789    2.5289    0.9604 H   0  0  0  0  0  0  0  0  0  0  0  0
   -1.0044    1.7334   -0.5699 H   0  0  0  0  0  0  0  0  0  0  0  0
   -0.1619    1.5241    1.5919 H   0  0  0  0  0  0  0  0  0  0  0  0
   -0.9362   -0.0973    1.8912 H   0  0  0  0  0  0  0  0  0  0  0  0
   -0.0319   -2.0376    0.7064 H   0  0  0  0  0  0  0  0  0  0  0  0
    3.6443    0.8693   -0.6261 H   0  0  0  0  0  0  0  0  0  0  0  0
   -3.4964   -1.3161   -1.4016 H   0  0  0  0  0  0  0  0  0  0  0  0
  1  2  1  0
  2  3  1  0
  3  4  1  0
  4  5  1  0
  5  6  2  0
  6  7  1  0
  6  8  1  0
  8  9  2  0
  8 10  1  0
 10 11  1  0
 11 12  2  0
  2 13  1  0
 13 14  1  0
 13 15  2  0
 11  4  1  0
  1 16  1  0
  1 17  1  0
  2 18  1  6
  3 19  1  0
  3 20  1  0
  5 21  1  0
 10 22  1  0
 14 23  1  0
M  END
$$$$
