@<TRIPOS>MOLECULE
*****
 54 56 0 0 0
SMALL
GASTEIGER

@<TRIPOS>ATOM
      1 C           7.3337   -0.6898    1.7887 C.3     1  UNL1       -0.0524
      2 C           7.4024   -0.9811    0.2995 C.3     1  UNL1       -0.0042
      3 N           6.7480    0.0596   -0.4713 N.3     1  UNL1       -0.3053
      4 C           6.8752   -0.3247   -1.8745 C.3     1  UNL1       -0.0128
      5 C           5.3578    0.0792   -0.1143 C.3     1  UNL1        0.0026
      6 C           4.5876    1.1360   -0.8710 C.3     1  UNL1       -0.0149
      7 C           3.1792    1.0787   -0.4392 C.ar    1  UNL1       -0.0459
      8 C           2.2450    0.2839   -1.0591 C.ar    1  UNL1       -0.0551
      9 C           0.9209    0.2658   -0.6110 C.ar    1  UNL1       -0.0197
     10 C           0.4955    1.0226    0.4457 C.ar    1  UNL1        0.1216
     11 O          -0.7826    1.0572    0.9405 O.3     1  UNL1       -0.4807
     12 C          -1.8265    0.3041    0.4085 C.3     1  UNL1        0.1661
     13 C          -2.6054   -0.4286    1.4925 C.3     1  UNL1        0.0177
     14 C          -4.0122   -0.4134    1.0085 C.ar    1  UNL1       -0.0292
     15 C          -5.1059   -1.1810    1.3073 C.ar    1  UNL1       -0.0123
     16 C          -6.3372   -0.9754    0.7162 C.ar    1  UNL1        0.1618
     17 O          -7.4431   -1.7554    1.0216 O.3     1  UNL1       -0.4914
     18 C          -7.3674   -2.8072    1.9587 C.3     1  UNL1        0.0790
     19 C          -6.4710    0.0466   -0.2150 C.ar    1  UNL1        0.1622
     20 O          -7.7023    0.2648   -0.8172 O.3     1  UNL1       -0.4914
     21 C          -7.8206    1.3104   -1.7642 C.3     1  UNL1        0.0790
     22 C          -5.3665    0.8158   -0.5116 C.ar    1  UNL1       -0.0054
     23 C          -4.1346    0.6017    0.0872 C.ar    1  UNL1        0.0282
     24 C          -2.8479    1.2958   -0.0833 C.2     1  UNL1        0.2040
     25 O          -2.6500    2.4524   -0.5362 O.2     1  UNL1       -0.2881
     26 C           1.4766    1.8212    1.0535 C.ar    1  UNL1       -0.0197
     27 C           2.7755    1.8477    0.6244 C.ar    1  UNL1       -0.0551
     28 H           8.2580   -1.0303    2.2745 H       1  UNL1        0.0242
     29 H           7.2110    0.3963    1.9888 H       1  UNL1        0.0242
     30 H           6.4739   -1.2266    2.2100 H       1  UNL1        0.0242
     31 H           6.8819   -1.9290    0.1039 H       1  UNL1        0.0424
     32 H           8.4552   -1.1225   -0.0280 H       1  UNL1        0.0424
     33 H           6.5652    0.5011   -2.5418 H       1  UNL1        0.0391
     34 H           7.9570   -0.5292   -2.1192 H       1  UNL1        0.0391
     35 H           6.3474   -1.2741   -2.0936 H       1  UNL1        0.0391
     36 H           5.2561    0.3054    0.9576 H       1  UNL1        0.0430
     37 H           4.9127   -0.9161   -0.3436 H       1  UNL1        0.0430
     38 H           5.0150    2.1321   -0.5986 H       1  UNL1        0.0326
     39 H           4.6413    1.0347   -1.9540 H       1  UNL1        0.0326
     40 H           2.5628   -0.3202   -1.8948 H       1  UNL1        0.0621
     41 H           0.2281   -0.3729   -1.1296 H       1  UNL1        0.0654
     42 H          -1.5974   -0.3383   -0.4393 H       1  UNL1        0.0821
     43 H          -2.2491   -1.4703    1.5501 H       1  UNL1        0.0354
     44 H          -2.4836    0.0892    2.4595 H       1  UNL1        0.0354
     45 H          -5.0075   -1.9794    2.0327 H       1  UNL1        0.0658
     46 H          -7.3841   -2.4741    3.0030 H       1  UNL1        0.0660
     47 H          -6.4342   -3.4162    1.8126 H       1  UNL1        0.0660
     48 H          -8.2176   -3.5247    1.8250 H       1  UNL1        0.0660
     49 H          -8.7815    1.2219   -2.3345 H       1  UNL1        0.0660
     50 H          -7.0239    1.2201   -2.5575 H       1  UNL1        0.0660
     51 H          -7.6846    2.3127   -1.3279 H       1  UNL1        0.0660
     52 H          -5.4595    1.6134   -1.2345 H       1  UNL1        0.0662
     53 H           1.1594    2.4289    1.8933 H       1  UNL1        0.0654
     54 H           3.4738    2.4815    1.1350 H       1  UNL1        0.0621
@<TRIPOS>BOND
     1     1     2    1
     2     2     3    1
     3     3     4    1
     4     3     5    1
     5     5     6    1
     6     6     7    1
     7     7     8   ar
     8     8     9   ar
     9     9    10   ar
    10    10    11    1
    11    11    12    1
    12    12    13    1
    13    13    14    1
    14    14    15   ar
    15    15    16   ar
    16    16    17    1
    17    17    18    1
    18    16    19   ar
    19    19    20    1
    20    20    21    1
    21    19    22   ar
    22    22    23   ar
    23    23    24    1
    24    24    25    2
    25    10    26   ar
    26    26    27   ar
    27    27     7   ar
    28    24    12    1
    29    23    14   ar
    30     1    28    1
    31     1    29    1
    32     1    30    1
    33     2    31    1
    34     2    32    1
    35     4    33    1
    36     4    34    1
    37     4    35    1
    38     5    36    1
    39     5    37    1
    40     6    38    1
    41     6    39    1
    42     8    40    1
    43     9    41    1
    44    12    42    1
    45    13    43    1
    46    13    44    1
    47    15    45    1
    48    18    46    1
    49    18    47    1
    50    18    48    1
    51    21    49    1
    52    21    50    1
    53    21    51    1
    54    22    52    1
    55    26    53    1
    56    27    54    1
