@<TRIPOS>MOLECULE
*****
 49 50 0 0 0
SMALL
GASTEIGER

@<TRIPOS>ATOM
      1 C           6.9463    0.3054   -0.9842 C.3     1  UNL1        0.0031
      2 N           6.8724    1.0110    0.2688 N.am    1  UNL1       -0.3036
      3 C           8.0427    1.7034    0.7504 C.3     1  UNL1        0.0031
      4 C           5.6857    1.0414    1.0284 C.2     1  UNL1        0.2461
      5 O           5.5949    1.6427    2.1173 O.2     1  UNL1       -0.2700
      6 C           4.5131    0.3379    0.5185 C.ar    1  UNL1        0.0370
      7 C           3.7985    0.7786   -0.5757 C.ar    1  UNL1       -0.0478
      8 C           2.7087    0.1076   -1.0777 C.ar    1  UNL1       -0.0358
      9 C           2.2785   -1.0583   -0.4945 C.ar    1  UNL1        0.0936
     10 S           0.9463   -1.9932   -1.0941 S.O2    1  UNL1        0.0251
     11 O           1.1017   -3.4206   -0.6544 O.2     1  UNL1       -0.1643
     12 O           1.0257   -1.9824   -2.6013 O.2     1  UNL1       -0.1643
     13 C          -0.5356   -1.3160   -0.5259 C.ar    1  UNL1        0.0951
     14 C          -1.1183   -1.6238    0.6759 C.ar    1  UNL1       -0.0346
     15 C          -2.3204   -1.0586    1.0488 C.ar    1  UNL1       -0.0372
     16 C          -2.9958   -0.1616    0.2420 C.ar    1  UNL1        0.0521
     17 N          -4.2440    0.4194    0.5885 N.am    1  UNL1       -0.2817
     18 C          -5.4286   -0.3048    0.1894 C.2     1  UNL1        0.2577
     19 O          -5.2483   -1.3873   -0.4346 O.2     1  UNL1       -0.2720
     20 C          -6.7966    0.1273    0.4569 C.3     1  UNL1        0.2342
     21 C          -7.0276    1.4833   -0.1498 C.3     1  UNL1       -0.0187
     22 O          -7.6857   -0.7841   -0.1188 O.3     1  UNL1       -0.3725
     23 C          -7.0996    0.2422    1.9384 C.3     1  UNL1        0.4266
     24 F          -8.4346    0.6642    2.0145 F       1  UNL1       -0.1671
     25 F          -6.3386    1.2289    2.5151 F       1  UNL1       -0.1671
     26 F          -7.0096   -0.9605    2.5699 F       1  UNL1       -0.1671
     27 C          -2.4072    0.1461   -0.9625 C.ar    1  UNL1        0.0639
     28 CL         -3.2286    1.2835   -2.0225 Cl      1  UNL1       -0.0816
     29 C          -1.1920   -0.4209   -1.3474 C.ar    1  UNL1       -0.0163
     30 C           2.9643   -1.5331    0.6039 C.ar    1  UNL1       -0.0358
     31 C           4.0546   -0.8402    1.0876 C.ar    1  UNL1       -0.0478
     32 H           7.3706   -0.7147   -0.8728 H       1  UNL1        0.0428
     33 H           5.9743    0.2164   -1.4994 H       1  UNL1        0.0428
     34 H           7.6351    0.8140   -1.7201 H       1  UNL1        0.0428
     35 H           7.9070    2.0284    1.8135 H       1  UNL1        0.0428
     36 H           8.8913    0.9905    0.6606 H       1  UNL1        0.0428
     37 H           8.2603    2.5738    0.1143 H       1  UNL1        0.0428
     38 H           4.1465    1.7018   -1.0285 H       1  UNL1        0.0626
     39 H           2.1548    0.4718   -1.9394 H       1  UNL1        0.0637
     40 H          -0.6062   -2.3312    1.3351 H       1  UNL1        0.0637
     41 H          -2.7945   -1.2890    1.9948 H       1  UNL1        0.0637
     42 H          -4.3624    1.3136    1.1038 H       1  UNL1        0.1549
     43 H          -8.0661    1.5697   -0.5477 H       1  UNL1        0.0265
     44 H          -6.8170    2.2778    0.6106 H       1  UNL1        0.0265
     45 H          -6.3577    1.6840   -1.0085 H       1  UNL1        0.0265
     46 H          -7.2274   -1.1634   -0.9233 H       1  UNL1        0.2111
     47 H          -0.7719   -0.1478   -2.3104 H       1  UNL1        0.0652
     48 H           2.6486   -2.4603    1.0940 H       1  UNL1        0.0637
     49 H           4.5922   -1.2131    1.9456 H       1  UNL1        0.0626
@<TRIPOS>BOND
     1     1     2    1
     2     2     3    1
     3     2     4   am
     4     4     5    2
     5     4     6    1
     6     6     7   ar
     7     7     8   ar
     8     8     9   ar
     9     9    10    1
    10    10    11    2
    11    10    12    2
    12    10    13    1
    13    13    14   ar
    14    14    15   ar
    15    15    16   ar
    16    16    17    1
    17    17    18   am
    18    18    19    2
    19    18    20    1
    20    20    21    1
    21    20    22    1
    22    20    23    1
    23    23    24    1
    24    23    25    1
    25    23    26    1
    26    16    27   ar
    27    27    28    1
    28    27    29   ar
    29     9    30   ar
    30    30    31   ar
    31    31     6   ar
    32    29    13   ar
    33     1    32    1
    34     1    33    1
    35     1    34    1
    36     3    35    1
    37     3    36    1
    38     3    37    1
    39     7    38    1
    40     8    39    1
    41    14    40    1
    42    15    41    1
    43    17    42    1
    44    21    43    1
    45    21    44    1
    46    21    45    1
    47    22    46    1
    48    29    47    1
    49    30    48    1
    50    31    49    1
