@<TRIPOS>MOLECULE
*****
 74 80 0 0 0
SMALL
GASTEIGER

@<TRIPOS>ATOM
      1 C           0.0458    0.1452   -2.3286 C.3     1  UNL1        0.0375
      2 C           0.7023   -0.7997   -3.2450 C.3     1  UNL1        0.0987
      3 O          -0.4779   -1.3595   -3.8828 O.3     1  UNL1       -0.4640
      4 C          -1.6526   -0.9549   -3.1897 C.2     1  UNL1        0.3116
      5 O          -2.3826   -1.0007   -4.2613 O.2     1  UNL1       -0.2505
      6 C          -1.0780   -0.8230   -1.8618 C.3     1  UNL1        0.0758
      7 C          -1.7604   -0.2959   -0.7083 C.3     1  UNL1        0.0233
      8 C          -3.1169   -0.6615   -0.3760 C.ar    1  UNL1       -0.0320
      9 C          -3.4576   -0.6401    0.9962 C.ar    1  UNL1       -0.0123
     10 C          -4.6944   -0.9539    1.5140 C.ar    1  UNL1        0.1653
     11 O          -4.9440   -0.9060    2.8739 O.3     1  UNL1       -0.4913
     12 C          -4.0391   -0.5549    3.8714 C.3     1  UNL1        0.0790
     13 C          -5.6972   -1.3223    0.6493 C.ar    1  UNL1        0.2010
     14 O          -6.9361   -1.6354    1.1814 O.3     1  UNL1       -0.5009
     15 C          -5.4473   -1.3691   -0.6999 C.ar    1  UNL1        0.1653
     16 O          -6.4967   -1.7451   -1.4876 O.3     1  UNL1       -0.4913
     17 C          -6.5390   -1.8843   -2.8741 C.3     1  UNL1        0.0790
     18 C          -4.1912   -1.0420   -1.1440 C.ar    1  UNL1       -0.0123
     19 C          -1.4848    1.1708   -0.5578 C.ar    1  UNL1       -0.0298
     20 C          -2.5823    1.9539   -0.1696 C.ar    1  UNL1       -0.0120
     21 C          -2.4203    3.3307    0.0258 C.ar    1  UNL1        0.1665
     22 C          -1.1786    3.8858   -0.1693 C.ar    1  UNL1        0.1666
     23 O          -1.2483    5.2343    0.0763 O.3     1  UNL1       -0.4526
     24 C          -2.6053    5.5998    0.3631 C.3     1  UNL1        0.2332
     25 O          -3.2668    4.3490    0.3957 O.3     1  UNL1       -0.4526
     26 C          -0.0850    3.1429   -0.5503 C.ar    1  UNL1       -0.0102
     27 C          -0.2661    1.7929   -0.7378 C.ar    1  UNL1       -0.0109
     28 C           0.7384    0.7405   -1.1867 C.3     1  UNL1        0.0938
     29 O           1.0496   -0.0811   -0.1395 O.3     1  UNL1       -0.3404
     30 C           2.3781   -0.0376    0.2454 C.3     1  UNL1        0.1886
     31 O           3.0205   -1.2731   -0.0299 O.3     1  UNL1       -0.3405
     32 C           4.3821   -1.0208    0.0704 C.3     1  UNL1        0.1137
     33 C           5.2110   -2.2456   -0.2506 C.3     1  UNL1        0.0794
     34 O           6.0935   -2.5746    0.7631 O.3     1  UNL1       -0.3489
     35 C           6.8692   -1.5067    1.1848 C.3     1  UNL1        0.1570
     36 C           7.9743   -1.1859    0.1958 C.3     1  UNL1       -0.0136
     37 O           6.1566   -0.3669    1.4436 O.3     1  UNL1       -0.3431
     38 C           4.7828   -0.6095    1.4812 C.3     1  UNL1        0.1183
     39 C           4.0166    0.5863    1.9625 C.3     1  UNL1        0.1144
     40 O           4.2311    0.6785    3.3470 O.3     1  UNL1       -0.3864
     41 C           2.5418    0.2921    1.7025 C.3     1  UNL1        0.1341
     42 O           1.7209    1.3596    2.0328 O.3     1  UNL1       -0.3841
     43 H          -0.4529    0.9397   -2.9288 H       1  UNL1        0.0370
     44 H           1.2714   -0.3140   -4.0616 H       1  UNL1        0.0701
     45 H           1.2205   -1.6384   -2.7869 H       1  UNL1        0.0701
     46 H          -0.5630   -1.8251   -1.6573 H       1  UNL1        0.0427
     47 H          -1.1453   -0.7054    0.1919 H       1  UNL1        0.0405
     48 H          -2.7160   -0.3621    1.7325 H       1  UNL1        0.0658
     49 H          -3.3680   -1.4258    4.0590 H       1  UNL1        0.0660
     50 H          -3.4490    0.3256    3.5101 H       1  UNL1        0.0660
     51 H          -4.5598   -0.1967    4.7835 H       1  UNL1        0.0660
     52 H          -7.0888   -2.6223    1.4108 H       1  UNL1        0.2924
     53 H          -7.1542   -2.7679   -3.1757 H       1  UNL1        0.0660
     54 H          -6.9396   -1.0146   -3.4314 H       1  UNL1        0.0660
     55 H          -5.4825   -2.0294   -3.2339 H       1  UNL1        0.0660
     56 H          -4.0110   -1.0799   -2.1988 H       1  UNL1        0.0658
     57 H          -3.5867    1.6080    0.0063 H       1  UNL1        0.0658
     58 H          -2.6641    6.0236    1.3963 H       1  UNL1        0.1166
     59 H          -3.0179    6.2937   -0.3889 H       1  UNL1        0.1166
     60 H           0.9279    3.4636   -0.7315 H       1  UNL1        0.0659
     61 H           1.6259    1.3084   -1.5640 H       1  UNL1        0.0651
     62 H           2.9496    0.6922   -0.3686 H       1  UNL1        0.0938
     63 H           4.6535   -0.2070   -0.6022 H       1  UNL1        0.0647
     64 H           5.6919   -2.1699   -1.2512 H       1  UNL1        0.0587
     65 H           4.4827   -3.0989   -0.3311 H       1  UNL1        0.0587
     66 H           7.3615   -1.8301    2.1280 H       1  UNL1        0.0907
     67 H           8.3023   -2.1160   -0.3381 H       1  UNL1        0.0278
     68 H           8.8919   -0.7943    0.6815 H       1  UNL1        0.0278
     69 H           7.6699   -0.4195   -0.5505 H       1  UNL1        0.0278
     70 H           4.6310   -1.4638    2.2034 H       1  UNL1        0.0651
     71 H           4.3712    1.4567    1.4001 H       1  UNL1        0.0648
     72 H           5.0770    0.2032    3.6119 H       1  UNL1        0.2100
     73 H           2.3127   -0.6017    2.3442 H       1  UNL1        0.0671
     74 H           0.8917    0.9557    2.4429 H       1  UNL1        0.2101
@<TRIPOS>BOND
     1     1     2    1
     2     2     3    1
     3     3     4    1
     4     4     5    2
     5     4     6    1
     6     6     7    1
     7     7     8    1
     8     8     9   ar
     9     9    10   ar
    10    10    11    1
    11    11    12    1
    12    10    13   ar
    13    13    14    1
    14    13    15   ar
    15    15    16    1
    16    16    17    1
    17    15    18   ar
    18     7    19    1
    19    19    20   ar
    20    20    21   ar
    21    21    22   ar
    22    22    23    1
    23    23    24    1
    24    24    25    1
    25    22    26   ar
    26    26    27   ar
    27    27    28    1
    28    28    29    1
    29    29    30    1
    30    30    31    1
    31    31    32    1
    32    32    33    1
    33    33    34    1
    34    34    35    1
    35    35    36    1
    36    35    37    1
    37    37    38    1
    38    38    39    1
    39    39    40    1
    40    39    41    1
    41    41    42    1
    42     6     1    1
    43    18     8   ar
    44    27    19   ar
    45    41    30    1
    46    28     1    1
    47    38    32    1
    48    25    21    1
    49     1    43    1
    50     2    44    1
    51     2    45    1
    52     6    46    1
    53     7    47    1
    54     9    48    1
    55    12    49    1
    56    12    50    1
    57    12    51    1
    58    14    52    1
    59    17    53    1
    60    17    54    1
    61    17    55    1
    62    18    56    1
    63    20    57    1
    64    24    58    1
    65    24    59    1
    66    26    60    1
    67    28    61    1
    68    30    62    1
    69    32    63    1
    70    33    64    1
    71    33    65    1
    72    35    66    1
    73    36    67    1
    74    36    68    1
    75    36    69    1
    76    38    70    1
    77    39    71    1
    78    40    72    1
    79    41    73    1
    80    42    74    1
