
     RDKit          3D

 36 37  0  0  0  0  0  0  0  0999 V2000
    6.7916   -1.4041    0.8210 C   0  0  0  0  0  0  0  0  0  0  0  0
    6.2023   -0.2184    0.3187 O   0  0  0  0  0  0  0  0  0  0  0  0
    4.8310   -0.0211    0.2517 C   0  0  0  0  0  0  0  0  0  0  0  0
    4.4835    1.2176   -0.2765 C   0  0  0  0  0  0  0  0  0  0  0  0
    3.1314    1.5369   -0.3962 C   0  0  0  0  0  0  0  0  0  0  0  0
    2.1888    0.6336    0.0044 C   0  0  0  0  0  0  0  0  0  0  0  0
    0.7691    1.0524   -0.1573 C   0  0  0  0  0  0  0  0  0  0  0  0
    0.2505    0.6771   -1.4324 N   0  0  0  0  0  0  0  0  0  0  0  0
   -1.3858    1.1211   -1.7089 S   0  0  0  0  0  0  0  0  0  0  0  0
   -1.5233    2.6210   -1.7859 O   0  0  0  0  0  0  0  0  0  0  0  0
   -1.7407    0.6266   -3.1074 O   0  0  0  0  0  0  0  0  0  0  0  0
   -2.4776    0.3912   -0.6244 C   0  0  0  0  0  0  0  0  0  0  0  0
   -2.5629   -0.4701    0.4012 C   0  0  0  0  0  0  0  0  0  0  0  0
   -3.7461   -0.7796    0.9977 C   0  0  0  0  0  0  0  0  0  0  0  0
   -4.8785   -0.1388    0.4708 C   0  0  0  0  0  0  0  0  0  0  0  0
   -4.2367    0.8953   -0.8676 S   0  0  0  0  0  0  0  0  0  0  0  0
   -6.5913   -0.2139    0.8974 S   0  0  0  0  0  0  0  0  0  0  0  0
   -7.5207   -0.7654   -0.4500 N   0  0  0  0  0  0  0  0  0  0  0  0
   -6.7754   -1.2161    1.9854 O   0  0  0  0  0  0  0  0  0  0  0  0
   -7.0869    1.1439    1.2971 O   0  0  0  0  0  0  0  0  0  0  0  0
    2.5102   -0.6006    0.5310 C   0  0  0  0  0  0  0  0  0  0  0  0
    3.8352   -0.8830    0.6352 C   0  0  0  0  0  0  0  0  0  0  0  0
    6.1299   -1.8222    1.6039 H   0  0  0  0  0  0  0  0  0  0  0  0
    7.7928   -1.1848    1.2896 H   0  0  0  0  0  0  0  0  0  0  0  0
    6.9093   -2.1884    0.0332 H   0  0  0  0  0  0  0  0  0  0  0  0
    5.1964    1.9636   -0.6065 H   0  0  0  0  0  0  0  0  0  0  0  0
    2.8581    2.5044   -0.8088 H   0  0  0  0  0  0  0  0  0  0  0  0
    0.2133    0.5337    0.6405 H   0  0  0  0  0  0  0  0  0  0  0  0
    0.6417    2.1399    0.0587 H   0  0  0  0  0  0  0  0  0  0  0  0
    0.3770   -0.3341   -1.6528 H   0  0  0  0  0  0  0  0  0  0  0  0
   -1.6314   -0.9091    0.7214 H   0  0  0  0  0  0  0  0  0  0  0  0
   -3.8807   -1.4603    1.8220 H   0  0  0  0  0  0  0  0  0  0  0  0
   -6.9440   -1.3204   -1.0910 H   0  0  0  0  0  0  0  0  0  0  0  0
   -8.0550    0.0018   -0.9075 H   0  0  0  0  0  0  0  0  0  0  0  0
    1.7542   -1.3051    0.8437 H   0  0  0  0  0  0  0  0  0  0  0  0
    4.1706   -1.8243    1.0357 H   0  0  0  0  0  0  0  0  0  0  0  0
  1  2  1  0
  2  3  1  0
  3  4  2  0
  4  5  1  0
  5  6  2  0
  6  7  1  0
  7  8  1  0
  8  9  1  0
  9 10  2  0
  9 11  2  0
  9 12  1  0
 12 13  2  0
 13 14  1  0
 14 15  2  0
 15 16  1  0
 15 17  1  0
 17 18  1  0
 17 19  2  0
 17 20  2  0
  6 21  1  0
 21 22  2  0
 22  3  1  0
 16 12  1  0
  1 23  1  0
  1 24  1  0
  1 25  1  0
  4 26  1  0
  5 27  1  0
  7 28  1  0
  7 29  1  0
  8 30  1  0
 13 31  1  0
 14 32  1  0
 18 33  1  0
 18 34  1  0
 21 35  1  0
 22 36  1  0
M  END
$$$$
