@<TRIPOS>MOLECULE
*****
 41 44 0 0 0
SMALL
GASTEIGER

@<TRIPOS>ATOM
      1 N           5.4994    0.9247   -4.3477 N.pl3   1  UNL1       -0.3419
      2 C           4.5494    0.6170   -3.3340 C.ar    1  UNL1        0.1352
      3 C           4.1080   -0.5697   -2.8430 C.ar    1  UNL1        0.0507
      4 N           3.1889   -0.3820   -1.8717 N.ar    1  UNL1       -0.3041
      5 C           2.4740   -1.2349   -1.0969 C.ar    1  UNL1        0.0190
      6 C           1.5723   -0.7963   -0.1490 C.ar    1  UNL1        0.0003
      7 C           0.8173   -1.7329    0.6727 C.ar    1  UNL1        0.0035
      8 C           1.3264   -2.9558    1.0560 C.ar    1  UNL1        0.0371
      9 N           0.6176   -3.8148    1.8173 N.ar    1  UNL1       -0.2410
     10 C          -0.6199   -3.5740    2.2666 C.ar    1  UNL1        0.1514
     11 CL         -1.4961   -4.7268    3.2537 Cl      1  UNL1       -0.0600
     12 C          -1.1856   -2.3417    1.9043 C.ar    1  UNL1        0.0854
     13 N          -2.4867   -2.0922    2.3954 N.pl3   1  UNL1       -0.2133
     14 S          -3.7803   -1.3184    1.6293 S.O2    1  UNL1        0.0724
     15 O          -4.2456   -2.0666    0.3939 O.2     1  UNL1       -0.1500
     16 O          -4.9893   -1.3800    2.5639 O.2     1  UNL1       -0.1500
     17 C          -3.5090    0.3461    1.1907 C.ar    1  UNL1        0.1087
     18 C          -3.1991    0.7404   -0.0927 C.ar    1  UNL1       -0.0324
     19 C          -2.9856    2.0789   -0.4198 C.ar    1  UNL1       -0.0246
     20 C          -3.0823    3.0360    0.5449 C.ar    1  UNL1        0.1235
     21 F          -2.8595    4.3350    0.1550 F       1  UNL1       -0.2055
     22 C          -3.3857    2.6876    1.8213 C.ar    1  UNL1       -0.0246
     23 C          -3.5952    1.3622    2.1359 C.ar    1  UNL1       -0.0324
     24 C          -0.4736   -1.4532    1.1269 C.ar    1  UNL1       -0.0272
     25 C           1.4343    0.5843   -0.0293 C.ar    1  UNL1       -0.0491
     26 C           2.1604    1.4576   -0.8164 C.ar    1  UNL1       -0.0182
     27 C           3.0512    0.9558   -1.7515 C.ar    1  UNL1        0.1397
     28 N           3.8759    1.5725   -2.6381 N.ar    1  UNL1       -0.2136
     29 H           5.2154    1.4204   -5.2183 H       1  UNL1        0.1438
     30 H           6.5078    0.6686   -4.2597 H       1  UNL1        0.1438
     31 H           4.4557   -1.5480   -3.1930 H       1  UNL1        0.0848
     32 H           2.6156   -2.2981   -1.2269 H       1  UNL1        0.0819
     33 H           2.3395   -3.1960    0.7099 H       1  UNL1        0.0836
     34 H          -2.6644   -2.4435    3.3975 H       1  UNL1        0.1738
     35 H          -3.1240   -0.0351   -0.8579 H       1  UNL1        0.0638
     36 H          -2.7462    2.3249   -1.4413 H       1  UNL1        0.0647
     37 H          -3.4584    3.4611    2.5754 H       1  UNL1        0.0647
     38 H          -3.8371    1.0908    3.1558 H       1  UNL1        0.0638
     39 H          -0.8733   -0.4973    0.8390 H       1  UNL1        0.0644
     40 H           0.7381    0.9433    0.7023 H       1  UNL1        0.0625
     41 H           2.0498    2.5489   -0.7204 H       1  UNL1        0.0654
@<TRIPOS>BOND
     1     1     2    1
     2     2     3   ar
     3     3     4   ar
     4     4     5   ar
     5     5     6   ar
     6     6     7    1
     7     7     8   ar
     8     8     9   ar
     9     9    10   ar
    10    10    11    1
    11    10    12   ar
    12    12    13    1
    13    13    14    1
    14    14    15    2
    15    14    16    2
    16    14    17    1
    17    17    18   ar
    18    18    19   ar
    19    19    20   ar
    20    20    21    1
    21    20    22   ar
    22    22    23   ar
    23    12    24   ar
    24     6    25   ar
    25    25    26   ar
    26    26    27   ar
    27    27    28   ar
    28    28     2   ar
    29    27     4   ar
    30    24     7   ar
    31    23    17   ar
    32     1    29    1
    33     1    30    1
    34     3    31    1
    35     5    32    1
    36     8    33    1
    37    13    34    1
    38    18    35    1
    39    19    36    1
    40    22    37    1
    41    23    38    1
    42    24    39    1
    43    25    40    1
    44    26    41    1
