
     RDKit          3D

 41 44  0  0  0  0  0  0  0  0999 V2000
    5.4994    0.9247   -4.3477 N   0  0  0  0  0  0  0  0  0  0  0  0
    4.5494    0.6170   -3.3340 C   0  0  0  0  0  0  0  0  0  0  0  0
    4.1080   -0.5697   -2.8430 C   0  0  0  0  0  0  0  0  0  0  0  0
    3.1889   -0.3820   -1.8717 N   0  0  0  0  0  0  0  0  0  0  0  0
    2.4740   -1.2349   -1.0969 C   0  0  0  0  0  0  0  0  0  0  0  0
    1.5723   -0.7963   -0.1490 C   0  0  0  0  0  0  0  0  0  0  0  0
    0.8173   -1.7329    0.6727 C   0  0  0  0  0  0  0  0  0  0  0  0
    1.3264   -2.9558    1.0560 C   0  0  0  0  0  0  0  0  0  0  0  0
    0.6176   -3.8148    1.8173 N   0  0  0  0  0  0  0  0  0  0  0  0
   -0.6199   -3.5740    2.2666 C   0  0  0  0  0  0  0  0  0  0  0  0
   -1.4961   -4.7268    3.2537 Cl  0  0  0  0  0  0  0  0  0  0  0  0
   -1.1856   -2.3417    1.9043 C   0  0  0  0  0  0  0  0  0  0  0  0
   -2.4867   -2.0922    2.3954 N   0  0  0  0  0  0  0  0  0  0  0  0
   -3.7803   -1.3184    1.6293 S   0  0  0  0  0  6  0  0  0  0  0  0
   -4.2456   -2.0666    0.3939 O   0  0  0  0  0  0  0  0  0  0  0  0
   -4.9893   -1.3800    2.5639 O   0  0  0  0  0  0  0  0  0  0  0  0
   -3.5090    0.3461    1.1907 C   0  0  0  0  0  0  0  0  0  0  0  0
   -3.1991    0.7404   -0.0927 C   0  0  0  0  0  0  0  0  0  0  0  0
   -2.9856    2.0789   -0.4198 C   0  0  0  0  0  0  0  0  0  0  0  0
   -3.0823    3.0360    0.5449 C   0  0  0  0  0  0  0  0  0  0  0  0
   -2.8595    4.3350    0.1550 F   0  0  0  0  0  0  0  0  0  0  0  0
   -3.3857    2.6876    1.8213 C   0  0  0  0  0  0  0  0  0  0  0  0
   -3.5952    1.3622    2.1359 C   0  0  0  0  0  0  0  0  0  0  0  0
   -0.4736   -1.4532    1.1269 C   0  0  0  0  0  0  0  0  0  0  0  0
    1.4343    0.5843   -0.0293 C   0  0  0  0  0  0  0  0  0  0  0  0
    2.1604    1.4576   -0.8164 C   0  0  0  0  0  0  0  0  0  0  0  0
    3.0512    0.9558   -1.7515 C   0  0  0  0  0  0  0  0  0  0  0  0
    3.8759    1.5725   -2.6381 N   0  0  0  0  0  0  0  0  0  0  0  0
    5.2154    1.4204   -5.2183 H   0  0  0  0  0  0  0  0  0  0  0  0
    6.5078    0.6686   -4.2597 H   0  0  0  0  0  0  0  0  0  0  0  0
    4.4557   -1.5480   -3.1930 H   0  0  0  0  0  0  0  0  0  0  0  0
    2.6156   -2.2981   -1.2269 H   0  0  0  0  0  0  0  0  0  0  0  0
    2.3395   -3.1960    0.7099 H   0  0  0  0  0  0  0  0  0  0  0  0
   -2.6644   -2.4435    3.3975 H   0  0  0  0  0  0  0  0  0  0  0  0
   -3.1240   -0.0351   -0.8579 H   0  0  0  0  0  0  0  0  0  0  0  0
   -2.7462    2.3249   -1.4413 H   0  0  0  0  0  0  0  0  0  0  0  0
   -3.4584    3.4611    2.5754 H   0  0  0  0  0  0  0  0  0  0  0  0
   -3.8371    1.0908    3.1558 H   0  0  0  0  0  0  0  0  0  0  0  0
   -0.8733   -0.4973    0.8390 H   0  0  0  0  0  0  0  0  0  0  0  0
    0.7381    0.9433    0.7023 H   0  0  0  0  0  0  0  0  0  0  0  0
    2.0498    2.5489   -0.7204 H   0  0  0  0  0  0  0  0  0  0  0  0
  1  2  1  0
  2  3  2  0
  3  4  1  0
  4  5  1  0
  5  6  2  0
  6  7  1  0
  7  8  2  0
  8  9  1  0
  9 10  2  0
 10 11  1  0
 10 12  1  0
 12 13  1  0
 13 14  1  0
 14 15  2  0
 14 16  2  0
 14 17  1  0
 17 18  2  0
 18 19  1  0
 19 20  2  0
 20 21  1  0
 20 22  1  0
 22 23  2  0
 12 24  2  0
  6 25  1  0
 25 26  2  0
 26 27  1  0
 27 28  2  0
 28  2  1  0
 27  4  1  0
 24  7  1  0
 23 17  1  0
  1 29  1  0
  1 30  1  0
  3 31  1  0
  5 32  1  0
  8 33  1  0
 13 34  1  0
 18 35  1  0
 19 36  1  0
 22 37  1  0
 23 38  1  0
 24 39  1  0
 25 40  1  0
 26 41  1  0
M  END
$$$$
