@<TRIPOS>MOLECULE
*****
 30 31 0 0 0
SMALL
GASTEIGER

@<TRIPOS>ATOM
      1 O           1.0804   -0.4751   -2.8631 O.2     1  UNL1       -0.2903
      2 C           1.1342   -0.0707   -1.6763 C.2     1  UNL1        0.1844
      3 C          -0.0851    0.4074   -1.0239 C.3     1  UNL1        0.1334
      4 S          -1.1492   -0.9457   -0.5074 S.O2    1  UNL1        0.0041
      5 O          -0.4064   -1.9114    0.3459 O.2     1  UNL1       -0.1689
      6 O          -1.6408   -1.5817   -1.7756 O.2     1  UNL1       -0.1689
      7 C          -2.4939   -0.2041    0.2971 C.ar    1  UNL1        0.0887
      8 C          -3.5813    0.2571   -0.3846 C.ar    1  UNL1       -0.0369
      9 C          -4.6621    0.8588    0.2675 C.ar    1  UNL1       -0.0600
     10 C          -4.6230    0.9875    1.6318 C.ar    1  UNL1       -0.0616
     11 C          -3.5441    0.5323    2.3379 C.ar    1  UNL1       -0.0600
     12 C          -2.4714   -0.0681    1.6671 C.ar    1  UNL1       -0.0369
     13 C           2.4371   -0.0923   -0.9823 C.ar    1  UNL1        0.0192
     14 C           3.5673   -0.5720   -1.6031 C.ar    1  UNL1       -0.0485
     15 C           4.8003   -0.5913   -1.0004 C.ar    1  UNL1       -0.0258
     16 C           4.8948   -0.1049    0.2863 C.ar    1  UNL1        0.1234
     17 F           6.0759   -0.0916    0.9463 F       1  UNL1       -0.2055
     18 C           3.7585    0.3834    0.9267 C.ar    1  UNL1       -0.0258
     19 C           2.5237    0.3978    0.3124 C.ar    1  UNL1       -0.0485
     20 H           0.0313    1.1168   -0.2116 H       1  UNL1        0.0587
     21 H          -0.7159    0.9587   -1.7966 H       1  UNL1        0.0587
     22 H          -3.6124    0.1563   -1.4658 H       1  UNL1        0.0636
     23 H          -5.5250    1.2319   -0.2521 H       1  UNL1        0.0618
     24 H          -5.4213    1.4429    2.2075 H       1  UNL1        0.0618
     25 H          -3.4443    0.6012    3.4190 H       1  UNL1        0.0618
     26 H          -1.6228   -0.4303    2.2006 H       1  UNL1        0.0636
     27 H           3.4998   -0.9595   -2.6126 H       1  UNL1        0.0625
     28 H           5.6971   -0.9595   -1.4754 H       1  UNL1        0.0646
     29 H           3.8184    0.7676    1.9226 H       1  UNL1        0.0646
     30 H           1.6802    0.7864    0.8617 H       1  UNL1        0.0625
@<TRIPOS>BOND
     1     1     2    2
     2     2     3    1
     3     3     4    1
     4     4     5    2
     5     4     6    2
     6     4     7    1
     7     7     8   ar
     8     8     9   ar
     9     9    10   ar
    10    10    11   ar
    11    11    12   ar
    12     2    13    1
    13    13    14   ar
    14    14    15   ar
    15    15    16   ar
    16    16    17    1
    17    16    18   ar
    18    18    19   ar
    19    12     7   ar
    20    19    13   ar
    21     3    20    1
    22     3    21    1
    23     8    22    1
    24     9    23    1
    25    10    24    1
    26    11    25    1
    27    12    26    1
    28    14    27    1
    29    15    28    1
    30    18    29    1
    31    19    30    1
