@<TRIPOS>MOLECULE
*****
 48 50 0 0 0
SMALL
GASTEIGER

@<TRIPOS>ATOM
      1 C           4.3857   -1.7417   -1.7936 C.3     1  UNL1       -0.0223
      2 C           4.2459   -1.4167   -0.3434 C.ar    1  UNL1        0.0403
      3 C           5.0646   -1.9596    0.6188 C.ar    1  UNL1       -0.0405
      4 C           4.8872   -1.6215    1.9331 C.ar    1  UNL1       -0.0568
      5 C           3.8832   -0.7349    2.2787 C.ar    1  UNL1       -0.0216
      6 C           3.0853   -0.2116    1.2998 C.ar    1  UNL1        0.1232
      7 N           2.0100    0.6876    1.5981 N.pl3   1  UNL1       -0.2975
      8 C           1.2611    1.3012    0.5735 C.ar    1  UNL1        0.0683
      9 C          -0.0952    0.9450    0.4751 C.ar    1  UNL1        0.0034
     10 C          -0.9000    1.4765   -0.4920 C.ar    1  UNL1        0.1433
     11 N          -2.2557    1.1105   -0.6031 N.pl3   1  UNL1       -0.3233
     12 C          -2.9328    0.1431    0.2028 C.3     1  UNL1        0.0371
     13 C          -2.5137   -1.2588   -0.1023 C.3     1  UNL1       -0.0331
     14 C          -3.6834   -2.2209    0.0630 C.3     1  UNL1       -0.0513
     15 C          -4.7749   -1.9168   -0.9331 C.3     1  UNL1       -0.0515
     16 C          -4.7866   -0.4176   -1.2693 C.3     1  UNL1       -0.0360
     17 C          -4.4387    0.2759    0.0203 C.3     1  UNL1        0.0234
     18 N          -4.8382    1.6399    0.0900 N.3     1  UNL1       -0.3257
     19 N          -0.3287    2.3560   -1.3409 N.ar    1  UNL1       -0.1336
     20 N           0.9393    2.6947   -1.2533 N.ar    1  UNL1       -0.1409
     21 C           1.7896    2.1963   -0.3080 C.ar    1  UNL1        0.1685
     22 C           3.1570    2.6711   -0.2371 C.2     1  UNL1        0.2635
     23 N           3.7363    3.5120   -1.2049 N.am    1  UNL1       -0.3240
     24 O           3.8982    2.3322    0.7322 O.2     1  UNL1       -0.2686
     25 N           3.2848   -0.5615    0.0316 N.ar    1  UNL1       -0.2371
     26 H           5.0304   -0.9750   -2.3000 H       1  UNL1        0.0292
     27 H           3.3678   -1.6329   -2.2559 H       1  UNL1        0.0292
     28 H           4.7840   -2.7596   -1.9027 H       1  UNL1        0.0292
     29 H           5.8414   -2.6535    0.2941 H       1  UNL1        0.0635
     30 H           5.5466   -2.0625    2.6848 H       1  UNL1        0.0619
     31 H           3.7585   -0.4812    3.3135 H       1  UNL1        0.0652
     32 H           1.8017    0.8716    2.5927 H       1  UNL1        0.1536
     33 H          -0.4891    0.2502    1.1906 H       1  UNL1        0.0672
     34 H          -2.8372    1.5855   -1.3481 H       1  UNL1        0.1478
     35 H          -2.7624    0.4102    1.2765 H       1  UNL1        0.0513
     36 H          -1.7103   -1.5888    0.5433 H       1  UNL1        0.0284
     37 H          -2.1586   -1.3809   -1.1604 H       1  UNL1        0.0284
     38 H          -4.0398   -2.1616    1.1221 H       1  UNL1        0.0266
     39 H          -3.2985   -3.2416   -0.0874 H       1  UNL1        0.0266
     40 H          -4.6276   -2.4870   -1.8476 H       1  UNL1        0.0266
     41 H          -5.7642   -2.1335   -0.4547 H       1  UNL1        0.0266
     42 H          -5.7671   -0.1393   -1.6888 H       1  UNL1        0.0281
     43 H          -4.0306   -0.2256   -2.0670 H       1  UNL1        0.0281
     44 H          -4.9443   -0.2848    0.8441 H       1  UNL1        0.0476
     45 H          -5.6110    1.8487    0.7616 H       1  UNL1        0.1185
     46 H          -4.0634    2.3259    0.0992 H       1  UNL1        0.1185
     47 H           3.4950    3.3839   -2.2017 H       1  UNL1        0.1453
     48 H           4.3982    4.2515   -0.9212 H       1  UNL1        0.1453
@<TRIPOS>BOND
     1     1     2    1
     2     2     3   ar
     3     3     4   ar
     4     4     5   ar
     5     5     6   ar
     6     6     7    1
     7     7     8    1
     8     8     9   ar
     9     9    10   ar
    10    10    11    1
    11    11    12    1
    12    12    13    1
    13    13    14    1
    14    14    15    1
    15    15    16    1
    16    16    17    1
    17    17    18    1
    18    10    19   ar
    19    19    20   ar
    20    20    21   ar
    21    21    22    1
    22    22    23   am
    23    22    24    2
    24     6    25   ar
    25    25     2   ar
    26    21     8   ar
    27    17    12    1
    28     1    26    1
    29     1    27    1
    30     1    28    1
    31     3    29    1
    32     4    30    1
    33     5    31    1
    34     7    32    1
    35     9    33    1
    36    11    34    1
    37    12    35    1
    38    13    36    1
    39    13    37    1
    40    14    38    1
    41    14    39    1
    42    15    40    1
    43    15    41    1
    44    16    42    1
    45    16    43    1
    46    17    44    1
    47    18    45    1
    48    18    46    1
    49    23    47    1
    50    23    48    1
