@<TRIPOS>MOLECULE
*****
 57 60 0 0 0
SMALL
GASTEIGER

@<TRIPOS>ATOM
      1 C          -4.9945    2.5371    0.9378 C.3     1  UNL1        0.0029
      2 N          -4.9648    2.3847   -0.4874 N.am    1  UNL1       -0.3064
      3 C          -5.9524    3.1411   -1.2702 C.3     1  UNL1        0.0029
      4 C          -4.0602    1.5644   -1.1365 C.2     1  UNL1        0.2319
      5 O          -4.1912    1.5419   -2.4360 O.2     1  UNL1       -0.2741
      6 C          -2.9858    0.7191   -0.6336 C.3     1  UNL1        0.1054
      7 C          -2.2478   -0.1045   -1.6173 C.3     1  UNL1       -0.0220
      8 C          -3.0337   -0.8025   -0.6176 C.3     1  UNL1        0.0135
      9 C          -2.7469   -1.5529    0.5477 C.3     1  UNL1        0.0950
     10 C          -3.6729   -2.8204    0.4976 C.3     1  UNL1       -0.0351
     11 C          -1.4654   -2.1105    0.9499 C.ar    1  UNL1        0.0349
     12 C          -0.2087   -1.9068    0.4700 C.ar    1  UNL1       -0.0433
     13 C           0.9197   -2.5149    0.9707 C.ar    1  UNL1       -0.0036
     14 C           2.2272   -2.2296    0.4108 C.2     1  UNL1       -0.0157
     15 C           2.5903   -1.0054    0.0645 C.2     1  UNL1        0.1507
     16 F           1.6729   -0.0084    0.2592 F       1  UNL1       -0.2032
     17 C           3.8849   -0.6912   -0.4920 C.ar    1  UNL1        0.1172
     18 C           4.1798    0.6086   -0.8321 C.ar    1  UNL1        0.0596
     19 N           5.3919    0.9326   -1.3553 N.ar    1  UNL1       -0.2178
     20 C           6.3075   -0.0009   -1.5455 C.ar    1  UNL1        0.2337
     21 O           7.5307    0.3092   -2.0748 O.3     1  UNL1       -0.4663
     22 C           7.9667    1.5497   -2.4479 C.3     1  UNL1        0.1858
     23 C           8.0737    2.5294   -1.3396 C.3     1  UNL1        0.4236
     24 F           6.9032    2.7734   -0.7087 F       1  UNL1       -0.1671
     25 F           8.6249    3.7347   -1.8033 F       1  UNL1       -0.1671
     26 F           9.0001    2.0066   -0.4287 F       1  UNL1       -0.1671
     27 C           6.0296   -1.3385   -1.2055 C.ar    1  UNL1        0.0898
     28 N           4.8220   -1.6102   -0.6929 N.ar    1  UNL1       -0.2459
     29 C           0.7906   -3.4048    2.0416 C.ar    1  UNL1        0.0379
     30 N          -0.4352   -3.6135    2.5214 N.ar    1  UNL1       -0.2267
     31 C          -1.5368   -3.0096    2.0218 C.ar    1  UNL1        0.2187
     32 F          -2.6939   -3.3413    2.6486 F       1  UNL1       -0.1835
     33 N          -3.1759   -0.9025    1.7748 N.2     1  UNL1       -0.2520
     34 C          -3.0290    0.2890    2.1227 C.2     1  UNL1        0.1485
     35 N          -3.4709    0.8267    3.3250 N.pl3   1  UNL1       -0.3380
     36 S          -2.2290    1.3314    0.9024 S.3     1  UNL1       -0.0746
     37 H          -4.0731    2.9008    1.4031 H       1  UNL1        0.0428
     38 H          -5.4327    1.6290    1.4207 H       1  UNL1        0.0428
     39 H          -5.7581    3.3457    1.2047 H       1  UNL1        0.0428
     40 H          -5.8230    2.9730   -2.3535 H       1  UNL1        0.0428
     41 H          -5.8260    4.2355   -1.1235 H       1  UNL1        0.0428
     42 H          -6.9759    2.7948   -0.9979 H       1  UNL1        0.0428
     43 H          -1.1903    0.0055   -1.7845 H       1  UNL1        0.0287
     44 H          -2.6904   -0.0490   -2.6737 H       1  UNL1        0.0287
     45 H          -4.0834   -1.0727   -1.0384 H       1  UNL1        0.0346
     46 H          -4.4203   -2.8198    1.2773 H       1  UNL1        0.0256
     47 H          -3.1144   -3.7433    0.4575 H       1  UNL1        0.0256
     48 H          -4.2626   -2.8008   -0.4688 H       1  UNL1        0.0256
     49 H          -0.0885   -1.2535   -0.3317 H       1  UNL1        0.0629
     50 H           2.9787   -2.9952    0.2446 H       1  UNL1        0.0653
     51 H           3.4913    1.4338   -0.7098 H       1  UNL1        0.0853
     52 H           7.3167    1.9841   -3.2597 H       1  UNL1        0.0788
     53 H           8.9943    1.4582   -2.8982 H       1  UNL1        0.0788
     54 H           6.7925   -2.0690   -1.3722 H       1  UNL1        0.0884
     55 H           1.6762   -3.8829    2.4349 H       1  UNL1        0.0836
     56 H          -2.8369    1.2385    4.0656 H       1  UNL1        0.1442
     57 H          -4.4947    0.8760    3.6173 H       1  UNL1        0.1442
@<TRIPOS>BOND
     1     1     2    1
     2     2     3    1
     3     2     4   am
     4     4     5    2
     5     6     4    1
     6     6     7    1
     7     7     8    1
     8     8     9    1
     9     9    10    1
    10     9    11    1
    11    11    12   ar
    12    12    13   ar
    13    13    14    1
    14    14    15    2
    15    15    16    1
    16    15    17    1
    17    17    18   ar
    18    18    19   ar
    19    19    20   ar
    20    20    21    1
    21    21    22    1
    22    22    23    1
    23    23    24    1
    24    23    25    1
    25    23    26    1
    26    20    27   ar
    27    27    28   ar
    28    13    29   ar
    29    29    30   ar
    30    30    31   ar
    31    31    32    1
    32     9    33    1
    33    33    34    2
    34    34    35    1
    35    34    36    1
    36     8     6    1
    37    31    11   ar
    38    36     6    1
    39    28    17   ar
    40     1    37    1
    41     1    38    1
    42     1    39    1
    43     3    40    1
    44     3    41    1
    45     3    42    1
    46     7    43    1
    47     7    44    1
    48     8    45    1
    49    10    46    1
    50    10    47    1
    51    10    48    1
    52    12    49    1
    53    14    50    1
    54    18    51    1
    55    22    52    1
    56    22    53    1
    57    27    54    1
    58    29    55    1
    59    35    56    1
    60    35    57    1
