
     RDKit          3D

 64 68  0  0  0  0  0  0  0  0999 V2000
   10.7315    0.5624   -1.7828 C   0  0  0  0  0  0  0  0  0  0  0  0
    9.9725    0.5321   -0.5833 O   0  0  0  0  0  0  0  0  0  0  0  0
    8.5972    0.3778   -0.6471 C   0  0  0  0  0  0  0  0  0  0  0  0
    7.9059    0.2489   -1.8341 C   0  0  0  0  0  0  0  0  0  0  0  0
    6.5271    0.0958   -1.8630 C   0  0  0  0  0  0  0  0  0  0  0  0
    5.8765   -0.0285   -3.0475 N   0  0  0  0  0  0  0  0  0  0  0  0
    4.5528   -0.1760   -3.0815 C   0  0  0  0  0  0  0  0  0  0  0  0
    3.8100   -0.2059   -1.9088 C   0  0  0  0  0  0  0  0  0  0  0  0
    4.4453   -0.0815   -0.6947 C   0  0  0  0  0  0  0  0  0  0  0  0
    3.8019   -0.0956    0.5362 O   0  0  0  0  0  0  0  0  0  0  0  0
    2.4102   -0.2014    0.5564 C   0  0  0  0  0  0  0  0  0  0  0  0
    1.7884   -1.2856    1.1445 C   0  0  0  0  0  0  0  0  0  0  0  0
    0.4233   -1.4307    1.1889 C   0  0  0  0  0  0  0  0  0  0  0  0
   -0.4179   -0.4618    0.6259 C   0  0  0  0  0  0  0  0  0  0  0  0
   -1.8081   -0.7005    0.7214 N   0  0  0  0  0  0  0  0  0  0  0  0
   -2.8395    0.1184    0.2372 C   0  0  0  0  0  0  0  0  0  0  0  0
   -2.4734    1.1984   -0.3562 O   0  0  0  0  0  0  0  0  0  0  0  0
   -4.2675   -0.1590    0.3542 C   0  0  0  0  0  0  0  0  0  0  0  0
   -4.9835   -1.1621    0.9280 C   0  0  0  0  0  0  0  0  0  0  0  0
   -4.4476   -2.3307    1.6527 C   0  0  0  0  0  0  0  0  0  0  0  0
   -6.3131   -0.9187    0.7312 N   0  0  0  0  0  0  0  0  0  0  0  0
   -7.3960   -1.7691    1.1996 C   0  0  0  0  0  0  0  0  0  0  0  0
   -6.4742    0.1981    0.0558 N   0  0  0  0  0  0  0  0  0  0  0  0
   -7.7123    0.7884   -0.3454 C   0  0  0  0  0  0  0  0  0  0  0  0
   -8.0241    2.1089   -0.0899 C   0  0  0  0  0  0  0  0  0  0  0  0
   -9.2126    2.6811   -0.4734 C   0  0  0  0  0  0  0  0  0  0  0  0
  -10.1464    1.9189   -1.1434 C   0  0  0  0  0  0  0  0  0  0  0  0
   -9.8631    0.5955   -1.4132 C   0  0  0  0  0  0  0  0  0  0  0  0
   -8.6619    0.0393   -1.0189 C   0  0  0  0  0  0  0  0  0  0  0  0
   -5.2485    0.6866   -0.1900 C   0  0  0  0  0  0  0  0  0  0  0  0
   -5.0314    1.7593   -0.8245 O   0  0  0  0  0  0  0  0  0  0  0  0
    0.2026    0.5984    0.0515 C   0  0  0  0  0  0  0  0  0  0  0  0
    1.5943    0.7530    0.0028 C   0  0  0  0  0  0  0  0  0  0  0  0
    2.1244    1.8677   -0.5868 F   0  0  0  0  0  0  0  0  0  0  0  0
    5.8390    0.0730   -0.6714 C   0  0  0  0  0  0  0  0  0  0  0  0
    6.5038    0.2003    0.5445 C   0  0  0  0  0  0  0  0  0  0  0  0
    7.8690    0.3493    0.5147 C   0  0  0  0  0  0  0  0  0  0  0  0
    8.5545    0.4785    1.7224 O   0  0  0  0  0  0  0  0  0  0  0  0
    7.8946    0.4614    2.9727 C   0  0  0  0  0  0  0  0  0  0  0  0
   10.4048   -0.1962   -2.5077 H   0  0  0  0  0  0  0  0  0  0  0  0
   11.8152    0.4530   -1.5636 H   0  0  0  0  0  0  0  0  0  0  0  0
   10.6128    1.5974   -2.2021 H   0  0  0  0  0  0  0  0  0  0  0  0
    8.4346    0.2657   -2.7677 H   0  0  0  0  0  0  0  0  0  0  0  0
    3.9840   -0.2795   -4.0022 H   0  0  0  0  0  0  0  0  0  0  0  0
    2.7373   -0.3339   -1.9155 H   0  0  0  0  0  0  0  0  0  0  0  0
    2.4017   -2.0743    1.6009 H   0  0  0  0  0  0  0  0  0  0  0  0
    0.0136   -2.3113    1.6691 H   0  0  0  0  0  0  0  0  0  0  0  0
   -2.1406   -1.5990    1.2105 H   0  0  0  0  0  0  0  0  0  0  0  0
   -5.3143   -2.9429    2.0538 H   0  0  0  0  0  0  0  0  0  0  0  0
   -3.8998   -3.0449    1.0349 H   0  0  0  0  0  0  0  0  0  0  0  0
   -3.9445   -1.9713    2.5663 H   0  0  0  0  0  0  0  0  0  0  0  0
   -8.3475   -1.1935    1.2950 H   0  0  0  0  0  0  0  0  0  0  0  0
   -7.5971   -2.6157    0.5136 H   0  0  0  0  0  0  0  0  0  0  0  0
   -7.1924   -2.1681    2.2147 H   0  0  0  0  0  0  0  0  0  0  0  0
   -7.3016    2.7158    0.4338 H   0  0  0  0  0  0  0  0  0  0  0  0
   -9.4649    3.7264   -0.2736 H   0  0  0  0  0  0  0  0  0  0  0  0
  -11.1062    2.3073   -1.4755 H   0  0  0  0  0  0  0  0  0  0  0  0
  -10.6020   -0.0214   -1.9476 H   0  0  0  0  0  0  0  0  0  0  0  0
   -8.4045   -0.9975   -1.2136 H   0  0  0  0  0  0  0  0  0  0  0  0
   -0.3553    1.3797   -0.3993 H   0  0  0  0  0  0  0  0  0  0  0  0
    5.9179    0.1756    1.4394 H   0  0  0  0  0  0  0  0  0  0  0  0
    7.1002    1.2376    2.9296 H   0  0  0  0  0  0  0  0  0  0  0  0
    7.4929   -0.5552    3.1580 H   0  0  0  0  0  0  0  0  0  0  0  0
    8.6521    0.7617    3.7427 H   0  0  0  0  0  0  0  0  0  0  0  0
  1  2  1  0
  2  3  1  0
  3  4  2  0
  4  5  1  0
  5  6  2  0
  6  7  1  0
  7  8  2  0
  8  9  1  0
  9 10  1  0
 10 11  1  0
 11 12  2  0
 12 13  1  0
 13 14  2  0
 14 15  1  0
 15 16  1  0
 16 17  2  0
 16 18  1  0
 18 19  2  0
 19 20  1  0
 19 21  1  0
 21 22  1  0
 21 23  1  0
 23 24  1  0
 24 25  2  0
 25 26  1  0
 26 27  2  0
 27 28  1  0
 28 29  2  0
 23 30  1  0
 30 31  2  0
 14 32  1  0
 32 33  2  0
 33 34  1  0
  9 35  2  0
 35 36  1  0
 36 37  2  0
 37 38  1  0
 38 39  1  0
 37  3  1  0
 35  5  1  0
 33 11  1  0
 30 18  1  0
 29 24  1  0
  1 40  1  0
  1 41  1  0
  1 42  1  0
  4 43  1  0
  7 44  1  0
  8 45  1  0
 12 46  1  0
 13 47  1  0
 15 48  1  0
 20 49  1  0
 20 50  1  0
 20 51  1  0
 22 52  1  0
 22 53  1  0
 22 54  1  0
 25 55  1  0
 26 56  1  0
 27 57  1  0
 28 58  1  0
 29 59  1  0
 32 60  1  0
 36 61  1  0
 39 62  1  0
 39 63  1  0
 39 64  1  0
M  END
$$$$
