@<TRIPOS>MOLECULE
*****
 64 68 0 0 0
SMALL
GASTEIGER

@<TRIPOS>ATOM
      1 C          10.7315    0.5624   -1.7828 C.3     1  UNL1        0.0790
      2 O           9.9725    0.5321   -0.5833 O.3     1  UNL1       -0.4914
      3 C           8.5972    0.3778   -0.6471 C.ar    1  UNL1        0.1635
      4 C           7.9059    0.2489   -1.8341 C.ar    1  UNL1        0.0098
      5 C           6.5271    0.0958   -1.8630 C.ar    1  UNL1        0.0782
      6 N           5.8765   -0.0285   -3.0475 N.ar    1  UNL1       -0.2546
      7 C           4.5528   -0.1760   -3.0815 C.ar    1  UNL1        0.0318
      8 C           3.8100   -0.2059   -1.9088 C.ar    1  UNL1       -0.0006
      9 C           4.4453   -0.0815   -0.6947 C.ar    1  UNL1        0.1393
     10 O           3.8019   -0.0956    0.5362 O.3     1  UNL1       -0.4524
     11 C           2.4102   -0.2014    0.5564 C.ar    1  UNL1        0.1636
     12 C           1.7884   -1.2856    1.1445 C.ar    1  UNL1       -0.0147
     13 C           0.4233   -1.4307    1.1889 C.ar    1  UNL1       -0.0368
     14 C          -0.4179   -0.4618    0.6259 C.ar    1  UNL1        0.0366
     15 N          -1.8081   -0.7005    0.7214 N.am    1  UNL1       -0.2812
     16 C          -2.8395    0.1184    0.2372 C.2     1  UNL1        0.2553
     17 O          -2.4734    1.1984   -0.3562 O.2     1  UNL1       -0.2696
     18 C          -4.2675   -0.1590    0.3542 C.ar    1  UNL1        0.1235
     19 C          -4.9835   -1.1621    0.9280 C.ar    1  UNL1        0.0504
     20 C          -4.4476   -2.3307    1.6527 C.3     1  UNL1       -0.0219
     21 N          -6.3131   -0.9187    0.7312 N.ar    1  UNL1       -0.2833
     22 C          -7.3960   -1.7691    1.1996 C.3     1  UNL1        0.0291
     23 N          -6.4742    0.1981    0.0558 N.ar    1  UNL1       -0.2166
     24 C          -7.7123    0.7884   -0.3454 C.ar    1  UNL1        0.0673
     25 C          -8.0241    2.1089   -0.0899 C.ar    1  UNL1       -0.0362
     26 C          -9.2126    2.6811   -0.4734 C.ar    1  UNL1       -0.0598
     27 C         -10.1464    1.9189   -1.1434 C.ar    1  UNL1       -0.0616
     28 C          -9.8631    0.5955   -1.4132 C.ar    1  UNL1       -0.0598
     29 C          -8.6619    0.0393   -1.0189 C.ar    1  UNL1       -0.0362
     30 C          -5.2485    0.6866   -0.1900 C.ar    1  UNL1        0.2843
     31 O          -5.0314    1.7593   -0.8245 O.2     1  UNL1       -0.2650
     32 C           0.2026    0.5984    0.0515 C.ar    1  UNL1       -0.0015
     33 C           1.5943    0.7530    0.0028 C.ar    1  UNL1        0.1672
     34 F           2.1244    1.8677   -0.5868 F       1  UNL1       -0.2016
     35 C           5.8390    0.0730   -0.6714 C.ar    1  UNL1        0.0463
     36 C           6.5038    0.2003    0.5445 C.ar    1  UNL1       -0.0036
     37 C           7.8690    0.3493    0.5147 C.ar    1  UNL1        0.1623
     38 O           8.5545    0.4785    1.7224 O.3     1  UNL1       -0.4914
     39 C           7.8946    0.4614    2.9727 C.3     1  UNL1        0.0790
     40 H          10.4048   -0.1962   -2.5077 H       1  UNL1        0.0660
     41 H          11.8152    0.4530   -1.5636 H       1  UNL1        0.0660
     42 H          10.6128    1.5974   -2.2021 H       1  UNL1        0.0660
     43 H           8.4346    0.2657   -2.7677 H       1  UNL1        0.0677
     44 H           3.9840   -0.2795   -4.0022 H       1  UNL1        0.0831
     45 H           2.7373   -0.3339   -1.9155 H       1  UNL1        0.0670
     46 H           2.4017   -2.0743    1.6009 H       1  UNL1        0.0656
     47 H           0.0136   -2.3113    1.6691 H       1  UNL1        0.0637
     48 H          -2.1406   -1.5990    1.2105 H       1  UNL1        0.1551
     49 H          -5.3143   -2.9429    2.0538 H       1  UNL1        0.0293
     50 H          -3.8998   -3.0449    1.0349 H       1  UNL1        0.0293
     51 H          -3.9445   -1.9713    2.5663 H       1  UNL1        0.0293
     52 H          -8.3475   -1.1935    1.2950 H       1  UNL1        0.0472
     53 H          -7.5971   -2.6157    0.5136 H       1  UNL1        0.0472
     54 H          -7.1924   -2.1681    2.2147 H       1  UNL1        0.0472
     55 H          -7.3016    2.7158    0.4338 H       1  UNL1        0.0639
     56 H          -9.4649    3.7264   -0.2736 H       1  UNL1        0.0618
     57 H         -11.1062    2.3073   -1.4755 H       1  UNL1        0.0618
     58 H         -10.6020   -0.0214   -1.9476 H       1  UNL1        0.0618
     59 H          -8.4045   -0.9975   -1.2136 H       1  UNL1        0.0639
     60 H          -0.3553    1.3797   -0.3993 H       1  UNL1        0.0666
     61 H           5.9179    0.1756    1.4394 H       1  UNL1        0.0663
     62 H           7.1002    1.2376    2.9296 H       1  UNL1        0.0660
     63 H           7.4929   -0.5552    3.1580 H       1  UNL1        0.0660
     64 H           8.6521    0.7617    3.7427 H       1  UNL1        0.0660
@<TRIPOS>BOND
     1     1     2    1
     2     2     3    1
     3     3     4   ar
     4     4     5   ar
     5     5     6   ar
     6     6     7   ar
     7     7     8   ar
     8     8     9   ar
     9     9    10    1
    10    10    11    1
    11    11    12   ar
    12    12    13   ar
    13    13    14   ar
    14    14    15    1
    15    15    16   am
    16    16    17    2
    17    16    18    1
    18    18    19   ar
    19    19    20    1
    20    19    21   ar
    21    21    22    1
    22    21    23   ar
    23    23    24    1
    24    24    25   ar
    25    25    26   ar
    26    26    27   ar
    27    27    28   ar
    28    28    29   ar
    29    23    30   ar
    30    30    31    2
    31    14    32   ar
    32    32    33   ar
    33    33    34    1
    34     9    35   ar
    35    35    36   ar
    36    36    37   ar
    37    37    38    1
    38    38    39    1
    39    37     3   ar
    40    35     5   ar
    41    33    11   ar
    42    30    18   ar
    43    29    24   ar
    44     1    40    1
    45     1    41    1
    46     1    42    1
    47     4    43    1
    48     7    44    1
    49     8    45    1
    50    12    46    1
    51    13    47    1
    52    15    48    1
    53    20    49    1
    54    20    50    1
    55    20    51    1
    56    22    52    1
    57    22    53    1
    58    22    54    1
    59    25    55    1
    60    26    56    1
    61    27    57    1
    62    28    58    1
    63    29    59    1
    64    32    60    1
    65    36    61    1
    66    39    62    1
    67    39    63    1
    68    39    64    1
