@<TRIPOS>MOLECULE
*****
 56 60 0 0 0
SMALL
GASTEIGER

@<TRIPOS>ATOM
      1 O           8.1669   -1.0847   -0.6067 O.2     1  UNL1       -0.2509
      2 C           8.4816   -0.0841    0.0840 C.2     1  UNL1        0.3072
      3 O           9.7816    0.3883   -0.0037 O.3     1  UNL1       -0.4806
      4 C           7.4751    0.5739    0.9752 C.3     1  UNL1        0.0710
      5 C           6.1382   -0.1174    0.8910 C.3     1  UNL1        0.0695
      6 C           5.6282   -0.0700   -0.5083 C.3     1  UNL1       -0.0234
      7 C           4.4317    0.8454   -0.3740 C.3     1  UNL1       -0.0213
      8 C           4.0172    0.5674    1.0384 C.3     1  UNL1        0.0729
      9 C           3.4067   -0.7774    1.2384 C.3     1  UNL1       -0.0079
     10 C           2.1674   -0.9228    0.3779 C.3     1  UNL1        0.0161
     11 N           1.2725    0.1468    0.7515 N.pl3   1  UNL1       -0.3150
     12 C          -0.1118   -0.0019    0.4274 C.ar    1  UNL1        0.1212
     13 C          -0.5695   -1.0934   -0.2766 C.ar    1  UNL1       -0.0210
     14 C          -1.9044   -1.2840   -0.6121 C.ar    1  UNL1       -0.0464
     15 C          -2.8255   -0.3327   -0.2221 C.ar    1  UNL1        0.0355
     16 C          -4.2419   -0.4438   -0.5237 C.ar    1  UNL1        0.1407
     17 N          -5.1702    0.4414   -0.1688 N.ar    1  UNL1       -0.2277
     18 C          -6.3920    0.0696   -0.5860 C.ar    1  UNL1        0.0900
     19 C          -7.6475    0.6276   -0.4724 C.ar    1  UNL1       -0.0226
     20 C          -8.7641    0.0200   -1.0066 C.ar    1  UNL1        0.0569
     21 C         -10.1052    0.6479   -0.8670 C.3     1  UNL1        0.4175
     22 F         -10.3963    1.4655   -1.9369 F       1  UNL1       -0.1659
     23 F         -11.0641   -0.3311   -0.7619 F       1  UNL1       -0.1659
     24 F         -10.0597    1.4475    0.2662 F       1  UNL1       -0.1659
     25 C          -8.5660   -1.1762   -1.6623 C.ar    1  UNL1       -0.0480
     26 C          -7.3139   -1.7452   -1.7827 C.ar    1  UNL1       -0.0357
     27 C          -6.2066   -1.1307   -1.2461 C.ar    1  UNL1        0.0665
     28 N          -4.8888   -1.4159   -1.1910 N.ar    1  UNL1       -0.3378
     29 C          -2.3301    0.7427    0.4790 C.ar    1  UNL1        0.0403
     30 N          -1.0331    0.9046    0.7916 N.ar    1  UNL1       -0.2396
     31 C           1.6582    1.3519    1.4208 C.3     1  UNL1        0.0161
     32 C           3.0996    1.6577    1.4926 C.3     1  UNL1       -0.0079
     33 O           5.2530    0.5908    1.6960 O.3     1  UNL1       -0.3695
     34 H          10.4559   -0.0281   -0.6471 H       1  UNL1        0.2951
     35 H           7.4431    1.6395    0.6876 H       1  UNL1        0.0403
     36 H           7.9045    0.5237    2.0050 H       1  UNL1        0.0403
     37 H           6.2720   -1.1382    1.2909 H       1  UNL1        0.0601
     38 H           6.3640    0.2975   -1.2466 H       1  UNL1        0.0291
     39 H           5.2859   -1.0639   -0.8651 H       1  UNL1        0.0291
     40 H           3.6473    0.6463   -1.1234 H       1  UNL1        0.0294
     41 H           4.8048    1.8955   -0.4136 H       1  UNL1        0.0294
     42 H           4.1294   -1.5969    1.0760 H       1  UNL1        0.0308
     43 H           3.0649   -0.8440    2.2902 H       1  UNL1        0.0308
     44 H           2.4059   -0.9250   -0.6993 H       1  UNL1        0.0465
     45 H           1.7661   -1.9355    0.6178 H       1  UNL1        0.0465
     46 H           0.1497   -1.8639   -0.5981 H       1  UNL1        0.0652
     47 H          -2.2458   -2.1500   -1.1662 H       1  UNL1        0.0626
     48 H          -7.7702    1.5693    0.0485 H       1  UNL1        0.0645
     49 H          -9.4130   -1.6796   -2.0946 H       1  UNL1        0.0624
     50 H          -7.1699   -2.6927   -2.3028 H       1  UNL1        0.0639
     51 H          -4.4412   -2.2517   -1.5968 H       1  UNL1        0.1674
     52 H          -3.0710    1.4978    0.7867 H       1  UNL1        0.0837
     53 H           1.1563    1.3998    2.4305 H       1  UNL1        0.0465
     54 H           1.1581    2.1886    0.8464 H       1  UNL1        0.0465
     55 H           3.3571    1.8559    2.5748 H       1  UNL1        0.0308
     56 H           3.3591    2.6215    0.9779 H       1  UNL1        0.0308
@<TRIPOS>BOND
     1     1     2    2
     2     2     3    1
     3     2     4    1
     4     4     5    1
     5     5     6    1
     6     6     7    1
     7     7     8    1
     8     8     9    1
     9     9    10    1
    10    10    11    1
    11    11    12    1
    12    12    13   ar
    13    13    14   ar
    14    14    15   ar
    15    15    16    1
    16    16    17   ar
    17    17    18   ar
    18    18    19   ar
    19    19    20   ar
    20    20    21    1
    21    21    22    1
    22    21    23    1
    23    21    24    1
    24    20    25   ar
    25    25    26   ar
    26    26    27   ar
    27    27    28   ar
    28    15    29   ar
    29    29    30   ar
    30    11    31    1
    31    31    32    1
    32     8    33    1
    33    33     5    1
    34    32     8    1
    35    30    12   ar
    36    28    16   ar
    37    27    18   ar
    38     3    34    1
    39     4    35    1
    40     4    36    1
    41     5    37    1
    42     6    38    1
    43     6    39    1
    44     7    40    1
    45     7    41    1
    46     9    42    1
    47     9    43    1
    48    10    44    1
    49    10    45    1
    50    13    46    1
    51    14    47    1
    52    19    48    1
    53    25    49    1
    54    26    50    1
    55    28    51    1
    56    29    52    1
    57    31    53    1
    58    31    54    1
    59    32    55    1
    60    32    56    1
