
     RDKit          3D

 56 60  0  0  0  0  0  0  0  0999 V2000
    8.1669   -1.0847   -0.6067 O   0  0  0  0  0  0  0  0  0  0  0  0
    8.4816   -0.0841    0.0840 C   0  0  0  0  0  0  0  0  0  0  0  0
    9.7816    0.3883   -0.0037 O   0  0  0  0  0  0  0  0  0  0  0  0
    7.4751    0.5739    0.9752 C   0  0  0  0  0  0  0  0  0  0  0  0
    6.1382   -0.1174    0.8910 C   0  0  0  0  0  0  0  0  0  0  0  0
    5.6282   -0.0700   -0.5083 C   0  0  0  0  0  0  0  0  0  0  0  0
    4.4317    0.8454   -0.3740 C   0  0  0  0  0  0  0  0  0  0  0  0
    4.0172    0.5674    1.0384 C   0  0  0  0  0  0  0  0  0  0  0  0
    3.4067   -0.7774    1.2384 C   0  0  0  0  0  0  0  0  0  0  0  0
    2.1674   -0.9228    0.3779 C   0  0  0  0  0  0  0  0  0  0  0  0
    1.2725    0.1468    0.7515 N   0  0  0  0  0  0  0  0  0  0  0  0
   -0.1118   -0.0019    0.4274 C   0  0  0  0  0  0  0  0  0  0  0  0
   -0.5695   -1.0934   -0.2766 C   0  0  0  0  0  0  0  0  0  0  0  0
   -1.9044   -1.2840   -0.6121 C   0  0  0  0  0  0  0  0  0  0  0  0
   -2.8255   -0.3327   -0.2221 C   0  0  0  0  0  0  0  0  0  0  0  0
   -4.2419   -0.4438   -0.5237 C   0  0  0  0  0  0  0  0  0  0  0  0
   -5.1702    0.4414   -0.1688 N   0  0  0  0  0  0  0  0  0  0  0  0
   -6.3920    0.0696   -0.5860 C   0  0  0  0  0  0  0  0  0  0  0  0
   -7.6475    0.6276   -0.4724 C   0  0  0  0  0  0  0  0  0  0  0  0
   -8.7641    0.0200   -1.0066 C   0  0  0  0  0  0  0  0  0  0  0  0
  -10.1052    0.6479   -0.8670 C   0  0  0  0  0  0  0  0  0  0  0  0
  -10.3963    1.4655   -1.9369 F   0  0  0  0  0  0  0  0  0  0  0  0
  -11.0641   -0.3311   -0.7619 F   0  0  0  0  0  0  0  0  0  0  0  0
  -10.0597    1.4475    0.2662 F   0  0  0  0  0  0  0  0  0  0  0  0
   -8.5660   -1.1762   -1.6623 C   0  0  0  0  0  0  0  0  0  0  0  0
   -7.3139   -1.7452   -1.7827 C   0  0  0  0  0  0  0  0  0  0  0  0
   -6.2066   -1.1307   -1.2461 C   0  0  0  0  0  0  0  0  0  0  0  0
   -4.8888   -1.4159   -1.1910 N   0  0  0  0  0  0  0  0  0  0  0  0
   -2.3301    0.7427    0.4790 C   0  0  0  0  0  0  0  0  0  0  0  0
   -1.0331    0.9046    0.7916 N   0  0  0  0  0  0  0  0  0  0  0  0
    1.6582    1.3519    1.4208 C   0  0  0  0  0  0  0  0  0  0  0  0
    3.0996    1.6577    1.4926 C   0  0  0  0  0  0  0  0  0  0  0  0
    5.2530    0.5908    1.6960 O   0  0  0  0  0  0  0  0  0  0  0  0
   10.4559   -0.0281   -0.6471 H   0  0  0  0  0  0  0  0  0  0  0  0
    7.4431    1.6395    0.6876 H   0  0  0  0  0  0  0  0  0  0  0  0
    7.9045    0.5237    2.0050 H   0  0  0  0  0  0  0  0  0  0  0  0
    6.2720   -1.1382    1.2909 H   0  0  0  0  0  0  0  0  0  0  0  0
    6.3640    0.2975   -1.2466 H   0  0  0  0  0  0  0  0  0  0  0  0
    5.2859   -1.0639   -0.8651 H   0  0  0  0  0  0  0  0  0  0  0  0
    3.6473    0.6463   -1.1234 H   0  0  0  0  0  0  0  0  0  0  0  0
    4.8048    1.8955   -0.4136 H   0  0  0  0  0  0  0  0  0  0  0  0
    4.1294   -1.5969    1.0760 H   0  0  0  0  0  0  0  0  0  0  0  0
    3.0649   -0.8440    2.2902 H   0  0  0  0  0  0  0  0  0  0  0  0
    2.4059   -0.9250   -0.6993 H   0  0  0  0  0  0  0  0  0  0  0  0
    1.7661   -1.9355    0.6178 H   0  0  0  0  0  0  0  0  0  0  0  0
    0.1497   -1.8639   -0.5981 H   0  0  0  0  0  0  0  0  0  0  0  0
   -2.2458   -2.1500   -1.1662 H   0  0  0  0  0  0  0  0  0  0  0  0
   -7.7702    1.5693    0.0485 H   0  0  0  0  0  0  0  0  0  0  0  0
   -9.4130   -1.6796   -2.0946 H   0  0  0  0  0  0  0  0  0  0  0  0
   -7.1699   -2.6927   -2.3028 H   0  0  0  0  0  0  0  0  0  0  0  0
   -4.4412   -2.2517   -1.5968 H   0  0  0  0  0  0  0  0  0  0  0  0
   -3.0710    1.4978    0.7867 H   0  0  0  0  0  0  0  0  0  0  0  0
    1.1563    1.3998    2.4305 H   0  0  0  0  0  0  0  0  0  0  0  0
    1.1581    2.1886    0.8464 H   0  0  0  0  0  0  0  0  0  0  0  0
    3.3571    1.8559    2.5748 H   0  0  0  0  0  0  0  0  0  0  0  0
    3.3591    2.6215    0.9779 H   0  0  0  0  0  0  0  0  0  0  0  0
  1  2  2  0
  2  3  1  0
  2  4  1  0
  4  5  1  0
  5  6  1  0
  6  7  1  0
  7  8  1  0
  8  9  1  0
  9 10  1  0
 10 11  1  0
 11 12  1  0
 12 13  2  0
 13 14  1  0
 14 15  2  0
 15 16  1  0
 16 17  2  0
 17 18  1  0
 18 19  2  0
 19 20  1  0
 20 21  1  0
 21 22  1  0
 21 23  1  0
 21 24  1  0
 20 25  2  0
 25 26  1  0
 26 27  2  0
 27 28  1  0
 15 29  1  0
 29 30  2  0
 11 31  1  0
 31 32  1  0
  8 33  1  0
 33  5  1  0
 32  8  1  0
 30 12  1  0
 28 16  1  0
 27 18  1  0
  3 34  1  0
  4 35  1  0
  4 36  1  0
  5 37  1  0
  6 38  1  0
  6 39  1  0
  7 40  1  0
  7 41  1  0
  9 42  1  0
  9 43  1  0
 10 44  1  0
 10 45  1  0
 13 46  1  0
 14 47  1  0
 19 48  1  0
 25 49  1  0
 26 50  1  0
 28 51  1  0
 29 52  1  0
 31 53  1  0
 31 54  1  0
 32 55  1  0
 32 56  1  0
M  END
$$$$
