@<TRIPOS>MOLECULE
*****
 53 57 0 0 0
SMALL
GASTEIGER

@<TRIPOS>ATOM
      1 C          -0.0920    0.6057    2.3271 C.3     1  UNL1        0.0790
      2 O          -0.7638    0.4707    1.0979 O.3     1  UNL1       -0.4914
      3 C          -0.0562    0.1919   -0.0532 C.ar    1  UNL1        0.1623
      4 C           1.3394    0.0536    0.0689 C.ar    1  UNL1       -0.0038
      5 C           2.1187   -0.2209   -1.0085 C.ar    1  UNL1        0.0441
      6 C           3.4883   -0.3682   -0.9512 C.ar    1  UNL1        0.1340
      7 N           4.1696   -0.2095    0.2795 N.pl3   1  UNL1       -0.2988
      8 C           5.5520   -0.4592    0.3739 C.ar    1  UNL1        0.0339
      9 C           6.2774    0.2357    1.3381 C.ar    1  UNL1       -0.0390
     10 C           7.6279    0.0604    1.5350 C.ar    1  UNL1       -0.0402
     11 C           8.2977   -0.8513    0.7355 C.ar    1  UNL1        0.0594
     12 CL         10.0214   -1.0823    0.9795 Cl      1  UNL1       -0.0820
     13 C           7.6174   -1.5559   -0.2254 C.ar    1  UNL1        0.0610
     14 CL          8.4926   -2.6956   -1.2138 Cl      1  UNL1       -0.0820
     15 C           6.2411   -1.3513   -0.3975 C.ar    1  UNL1       -0.0207
     16 N           4.1876   -0.6452   -2.0909 N.ar    1  UNL1       -0.2200
     17 C           3.5955   -0.7793   -3.2615 C.ar    1  UNL1        0.1187
     18 N           2.2730   -0.6380   -3.3227 N.ar    1  UNL1       -0.2352
     19 C           1.4951   -0.3637   -2.2508 C.ar    1  UNL1        0.0797
     20 C           0.1494   -0.2253   -2.3394 C.ar    1  UNL1        0.0099
     21 C          -0.6955    0.0575   -1.2575 C.ar    1  UNL1        0.1646
     22 O          -2.0375    0.1792   -1.4366 O.3     1  UNL1       -0.4801
     23 C          -3.0925    0.4468   -0.6205 C.3     1  UNL1        0.1519
     24 C          -3.9123    1.6096   -1.1531 C.3     1  UNL1        0.0877
     25 O          -5.1563    1.1533   -1.4878 O.3     1  UNL1       -0.3675
     26 C          -5.3955   -0.0136   -0.7887 C.3     1  UNL1        0.1166
     27 C          -5.6730    0.2220    0.6736 C.3     1  UNL1        0.1101
     28 O          -7.0288    0.0887    0.9745 O.3     1  UNL1       -0.3748
     29 C          -7.4740    1.2859    1.5227 C.3     1  UNL1        0.0370
     30 C          -4.8292   -0.7923    1.3595 C.3     1  UNL1        0.0770
     31 O          -4.0821   -1.4769    0.4317 O.3     1  UNL1       -0.3675
     32 C          -4.0725   -0.7342   -0.7385 C.3     1  UNL1        0.1262
     33 H           0.4576   -0.3549    2.4961 H       1  UNL1        0.0660
     34 H          -0.7597    0.8191    3.1671 H       1  UNL1        0.0660
     35 H           0.6942    1.3968    2.2954 H       1  UNL1        0.0660
     36 H           1.7967    0.1667    1.0410 H       1  UNL1        0.0663
     37 H           3.6760    0.1011    1.1665 H       1  UNL1        0.1536
     38 H           5.7936    0.9605    1.9883 H       1  UNL1        0.0636
     39 H           8.1587    0.6230    2.2989 H       1  UNL1        0.0633
     40 H           5.7787   -1.9536   -1.1643 H       1  UNL1        0.0651
     41 H           4.2129   -1.0012   -4.1374 H       1  UNL1        0.1048
     42 H          -0.3339   -0.3355   -3.3012 H       1  UNL1        0.0677
     43 H          -2.8956    0.6570    0.4441 H       1  UNL1        0.0784
     44 H          -4.0157    2.4246   -0.4089 H       1  UNL1        0.0598
     45 H          -3.4189    1.9986   -2.0853 H       1  UNL1        0.0598
     46 H          -6.1827   -0.6166   -1.2820 H       1  UNL1        0.0650
     47 H          -5.2973    1.2406    0.9436 H       1  UNL1        0.0646
     48 H          -7.3357    2.1190    0.8076 H       1  UNL1        0.0524
     49 H          -8.5498    1.1344    1.7896 H       1  UNL1        0.0524
     50 H          -6.8964    1.5250    2.4479 H       1  UNL1        0.0524
     51 H          -5.4442   -1.4941    1.9959 H       1  UNL1        0.0587
     52 H          -4.1283   -0.3013    2.0864 H       1  UNL1        0.0587
     53 H          -3.8935   -1.3076   -1.6485 H       1  UNL1        0.0661
@<TRIPOS>BOND
     1     1     2    1
     2     2     3    1
     3     3     4   ar
     4     4     5   ar
     5     5     6   ar
     6     6     7    1
     7     7     8    1
     8     8     9   ar
     9     9    10   ar
    10    10    11   ar
    11    11    12    1
    12    11    13   ar
    13    13    14    1
    14    13    15   ar
    15     6    16   ar
    16    16    17   ar
    17    17    18   ar
    18    18    19   ar
    19    19    20   ar
    20    20    21   ar
    21    21    22    1
    22    22    23    1
    23    23    24    1
    24    24    25    1
    25    25    26    1
    26    26    27    1
    27    27    28    1
    28    28    29    1
    29    27    30    1
    30    30    31    1
    31    31    32    1
    32    21     3   ar
    33    32    23    1
    34    19     5   ar
    35    32    26    1
    36    15     8   ar
    37     1    33    1
    38     1    34    1
    39     1    35    1
    40     4    36    1
    41     7    37    1
    42     9    38    1
    43    10    39    1
    44    15    40    1
    45    17    41    1
    46    20    42    1
    47    23    43    1
    48    24    44    1
    49    24    45    1
    50    26    46    1
    51    27    47    1
    52    29    48    1
    53    29    49    1
    54    29    50    1
    55    30    51    1
    56    30    52    1
    57    32    53    1
