@<TRIPOS>MOLECULE
*****
 76 81 0 0 0
SMALL
GASTEIGER

@<TRIPOS>ATOM
      1 C          -3.5164   -6.6823   -3.7583 C.3     1  UNL1        0.0804
      2 O          -2.9636   -5.8657   -2.7739 O.3     1  UNL1       -0.4795
      3 C          -2.4525   -4.6167   -3.1491 C.ar    1  UNL1        0.2191
      4 C          -1.8933   -3.7642   -2.2195 C.ar    1  UNL1        0.0404
      5 C          -1.3962   -2.5421   -2.6028 C.ar    1  UNL1        0.1364
      6 N          -0.8127   -1.6201   -1.7009 N.am    1  UNL1       -0.2240
      7 C           0.5489   -1.5006   -1.2976 C.2     1  UNL1        0.3219
      8 O           1.3937   -2.4272   -1.4946 O.2     1  UNL1       -0.2512
      9 N           0.8012   -0.2602   -0.6785 N.am    1  UNL1       -0.1920
     10 C           2.0370    0.2404   -0.1379 C.ar    1  UNL1        0.0455
     11 C           2.3600    0.0072    1.1803 C.ar    1  UNL1       -0.0392
     12 C           3.5510    0.5035    1.6626 C.ar    1  UNL1       -0.0523
     13 C           4.4268    1.2245    0.8685 C.ar    1  UNL1       -0.0175
     14 C           5.6462    1.7079    1.4824 C.ar    1  UNL1       -0.0149
     15 C           5.6296    2.3833    2.7084 C.ar    1  UNL1       -0.0530
     16 C           6.8077    2.8372    3.2593 C.ar    1  UNL1       -0.0472
     17 C           8.0316    2.6571    2.6527 C.ar    1  UNL1        0.0591
     18 C           9.2627    3.1488    3.2579 C.2     1  UNL1        0.3368
     19 O           9.1800    3.7470    4.3570 O.2     1  UNL1       -0.2451
     20 O          10.5154    2.9954    2.6933 O.3     1  UNL1       -0.4771
     21 C           8.0380    1.9909    1.4461 C.ar    1  UNL1       -0.0443
     22 C           6.8540    1.5212    0.8683 C.ar    1  UNL1       -0.0420
     23 C           6.9499    0.8093   -0.4220 C.3     1  UNL1       -0.0391
     24 C           4.0567    1.4291   -0.4393 C.ar    1  UNL1       -0.0523
     25 C           2.8753    0.9505   -0.9624 C.ar    1  UNL1       -0.0392
     26 C          -0.4469    0.4359   -0.6881 C.2     1  UNL1        0.2516
     27 O          -0.5482    1.6700   -0.4832 O.2     1  UNL1       -0.2724
     28 C          -1.5227   -0.5582   -0.9745 C.3     1  UNL1        0.1240
     29 C          -2.5625    0.0116   -1.8806 C.3     1  UNL1       -0.0095
     30 C          -3.7569    0.5107   -1.0681 C.3     1  UNL1        0.0017
     31 N          -4.3682   -0.4981   -0.3179 N.3     1  UNL1       -0.2965
     32 C          -5.5671   -0.2869    0.3763 C.3     1  UNL1        0.0415
     33 C          -5.4213    0.7431    1.4356 C.ar    1  UNL1        0.0581
     34 N          -5.1375    0.3215    2.7106 N.ar    1  UNL1       -0.2583
     35 C          -4.9451    1.1020    3.7500 C.ar    1  UNL1        0.0279
     36 C          -5.0321    2.4670    3.5624 C.ar    1  UNL1       -0.0433
     37 C          -5.3113    2.9681    2.3260 C.ar    1  UNL1       -0.0557
     38 C          -5.5098    2.0972    1.2465 C.ar    1  UNL1       -0.0279
     39 C          -5.8533    2.6591   -0.0794 C.3     1  UNL1       -0.0380
     40 C          -3.5229   -1.5310    0.2126 C.3     1  UNL1        0.0017
     41 C          -2.1135   -1.0239    0.3139 C.3     1  UNL1       -0.0095
     42 N          -1.4746   -2.2137   -3.9003 N.ar    1  UNL1       -0.2200
     43 C          -2.0183   -3.0454   -4.7957 C.ar    1  UNL1        0.1219
     44 N          -2.4983   -4.2252   -4.4265 N.ar    1  UNL1       -0.2013
     45 H          -3.1442   -7.7197   -3.6012 H       1  UNL1        0.0660
     46 H          -4.6408   -6.6865   -3.7323 H       1  UNL1        0.0660
     47 H          -3.2268   -6.3587   -4.7808 H       1  UNL1        0.0660
     48 H          -1.8522   -4.0785   -1.1697 H       1  UNL1        0.0705
     49 H           1.6684   -0.5612    1.8053 H       1  UNL1        0.0636
     50 H           3.8100    0.3226    2.6985 H       1  UNL1        0.0624
     51 H           4.6663    2.5190    3.1749 H       1  UNL1        0.0624
     52 H           6.8010    3.3602    4.2070 H       1  UNL1        0.0626
     53 H          11.3842    3.1847    3.1720 H       1  UNL1        0.2954
     54 H           8.9958    1.8473    0.9662 H       1  UNL1        0.0628
     55 H           7.9414    0.2603   -0.4522 H       1  UNL1        0.0278
     56 H           6.1192    0.1056   -0.6157 H       1  UNL1        0.0278
     57 H           7.0741    1.5815   -1.2296 H       1  UNL1        0.0278
     58 H           4.7337    1.9967   -1.0690 H       1  UNL1        0.0624
     59 H           2.6033    1.1283   -2.0132 H       1  UNL1        0.0636
     60 H          -2.9554   -0.7186   -2.6003 H       1  UNL1        0.0303
     61 H          -2.1258    0.9209   -2.3663 H       1  UNL1        0.0303
     62 H          -4.4480    0.9583   -1.8250 H       1  UNL1        0.0427
     63 H          -3.3667    1.3239   -0.4276 H       1  UNL1        0.0427
     64 H          -5.9121   -1.2284    0.9079 H       1  UNL1        0.0491
     65 H          -6.4397   -0.0523   -0.2938 H       1  UNL1        0.0491
     66 H          -4.7256    0.6447    4.7144 H       1  UNL1        0.0829
     67 H          -4.8711    3.1147    4.4291 H       1  UNL1        0.0633
     68 H          -5.3857    4.0414    2.1511 H       1  UNL1        0.0621
     69 H          -6.3490    1.9190   -0.7321 H       1  UNL1        0.0278
     70 H          -6.5691    3.5146    0.1142 H       1  UNL1        0.0278
     71 H          -4.9523    3.1063   -0.5644 H       1  UNL1        0.0278
     72 H          -3.6305   -2.4960   -0.2896 H       1  UNL1        0.0427
     73 H          -3.8657   -1.6820    1.2804 H       1  UNL1        0.0427
     74 H          -2.1146   -0.2033    1.0825 H       1  UNL1        0.0303
     75 H          -1.4941   -1.8319    0.7758 H       1  UNL1        0.0303
     76 H          -2.0484   -2.7112   -5.8359 H       1  UNL1        0.1049
@<TRIPOS>BOND
     1     1     2    1
     2     2     3    1
     3     3     4   ar
     4     4     5   ar
     5     5     6    1
     6     6     7   am
     7     7     8    2
     8     7     9   am
     9     9    10    1
    10    10    11   ar
    11    11    12   ar
    12    12    13   ar
    13    13    14    1
    14    14    15   ar
    15    15    16   ar
    16    16    17   ar
    17    17    18    1
    18    18    19    2
    19    18    20    1
    20    17    21   ar
    21    21    22   ar
    22    22    23    1
    23    13    24   ar
    24    24    25   ar
    25     9    26   am
    26    26    27    2
    27    26    28    1
    28    28    29    1
    29    29    30    1
    30    30    31    1
    31    31    32    1
    32    32    33    1
    33    33    34   ar
    34    34    35   ar
    35    35    36   ar
    36    36    37   ar
    37    37    38   ar
    38    38    39    1
    39    31    40    1
    40    40    41    1
    41     5    42   ar
    42    42    43   ar
    43    43    44   ar
    44    44     3   ar
    45    28     6    1
    46    38    33   ar
    47    25    10   ar
    48    41    28    1
    49    22    14   ar
    50     1    45    1
    51     1    46    1
    52     1    47    1
    53     4    48    1
    54    11    49    1
    55    12    50    1
    56    15    51    1
    57    16    52    1
    58    20    53    1
    59    21    54    1
    60    23    55    1
    61    23    56    1
    62    23    57    1
    63    24    58    1
    64    25    59    1
    65    29    60    1
    66    29    61    1
    67    30    62    1
    68    30    63    1
    69    32    64    1
    70    32    65    1
    71    35    66    1
    72    36    67    1
    73    37    68    1
    74    39    69    1
    75    39    70    1
    76    39    71    1
    77    40    72    1
    78    40    73    1
    79    41    74    1
    80    41    75    1
    81    43    76    1
