@<TRIPOS>MOLECULE
*****
 36 38 0 0 0
SMALL
GASTEIGER

@<TRIPOS>ATOM
      1 C          -5.4464    1.6777    0.6719 C.3     1  UNL1        0.0790
      2 O          -4.6790    0.6127    0.1896 O.3     1  UNL1       -0.4914
      3 C          -3.3120    0.5591    0.1833 C.ar    1  UNL1        0.1635
      4 C          -2.6044    1.6249    0.6854 C.ar    1  UNL1        0.0098
      5 C          -1.2031    1.6366    0.7101 C.ar    1  UNL1        0.0797
      6 N          -0.5454    2.6910    1.2033 N.ar    1  UNL1       -0.2352
      7 C           0.7915    2.6925    1.2192 C.ar    1  UNL1        0.1187
      8 N           1.4496    1.6415    0.7423 N.ar    1  UNL1       -0.2200
      9 C           0.8472    0.5485    0.2321 C.ar    1  UNL1        0.1340
     10 N           1.5563   -0.5468   -0.2708 N.pl3   1  UNL1       -0.2989
     11 C           2.9750   -0.6052   -0.2113 C.ar    1  UNL1        0.0324
     12 C           3.6520   -1.2910   -1.2161 C.ar    1  UNL1       -0.0405
     13 C           5.0011   -1.3870   -1.1903 C.ar    1  UNL1       -0.0600
     14 C           5.7111   -0.8068   -0.1700 C.ar    1  UNL1       -0.0616
     15 C           5.0493   -0.1345    0.8155 C.ar    1  UNL1       -0.0600
     16 C           3.6863   -0.0331    0.7975 C.ar    1  UNL1       -0.0405
     17 C          -0.5490    0.5231    0.2046 C.ar    1  UNL1        0.0441
     18 C          -1.2835   -0.5291   -0.2916 C.ar    1  UNL1       -0.0038
     19 C          -2.6796   -0.5523   -0.3216 C.ar    1  UNL1        0.1623
     20 O          -3.3786   -1.6361   -0.8317 O.3     1  UNL1       -0.4914
     21 C          -2.8121   -2.7969   -1.3524 C.3     1  UNL1        0.0790
     22 H          -6.4958    1.2891    0.8100 H       1  UNL1        0.0660
     23 H          -5.5213    2.5248   -0.0401 H       1  UNL1        0.0660
     24 H          -5.1173    2.0223    1.6708 H       1  UNL1        0.0660
     25 H          -3.0868    2.5162    1.0904 H       1  UNL1        0.0677
     26 H           1.3691    3.5360    1.6147 H       1  UNL1        0.1048
     27 H           1.0838   -1.3477   -0.7016 H       1  UNL1        0.1536
     28 H           3.0862   -1.7390   -2.0057 H       1  UNL1        0.0636
     29 H           5.5824   -1.9131   -1.9534 H       1  UNL1        0.0618
     30 H           6.7947   -0.8811   -0.1456 H       1  UNL1        0.0618
     31 H           5.5958    0.3286    1.6279 H       1  UNL1        0.0618
     32 H           3.1969    0.4932    1.5973 H       1  UNL1        0.0636
     33 H          -0.7919   -1.3941   -0.6850 H       1  UNL1        0.0663
     34 H          -3.5300   -3.6431   -1.4066 H       1  UNL1        0.0660
     35 H          -1.8685   -3.0976   -0.8477 H       1  UNL1        0.0660
     36 H          -2.5237   -2.5833   -2.4242 H       1  UNL1        0.0660
@<TRIPOS>BOND
     1     1     2    1
     2     2     3    1
     3     3     4   ar
     4     4     5   ar
     5     5     6   ar
     6     6     7   ar
     7     7     8   ar
     8     8     9   ar
     9     9    10    1
    10    10    11    1
    11    11    12   ar
    12    12    13   ar
    13    13    14   ar
    14    14    15   ar
    15    15    16   ar
    16     9    17   ar
    17    17    18   ar
    18    18    19   ar
    19    19    20    1
    20    20    21    1
    21    19     3   ar
    22    17     5   ar
    23    16    11   ar
    24     1    22    1
    25     1    23    1
    26     1    24    1
    27     4    25    1
    28     7    26    1
    29    10    27    1
    30    12    28    1
    31    13    29    1
    32    14    30    1
    33    15    31    1
    34    16    32    1
    35    18    33    1
    36    21    34    1
    37    21    35    1
    38    21    36    1
