@<TRIPOS>MOLECULE
*****
 151 153 0 0 0
SMALL
GASTEIGER

@<TRIPOS>ATOM
      1 C          -2.6383   -1.4389   -0.0221 C.3     1  UNL1        0.1153
      2 O          -2.0277   -0.5968    0.8607 O.3     1  UNL1       -0.3395
      3 C          -0.6368   -0.9827    0.7511 C.3     1  UNL1        0.1807
      4 C          -0.2867   -0.6456   -0.6596 C.3     1  UNL1        0.0284
      5 C           1.1834   -0.5222   -0.8842 C.3     1  UNL1        0.0651
      6 O           1.3465    0.4409   -1.9160 O.3     1  UNL1       -0.3913
      7 C           1.9547   -0.0098    0.3091 C.3     1  UNL1        0.0090
      8 C           2.8301   -1.0644    0.8839 C.3     1  UNL1       -0.0577
      9 C           0.9960    0.5616    1.3095 C.3     1  UNL1        0.0703
     10 C           1.7756    1.0261    2.5776 C.3     1  UNL1       -0.0076
     11 C           2.8018    1.9693    2.1746 C.2     1  UNL1       -0.0795
     12 C           3.4185    3.1184    2.1195 C.2     1  UNL1       -0.0371
     13 C           4.6370    3.3809    1.3648 C.ar    1  UNL1        0.1018
     14 C           5.4441    4.4684    1.2153 C.ar    1  UNL1        0.1194
     15 O           6.3982    4.1357    0.3895 O.2     1  UNL1       -0.4470
     16 C           6.3185    2.9153   -0.0403 C.ar    1  UNL1        0.1987
     17 N           5.2213    2.4678    0.5770 N.ar    1  UNL1       -0.2137
     18 C           6.9948    1.9420   -0.9240 C.3     1  UNL1        0.0341
     19 C           7.0524    2.5418   -2.3239 C.3     1  UNL1       -0.0539
     20 C           8.3970    1.5590   -0.4557 C.3     1  UNL1       -0.0264
     21 C           8.8806    0.5427   -1.4562 C.3     1  UNL1        0.0124
     22 N          10.1924    0.0117   -1.2728 N.am    1  UNL1       -0.3131
     23 C          10.8059   -0.7325   -0.1622 C.2     1  UNL1        0.2443
     24 O           9.6526   -0.5818    0.3848 O.2     1  UNL1       -0.2729
     25 C          12.1952   -1.0842   -0.4555 C.3     1  UNL1        0.1580
     26 O          12.6304   -0.7846   -1.7197 O.3     1  UNL1       -0.3799
     27 C          13.1513   -0.4241    0.5334 C.3     1  UNL1        0.1071
     28 O          14.4195   -0.9892    0.3309 O.3     1  UNL1       -0.3871
     29 C          13.2869    1.0442    0.2580 C.3     1  UNL1        0.0622
     30 C          14.4607    1.6039    1.0480 C.3     1  UNL1        0.0653
     31 O          15.5596    0.7993    0.7771 O.3     1  UNL1       -0.3813
     32 C          16.7058    1.2079    1.4483 C.3     1  UNL1        0.0365
     33 N          12.0716    1.7729    0.4281 N.3     1  UNL1       -0.3009
     34 C          11.5265    1.7695    1.7487 C.3     1  UNL1       -0.0126
     35 C          12.1423    3.0607   -0.1995 C.3     1  UNL1       -0.0126
     36 O           0.0674   -0.3680    1.7011 O.3     1  UNL1       -0.3440
     37 C          -0.7732   -2.4583    1.0294 C.3     1  UNL1        0.0484
     38 C           0.3876   -3.3293    0.8192 C.3     1  UNL1       -0.0524
     39 C          -1.2022   -2.6365    2.4962 C.3     1  UNL1       -0.0524
     40 C          -1.9490   -2.7859    0.1016 C.3     1  UNL1        0.1086
     41 O          -2.7275   -3.7768    0.6734 O.3     1  UNL1       -0.2801
     42 P          -2.3965   -5.2464   -0.0916 P.3     1  UNL1        0.4727
     43 O          -1.2673   -4.9924   -1.3209 O.3     1  UNL1       -0.3026
     44 O          -3.8397   -5.7767   -0.8437 O.3     1  UNL1       -0.3026
     45 O          -1.9371   -6.2828    0.9139 O.2     1  UNL1       -0.2275
     46 C          -4.1290   -1.7431    0.3842 C.3     1  UNL1        0.0893
     47 C          -4.8089   -2.2892   -0.8044 C.3     1  UNL1        0.0024
     48 C          -6.1221   -2.8067   -0.9247 C.3     1  UNL1        0.0626
     49 O          -6.3605   -3.1933   -2.2968 O.3     1  UNL1       -0.3913
     50 C          -7.3914   -2.3021   -0.3742 C.3     1  UNL1        0.0088
     51 C          -7.3819   -2.2857    1.1150 C.3     1  UNL1       -0.0577
     52 C          -8.5409   -3.1499   -0.8673 C.3     1  UNL1        0.0661
     53 O          -8.5327   -3.0031   -2.2819 O.3     1  UNL1       -0.3909
     54 C          -9.8928   -2.8126   -0.3290 C.3     1  UNL1        0.0012
     55 C         -10.9105   -3.7873   -0.9632 C.3     1  UNL1       -0.0566
     56 C         -10.2920   -1.4284   -0.3242 C.2     1  UNL1       -0.0756
     57 C         -11.2890   -0.6575   -0.7040 C.2     1  UNL1       -0.0511
     58 C         -12.4201   -1.3030   -1.3610 C.3     1  UNL1       -0.0397
     59 C         -11.1750    0.7833   -0.3762 C.2     1  UNL1       -0.0478
     60 C         -10.1637    1.4886    0.4028 C.3     1  UNL1       -0.0395
     61 C         -12.1494    1.5739   -0.7736 C.2     1  UNL1       -0.0586
     62 C         -12.1895    3.0049   -0.5260 C.2     1  UNL1       -0.0612
     63 C         -13.1088    3.8564   -0.8742 C.2     1  UNL1       -0.0582
     64 C         -13.0745    5.3079   -0.5788 C.2     1  UNL1       -0.0403
     65 C         -12.0112    6.0044    0.1474 C.3     1  UNL1       -0.0391
     66 C         -14.0954    6.0649   -0.9970 C.2     1  UNL1        0.0183
     67 C         -15.1991    5.4484   -1.7231 C.1     1  UNL1        0.0916
     68 N         -16.0651    4.9590   -2.3161 N.1     1  UNL1       -0.1915
     69 O          -4.6273   -0.4128    0.5413 O.3     1  UNL1       -0.3770
     70 C          -4.7733   -0.0509    1.8550 C.3     1  UNL1        0.0369
     71 H          -2.6714   -1.0563   -1.0254 H       1  UNL1        0.0649
     72 H          -0.7058   -1.3127   -1.4098 H       1  UNL1        0.0342
     73 H          -0.7448    0.3682   -0.8861 H       1  UNL1        0.0342
     74 H           1.6618   -1.4389   -1.3295 H       1  UNL1        0.0598
     75 H           2.2694    0.3679   -2.2266 H       1  UNL1        0.2098
     76 H           2.6555    0.8281   -0.0643 H       1  UNL1        0.0348
     77 H           3.9395   -0.8305    0.8251 H       1  UNL1        0.0234
     78 H           2.5895   -1.3791    1.9056 H       1  UNL1        0.0234
     79 H           2.7783   -1.9922    0.2354 H       1  UNL1        0.0234
     80 H           0.5253    1.5013    0.9405 H       1  UNL1        0.0603
     81 H           1.0049    1.5708    3.2185 H       1  UNL1        0.0333
     82 H           2.1609    0.1557    3.1280 H       1  UNL1        0.0333
     83 H           3.4136    1.2559    1.5949 H       1  UNL1        0.0574
     84 H           2.7812    3.7150    2.7473 H       1  UNL1        0.0637
     85 H           5.1227    5.3147    1.7859 H       1  UNL1        0.1052
     86 H           6.4469    0.9926   -1.0303 H       1  UNL1        0.0393
     87 H           6.2188    3.2782   -2.4165 H       1  UNL1        0.0237
     88 H           7.9922    3.0987   -2.4917 H       1  UNL1        0.0237
     89 H           6.9470    1.7405   -3.0794 H       1  UNL1        0.0237
     90 H           8.3063    1.1975    0.5608 H       1  UNL1        0.0287
     91 H           8.9869    2.4915   -0.4330 H       1  UNL1        0.0287
     92 H           8.1475   -0.3231   -1.3641 H       1  UNL1        0.0462
     93 H           8.7052    0.9355   -2.4840 H       1  UNL1        0.0462
     94 H          10.7752    0.2581   -2.1714 H       1  UNL1        0.1488
     95 H          12.2945   -2.1999   -0.2737 H       1  UNL1        0.0717
     96 H          13.2384   -1.4584   -2.0736 H       1  UNL1        0.2105
     97 H          12.8368   -0.5956    1.5457 H       1  UNL1        0.0641
     98 H          14.4087   -1.9301    0.6386 H       1  UNL1        0.2100
     99 H          13.5746    1.1395   -0.8223 H       1  UNL1        0.0511
    100 H          14.2845    1.5676    2.1257 H       1  UNL1        0.0576
    101 H          14.7045    2.6239    0.6729 H       1  UNL1        0.0576
    102 H          17.5832    0.5594    1.2212 H       1  UNL1        0.0523
    103 H          16.5462    1.1856    2.5658 H       1  UNL1        0.0523
    104 H          16.9742    2.2399    1.1624 H       1  UNL1        0.0523
    105 H          11.9186    0.9911    2.4265 H       1  UNL1        0.0391
    106 H          11.7471    2.7655    2.2005 H       1  UNL1        0.0391
    107 H          10.4238    1.6742    1.7423 H       1  UNL1        0.0391
    108 H          12.2478    2.8744   -1.2941 H       1  UNL1        0.0391
    109 H          11.1663    3.5524   -0.0387 H       1  UNL1        0.0391
    110 H          12.9921    3.6853    0.1650 H       1  UNL1        0.0391
    111 H           0.0273   -4.3929    0.9744 H       1  UNL1        0.0237
    112 H           1.0872   -3.1932    1.6786 H       1  UNL1        0.0237
    113 H           0.8549   -3.3385   -0.1631 H       1  UNL1        0.0237
    114 H          -1.8918   -3.4681    2.6435 H       1  UNL1        0.0237
    115 H          -0.2812   -2.8565    3.0763 H       1  UNL1        0.0237
    116 H          -1.5969   -1.6681    2.9024 H       1  UNL1        0.0237
    117 H          -1.4856   -3.0451   -0.8576 H       1  UNL1        0.0636
    118 H          -1.7676   -4.6216   -2.0901 H       1  UNL1        0.2220
    119 H          -3.8562   -5.3869   -1.7465 H       1  UNL1        0.2220
    120 H          -4.0529   -2.2234    1.3035 H       1  UNL1        0.0623
    121 H          -4.6752   -1.4618   -1.6479 H       1  UNL1        0.0316
    122 H          -4.0745   -3.0450   -1.2570 H       1  UNL1        0.0316
    123 H          -6.1138   -3.9209   -0.4804 H       1  UNL1        0.0597
    124 H          -5.4573   -3.4441   -2.6725 H       1  UNL1        0.2098
    125 H          -7.6575   -1.2712   -0.7959 H       1  UNL1        0.0348
    126 H          -8.1157   -2.9728    1.5947 H       1  UNL1        0.0234
    127 H          -6.3888   -2.6623    1.5019 H       1  UNL1        0.0234
    128 H          -7.5746   -1.2922    1.5740 H       1  UNL1        0.0234
    129 H          -8.2916   -4.2324   -0.6390 H       1  UNL1        0.0602
    130 H          -8.5096   -2.0220   -2.4303 H       1  UNL1        0.2098
    131 H          -9.9315   -3.1529    0.7646 H       1  UNL1        0.0366
    132 H         -11.6467   -4.1719   -0.2602 H       1  UNL1        0.0236
    133 H         -11.2504   -3.4123   -1.9336 H       1  UNL1        0.0236
    134 H         -10.3293   -4.7330   -1.2616 H       1  UNL1        0.0236
    135 H          -9.4426   -0.9638    0.1527 H       1  UNL1        0.0578
    136 H         -13.3059   -0.6094   -1.1788 H       1  UNL1        0.0278
    137 H         -12.7850   -2.2143   -0.7901 H       1  UNL1        0.0278
    138 H         -12.3964   -1.4142   -2.4367 H       1  UNL1        0.0278
    139 H          -9.3007    0.9298    0.7470 H       1  UNL1        0.0278
    140 H          -9.7645    2.3108   -0.2553 H       1  UNL1        0.0278
    141 H         -10.6901    1.9976    1.2518 H       1  UNL1        0.0278
    142 H         -13.0066    1.2730   -1.3242 H       1  UNL1        0.0620
    143 H         -11.3731    3.5122    0.0126 H       1  UNL1        0.0618
    144 H         -13.9650    3.4493   -1.3889 H       1  UNL1        0.0620
    145 H         -11.4719    5.3588    0.8705 H       1  UNL1        0.0278
    146 H         -12.4509    6.8384    0.7585 H       1  UNL1        0.0278
    147 H         -11.2694    6.4845   -0.5381 H       1  UNL1        0.0278
    148 H         -14.1388    7.1412   -0.8148 H       1  UNL1        0.0735
    149 H          -5.1907    1.0004    1.8468 H       1  UNL1        0.0524
    150 H          -3.7870    0.0692    2.3708 H       1  UNL1        0.0524
    151 H          -5.4501   -0.6826    2.4413 H       1  UNL1        0.0524
@<TRIPOS>BOND
     1     1     2    1
     2     3     2    1
     3     3     4    1
     4     4     5    1
     5     5     6    1
     6     5     7    1
     7     7     8    1
     8     7     9    1
     9     9    10    1
    10    10    11    1
    11    11    12    2
    12    12    13    1
    13    13    14   ar
    14    14    15   ar
    15    15    16   ar
    16    16    17   ar
    17    16    18    1
    18    18    19    1
    19    18    20    1
    20    20    21    1
    21    21    22    1
    22    22    23   am
    23    23    24    2
    24    23    25    1
    25    25    26    1
    26    25    27    1
    27    27    28    1
    28    27    29    1
    29    29    30    1
    30    30    31    1
    31    31    32    1
    32    29    33    1
    33    33    34    1
    34    33    35    1
    35     9    36    1
    36     3    37    1
    37    37    38    1
    38    37    39    1
    39    37    40    1
    40    40    41    1
    41    41    42    1
    42    42    43    1
    43    42    44    1
    44    42    45    2
    45     1    46    1
    46    46    47    1
    47    47    48    1
    48    48    49    1
    49    48    50    1
    50    50    51    1
    51    50    52    1
    52    52    53    1
    53    52    54    1
    54    54    55    1
    55    54    56    1
    56    56    57    2
    57    57    58    1
    58    57    59    1
    59    59    60    1
    60    59    61    2
    61    61    62    1
    62    62    63    2
    63    63    64    1
    64    64    65    1
    65    64    66    2
    66    66    67    1
    67    67    68    3
    68    46    69    1
    69    69    70    1
    70    40     1    1
    71    36     3    1
    72    17    13   ar
    73     1    71    1
    74     4    72    1
    75     4    73    1
    76     5    74    1
    77     6    75    1
    78     7    76    1
    79     8    77    1
    80     8    78    1
    81     8    79    1
    82     9    80    1
    83    10    81    1
    84    10    82    1
    85    11    83    1
    86    12    84    1
    87    14    85    1
    88    18    86    1
    89    19    87    1
    90    19    88    1
    91    19    89    1
    92    20    90    1
    93    20    91    1
    94    21    92    1
    95    21    93    1
    96    22    94    1
    97    25    95    1
    98    26    96    1
    99    27    97    1
   100    28    98    1
   101    29    99    1
   102    30   100    1
   103    30   101    1
   104    32   102    1
   105    32   103    1
   106    32   104    1
   107    34   105    1
   108    34   106    1
   109    34   107    1
   110    35   108    1
   111    35   109    1
   112    35   110    1
   113    38   111    1
   114    38   112    1
   115    38   113    1
   116    39   114    1
   117    39   115    1
   118    39   116    1
   119    40   117    1
   120    43   118    1
   121    44   119    1
   122    46   120    1
   123    47   121    1
   124    47   122    1
   125    48   123    1
   126    49   124    1
   127    50   125    1
   128    51   126    1
   129    51   127    1
   130    51   128    1
   131    52   129    1
   132    53   130    1
   133    54   131    1
   134    55   132    1
   135    55   133    1
   136    55   134    1
   137    56   135    1
   138    58   136    1
   139    58   137    1
   140    58   138    1
   141    60   139    1
   142    60   140    1
   143    60   141    1
   144    61   142    1
   145    62   143    1
   146    63   144    1
   147    65   145    1
   148    65   146    1
   149    65   147    1
   150    66   148    1
   151    70   149    1
   152    70   150    1
   153    70   151    1
