
     RDKit          3D

151153  0  0  0  0  0  0  0  0999 V2000
   -2.6383   -1.4389   -0.0221 C   0  0  1  0  0  0  0  0  0  0  0  0
   -2.0277   -0.5968    0.8607 O   0  0  0  0  0  0  0  0  0  0  0  0
   -0.6368   -0.9827    0.7511 C   0  0  1  0  0  0  0  0  0  0  0  0
   -0.2867   -0.6456   -0.6596 C   0  0  0  0  0  0  0  0  0  0  0  0
    1.1834   -0.5222   -0.8842 C   0  0  1  0  0  0  0  0  0  0  0  0
    1.3465    0.4409   -1.9160 O   0  0  0  0  0  0  0  0  0  0  0  0
    1.9547   -0.0098    0.3091 C   0  0  2  0  0  0  0  0  0  0  0  0
    2.8301   -1.0644    0.8839 C   0  0  0  0  0  0  0  0  0  0  0  0
    0.9960    0.5616    1.3095 C   0  0  2  0  0  0  0  0  0  0  0  0
    1.7756    1.0261    2.5776 C   0  0  0  0  0  0  0  0  0  0  0  0
    2.8018    1.9693    2.1746 C   0  0  0  0  0  0  0  0  0  0  0  0
    3.4185    3.1184    2.1195 C   0  0  0  0  0  0  0  0  0  0  0  0
    4.6370    3.3809    1.3648 C   0  0  0  0  0  0  0  0  0  0  0  0
    5.4441    4.4684    1.2153 C   0  0  0  0  0  0  0  0  0  0  0  0
    6.3982    4.1357    0.3895 O   0  0  0  0  0  0  0  0  0  0  0  0
    6.3185    2.9153   -0.0403 C   0  0  0  0  0  0  0  0  0  0  0  0
    5.2213    2.4678    0.5770 N   0  0  0  0  0  0  0  0  0  0  0  0
    6.9948    1.9420   -0.9240 C   0  0  1  0  0  0  0  0  0  0  0  0
    7.0524    2.5418   -2.3239 C   0  0  0  0  0  0  0  0  0  0  0  0
    8.3970    1.5590   -0.4557 C   0  0  0  0  0  0  0  0  0  0  0  0
    8.8806    0.5427   -1.4562 C   0  0  0  0  0  0  0  0  0  0  0  0
   10.1924    0.0117   -1.2728 N   0  0  0  0  0  0  0  0  0  0  0  0
   10.8059   -0.7325   -0.1622 C   0  0  0  0  0  0  0  0  0  0  0  0
    9.6526   -0.5818    0.3848 O   0  0  0  0  0  0  0  0  0  0  0  0
   12.1952   -1.0842   -0.4555 C   0  0  1  0  0  0  0  0  0  0  0  0
   12.6304   -0.7846   -1.7197 O   0  0  0  0  0  0  0  0  0  0  0  0
   13.1513   -0.4241    0.5334 C   0  0  1  0  0  0  0  0  0  0  0  0
   14.4195   -0.9892    0.3309 O   0  0  0  0  0  0  0  0  0  0  0  0
   13.2869    1.0442    0.2580 C   0  0  2  0  0  0  0  0  0  0  0  0
   14.4607    1.6039    1.0480 C   0  0  0  0  0  0  0  0  0  0  0  0
   15.5596    0.7993    0.7771 O   0  0  0  0  0  0  0  0  0  0  0  0
   16.7058    1.2079    1.4483 C   0  0  0  0  0  0  0  0  0  0  0  0
   12.0716    1.7729    0.4281 N   0  0  0  0  0  0  0  0  0  0  0  0
   11.5265    1.7695    1.7487 C   0  0  0  0  0  0  0  0  0  0  0  0
   12.1423    3.0607   -0.1995 C   0  0  0  0  0  0  0  0  0  0  0  0
    0.0674   -0.3680    1.7011 O   0  0  0  0  0  0  0  0  0  0  0  0
   -0.7732   -2.4583    1.0294 C   0  0  0  0  0  0  0  0  0  0  0  0
    0.3876   -3.3293    0.8192 C   0  0  0  0  0  0  0  0  0  0  0  0
   -1.2022   -2.6365    2.4962 C   0  0  0  0  0  0  0  0  0  0  0  0
   -1.9490   -2.7859    0.1016 C   0  0  1  0  0  0  0  0  0  0  0  0
   -2.7275   -3.7768    0.6734 O   0  0  0  0  0  0  0  0  0  0  0  0
   -2.3965   -5.2464   -0.0916 P   0  0  0  0  0  0  0  0  0  0  0  0
   -1.2673   -4.9924   -1.3209 O   0  0  0  0  0  0  0  0  0  0  0  0
   -3.8397   -5.7767   -0.8437 O   0  0  0  0  0  0  0  0  0  0  0  0
   -1.9371   -6.2828    0.9139 O   0  0  0  0  0  0  0  0  0  0  0  0
   -4.1290   -1.7431    0.3842 C   0  0  2  0  0  0  0  0  0  0  0  0
   -4.8089   -2.2892   -0.8044 C   0  0  0  0  0  0  0  0  0  0  0  0
   -6.1221   -2.8067   -0.9247 C   0  0  2  0  0  0  0  0  0  0  0  0
   -6.3605   -3.1933   -2.2968 O   0  0  0  0  0  0  0  0  0  0  0  0
   -7.3914   -2.3021   -0.3742 C   0  0  2  0  0  0  0  0  0  0  0  0
   -7.3819   -2.2857    1.1150 C   0  0  0  0  0  0  0  0  0  0  0  0
   -8.5409   -3.1499   -0.8673 C   0  0  2  0  0  0  0  0  0  0  0  0
   -8.5327   -3.0031   -2.2819 O   0  0  0  0  0  0  0  0  0  0  0  0
   -9.8928   -2.8126   -0.3290 C   0  0  2  0  0  0  0  0  0  0  0  0
  -10.9105   -3.7873   -0.9632 C   0  0  0  0  0  0  0  0  0  0  0  0
  -10.2920   -1.4284   -0.3242 C   0  0  0  0  0  0  0  0  0  0  0  0
  -11.2890   -0.6575   -0.7040 C   0  0  0  0  0  0  0  0  0  0  0  0
  -12.4201   -1.3030   -1.3610 C   0  0  0  0  0  0  0  0  0  0  0  0
  -11.1750    0.7833   -0.3762 C   0  0  0  0  0  0  0  0  0  0  0  0
  -10.1637    1.4886    0.4028 C   0  0  0  0  0  0  0  0  0  0  0  0
  -12.1494    1.5739   -0.7736 C   0  0  0  0  0  0  0  0  0  0  0  0
  -12.1895    3.0049   -0.5260 C   0  0  0  0  0  0  0  0  0  0  0  0
  -13.1088    3.8564   -0.8742 C   0  0  0  0  0  0  0  0  0  0  0  0
  -13.0745    5.3079   -0.5788 C   0  0  0  0  0  0  0  0  0  0  0  0
  -12.0112    6.0044    0.1474 C   0  0  0  0  0  0  0  0  0  0  0  0
  -14.0954    6.0649   -0.9970 C   0  0  0  0  0  0  0  0  0  0  0  0
  -15.1991    5.4484   -1.7231 C   0  0  0  0  0  0  0  0  0  0  0  0
  -16.0651    4.9590   -2.3161 N   0  0  0  0  0  0  0  0  0  0  0  0
   -4.6273   -0.4128    0.5413 O   0  0  0  0  0  0  0  0  0  0  0  0
   -4.7733   -0.0509    1.8550 C   0  0  0  0  0  0  0  0  0  0  0  0
   -2.6714   -1.0563   -1.0254 H   0  0  0  0  0  0  0  0  0  0  0  0
   -0.7058   -1.3127   -1.4098 H   0  0  0  0  0  0  0  0  0  0  0  0
   -0.7448    0.3682   -0.8861 H   0  0  0  0  0  0  0  0  0  0  0  0
    1.6618   -1.4389   -1.3295 H   0  0  0  0  0  0  0  0  0  0  0  0
    2.2694    0.3679   -2.2266 H   0  0  0  0  0  0  0  0  0  0  0  0
    2.6555    0.8281   -0.0643 H   0  0  0  0  0  0  0  0  0  0  0  0
    3.9395   -0.8305    0.8251 H   0  0  0  0  0  0  0  0  0  0  0  0
    2.5895   -1.3791    1.9056 H   0  0  0  0  0  0  0  0  0  0  0  0
    2.7783   -1.9922    0.2354 H   0  0  0  0  0  0  0  0  0  0  0  0
    0.5253    1.5013    0.9405 H   0  0  0  0  0  0  0  0  0  0  0  0
    1.0049    1.5708    3.2185 H   0  0  0  0  0  0  0  0  0  0  0  0
    2.1609    0.1557    3.1280 H   0  0  0  0  0  0  0  0  0  0  0  0
    3.4136    1.2559    1.5949 H   0  0  0  0  0  0  0  0  0  0  0  0
    2.7812    3.7150    2.7473 H   0  0  0  0  0  0  0  0  0  0  0  0
    5.1227    5.3147    1.7859 H   0  0  0  0  0  0  0  0  0  0  0  0
    6.4469    0.9926   -1.0303 H   0  0  0  0  0  0  0  0  0  0  0  0
    6.2188    3.2782   -2.4165 H   0  0  0  0  0  0  0  0  0  0  0  0
    7.9922    3.0987   -2.4917 H   0  0  0  0  0  0  0  0  0  0  0  0
    6.9470    1.7405   -3.0794 H   0  0  0  0  0  0  0  0  0  0  0  0
    8.3063    1.1975    0.5608 H   0  0  0  0  0  0  0  0  0  0  0  0
    8.9869    2.4915   -0.4330 H   0  0  0  0  0  0  0  0  0  0  0  0
    8.1475   -0.3231   -1.3641 H   0  0  0  0  0  0  0  0  0  0  0  0
    8.7052    0.9355   -2.4840 H   0  0  0  0  0  0  0  0  0  0  0  0
   10.7752    0.2581   -2.1714 H   0  0  0  0  0  0  0  0  0  0  0  0
   12.2945   -2.1999   -0.2737 H   0  0  0  0  0  0  0  0  0  0  0  0
   13.2384   -1.4584   -2.0736 H   0  0  0  0  0  0  0  0  0  0  0  0
   12.8368   -0.5956    1.5457 H   0  0  0  0  0  0  0  0  0  0  0  0
   14.4087   -1.9301    0.6386 H   0  0  0  0  0  0  0  0  0  0  0  0
   13.5746    1.1395   -0.8223 H   0  0  0  0  0  0  0  0  0  0  0  0
   14.2845    1.5676    2.1257 H   0  0  0  0  0  0  0  0  0  0  0  0
   14.7045    2.6239    0.6729 H   0  0  0  0  0  0  0  0  0  0  0  0
   17.5832    0.5594    1.2212 H   0  0  0  0  0  0  0  0  0  0  0  0
   16.5462    1.1856    2.5658 H   0  0  0  0  0  0  0  0  0  0  0  0
   16.9742    2.2399    1.1624 H   0  0  0  0  0  0  0  0  0  0  0  0
   11.9186    0.9911    2.4265 H   0  0  0  0  0  0  0  0  0  0  0  0
   11.7471    2.7655    2.2005 H   0  0  0  0  0  0  0  0  0  0  0  0
   10.4238    1.6742    1.7423 H   0  0  0  0  0  0  0  0  0  0  0  0
   12.2478    2.8744   -1.2941 H   0  0  0  0  0  0  0  0  0  0  0  0
   11.1663    3.5524   -0.0387 H   0  0  0  0  0  0  0  0  0  0  0  0
   12.9921    3.6853    0.1650 H   0  0  0  0  0  0  0  0  0  0  0  0
    0.0273   -4.3929    0.9744 H   0  0  0  0  0  0  0  0  0  0  0  0
    1.0872   -3.1932    1.6786 H   0  0  0  0  0  0  0  0  0  0  0  0
    0.8549   -3.3385   -0.1631 H   0  0  0  0  0  0  0  0  0  0  0  0
   -1.8918   -3.4681    2.6435 H   0  0  0  0  0  0  0  0  0  0  0  0
   -0.2812   -2.8565    3.0763 H   0  0  0  0  0  0  0  0  0  0  0  0
   -1.5969   -1.6681    2.9024 H   0  0  0  0  0  0  0  0  0  0  0  0
   -1.4856   -3.0451   -0.8576 H   0  0  0  0  0  0  0  0  0  0  0  0
   -1.7676   -4.6216   -2.0901 H   0  0  0  0  0  0  0  0  0  0  0  0
   -3.8562   -5.3869   -1.7465 H   0  0  0  0  0  0  0  0  0  0  0  0
   -4.0529   -2.2234    1.3035 H   0  0  0  0  0  0  0  0  0  0  0  0
   -4.6752   -1.4618   -1.6479 H   0  0  0  0  0  0  0  0  0  0  0  0
   -4.0745   -3.0450   -1.2570 H   0  0  0  0  0  0  0  0  0  0  0  0
   -6.1138   -3.9209   -0.4804 H   0  0  0  0  0  0  0  0  0  0  0  0
   -5.4573   -3.4441   -2.6725 H   0  0  0  0  0  0  0  0  0  0  0  0
   -7.6575   -1.2712   -0.7959 H   0  0  0  0  0  0  0  0  0  0  0  0
   -8.1157   -2.9728    1.5947 H   0  0  0  0  0  0  0  0  0  0  0  0
   -6.3888   -2.6623    1.5019 H   0  0  0  0  0  0  0  0  0  0  0  0
   -7.5746   -1.2922    1.5740 H   0  0  0  0  0  0  0  0  0  0  0  0
   -8.2916   -4.2324   -0.6390 H   0  0  0  0  0  0  0  0  0  0  0  0
   -8.5096   -2.0220   -2.4303 H   0  0  0  0  0  0  0  0  0  0  0  0
   -9.9315   -3.1529    0.7646 H   0  0  0  0  0  0  0  0  0  0  0  0
  -11.6467   -4.1719   -0.2602 H   0  0  0  0  0  0  0  0  0  0  0  0
  -11.2504   -3.4123   -1.9336 H   0  0  0  0  0  0  0  0  0  0  0  0
  -10.3293   -4.7330   -1.2616 H   0  0  0  0  0  0  0  0  0  0  0  0
   -9.4426   -0.9638    0.1527 H   0  0  0  0  0  0  0  0  0  0  0  0
  -13.3059   -0.6094   -1.1788 H   0  0  0  0  0  0  0  0  0  0  0  0
  -12.7850   -2.2143   -0.7901 H   0  0  0  0  0  0  0  0  0  0  0  0
  -12.3964   -1.4142   -2.4367 H   0  0  0  0  0  0  0  0  0  0  0  0
   -9.3007    0.9298    0.7470 H   0  0  0  0  0  0  0  0  0  0  0  0
   -9.7645    2.3108   -0.2553 H   0  0  0  0  0  0  0  0  0  0  0  0
  -10.6901    1.9976    1.2518 H   0  0  0  0  0  0  0  0  0  0  0  0
  -13.0066    1.2730   -1.3242 H   0  0  0  0  0  0  0  0  0  0  0  0
  -11.3731    3.5122    0.0126 H   0  0  0  0  0  0  0  0  0  0  0  0
  -13.9650    3.4493   -1.3889 H   0  0  0  0  0  0  0  0  0  0  0  0
  -11.4719    5.3588    0.8705 H   0  0  0  0  0  0  0  0  0  0  0  0
  -12.4509    6.8384    0.7585 H   0  0  0  0  0  0  0  0  0  0  0  0
  -11.2694    6.4845   -0.5381 H   0  0  0  0  0  0  0  0  0  0  0  0
  -14.1388    7.1412   -0.8148 H   0  0  0  0  0  0  0  0  0  0  0  0
   -5.1907    1.0004    1.8468 H   0  0  0  0  0  0  0  0  0  0  0  0
   -3.7870    0.0692    2.3708 H   0  0  0  0  0  0  0  0  0  0  0  0
   -5.4501   -0.6826    2.4413 H   0  0  0  0  0  0  0  0  0  0  0  0
  1  2  1  0
  3  2  1  1
  3  4  1  0
  4  5  1  0
  5  6  1  0
  5  7  1  0
  7  8  1  0
  7  9  1  0
  9 10  1  0
 10 11  1  0
 11 12  2  0
 12 13  1  0
 13 14  2  0
 14 15  1  0
 15 16  1  0
 16 17  2  0
 16 18  1  0
 18 19  1  0
 18 20  1  0
 20 21  1  0
 21 22  1  0
 22 23  1  0
 23 24  2  0
 23 25  1  0
 25 26  1  0
 25 27  1  0
 27 28  1  0
 27 29  1  0
 29 30  1  0
 30 31  1  0
 31 32  1  0
 29 33  1  0
 33 34  1  0
 33 35  1  0
  9 36  1  0
  3 37  1  0
 37 38  1  0
 37 39  1  0
 37 40  1  0
 40 41  1  0
 41 42  1  0
 42 43  1  0
 42 44  1  0
 42 45  2  0
  1 46  1  0
 46 47  1  0
 47 48  1  0
 48 49  1  0
 48 50  1  0
 50 51  1  0
 50 52  1  0
 52 53  1  0
 52 54  1  0
 54 55  1  0
 54 56  1  0
 56 57  2  0
 57 58  1  0
 57 59  1  0
 59 60  1  0
 59 61  2  0
 61 62  1  0
 62 63  2  0
 63 64  1  0
 64 65  1  0
 64 66  2  0
 66 67  1  0
 67 68  3  0
 46 69  1  0
 69 70  1  0
 40  1  1  0
 36  3  1  0
 17 13  1  0
  1 71  1  6
  4 72  1  0
  4 73  1  0
  5 74  1  6
  6 75  1  0
  7 76  1  6
  8 77  1  0
  8 78  1  0
  8 79  1  0
  9 80  1  6
 10 81  1  0
 10 82  1  0
 11 83  1  0
 12 84  1  0
 14 85  1  0
 18 86  1  6
 19 87  1  0
 19 88  1  0
 19 89  1  0
 20 90  1  0
 20 91  1  0
 21 92  1  0
 21 93  1  0
 22 94  1  0
 25 95  1  1
 26 96  1  0
 27 97  1  1
 28 98  1  0
 29 99  1  6
 30100  1  0
 30101  1  0
 32102  1  0
 32103  1  0
 32104  1  0
 34105  1  0
 34106  1  0
 34107  1  0
 35108  1  0
 35109  1  0
 35110  1  0
 38111  1  0
 38112  1  0
 38113  1  0
 39114  1  0
 39115  1  0
 39116  1  0
 40117  1  6
 43118  1  0
 44119  1  0
 46120  1  1
 47121  1  0
 47122  1  0
 48123  1  1
 49124  1  0
 50125  1  6
 51126  1  0
 51127  1  0
 51128  1  0
 52129  1  6
 53130  1  0
 54131  1  1
 55132  1  0
 55133  1  0
 55134  1  0
 56135  1  0
 58136  1  0
 58137  1  0
 58138  1  0
 60139  1  0
 60140  1  0
 60141  1  0
 61142  1  0
 62143  1  0
 63144  1  0
 65145  1  0
 65146  1  0
 65147  1  0
 66148  1  0
 70149  1  0
 70150  1  0
 70151  1  0
M  END
$$$$
