
     RDKit          3D

 77 80  0  0  0  0  0  0  0  0999 V2000
    5.0679    3.6902   -0.9346 C   0  0  1  0  0  0  0  0  0  0  0  0
    5.9008    4.2767    0.1760 C   0  0  0  0  0  0  0  0  0  0  0  0
    5.5535    4.2636   -2.2456 C   0  0  0  0  0  0  0  0  0  0  0  0
    4.7692    3.7223   -3.4193 C   0  0  0  0  0  0  0  0  0  0  0  0
    4.9534    2.2359   -0.9047 C   0  0  0  0  0  0  0  0  0  0  0  0
    5.9901    1.4945   -1.4116 C   0  0  0  0  0  0  0  0  0  0  0  0
    7.1745    1.9096   -1.9735 O   0  0  0  0  0  0  0  0  0  0  0  0
    5.9036    0.1052   -1.3859 C   0  0  0  0  0  0  0  0  0  0  0  0
    4.7751   -0.5277   -0.8491 C   0  0  0  0  0  0  0  0  0  0  0  0
    3.6823    0.1689   -0.3149 C   0  0  0  0  0  0  0  0  0  0  0  0
    3.8697    1.5593   -0.3905 C   0  0  0  0  0  0  0  0  0  0  0  0
    2.5069   -0.4284    0.2974 C   0  0  0  0  0  0  0  0  0  0  0  0
    1.5058    0.4424    0.6947 O   0  0  0  0  0  0  0  0  0  0  0  0
    2.6837   -1.6295    0.3236 N   0  0  0  0  0  0  0  0  0  0  0  0
    2.3314   -2.8650    0.6031 C   0  0  2  0  0  0  0  0  0  0  0  0
    2.6234   -3.9264   -0.5192 C   0  0  0  0  0  0  0  0  0  0  0  0
    2.1427   -5.2074    0.0099 N   0  0  0  0  0  0  0  0  0  0  0  0
    2.7724   -5.6147    1.2106 C   0  0  0  0  0  0  0  0  0  0  0  0
    2.5215   -4.9282    2.4808 C   0  0  0  0  0  0  0  0  0  0  0  0
    1.4237   -3.9597    2.5868 C   0  0  0  0  0  0  0  0  0  0  0  0
    1.0733   -3.3350    1.2167 C   0  0  1  0  0  0  0  0  0  0  0  0
   -0.0260   -2.4999    1.2604 O   0  0  0  0  0  0  0  0  0  0  0  0
   -1.2929   -2.8163    0.8513 C   0  0  0  0  0  0  0  0  0  0  0  0
   -1.2351   -4.0325    0.4469 O   0  0  0  0  0  0  0  0  0  0  0  0
   -2.5922   -2.1760    0.7603 C   0  0  0  0  0  0  0  0  0  0  0  0
   -2.7352   -0.8665    1.1460 C   0  0  0  0  0  0  0  0  0  0  0  0
   -3.9820   -0.2925    1.0783 C   0  0  0  0  0  0  0  0  0  0  0  0
   -5.1287   -0.9734    0.6312 C   0  0  0  0  0  0  0  0  0  0  0  0
   -4.8588   -2.2818    0.2721 C   0  0  0  0  0  0  0  0  0  0  0  0
   -3.6548   -2.9309    0.3081 C   0  0  0  0  0  0  0  0  0  0  0  0
   -6.4739   -0.4824    0.4793 C   0  0  0  0  0  0  0  0  0  0  0  0
   -7.3681   -1.3819    0.6087 O   0  0  0  0  0  0  0  0  0  0  0  0
   -7.0694    0.8089    0.2083 C   0  0  0  0  0  0  0  0  0  0  0  0
   -8.4336    0.9350    0.3052 C   0  0  0  0  0  0  0  0  0  0  0  0
   -9.2993   -0.0831    0.6820 O   0  0  0  0  0  0  0  0  0  0  0  0
   -9.0326    2.1683    0.0103 C   0  0  0  0  0  0  0  0  0  0  0  0
   -8.2621    3.2631   -0.3795 C   0  0  0  0  0  0  0  0  0  0  0  0
   -6.8611    3.2014   -0.4990 C   0  0  0  0  0  0  0  0  0  0  0  0
   -6.1146    4.2649   -0.8790 O   0  0  0  0  0  0  0  0  0  0  0  0
   -6.6787    5.5098   -1.1829 C   0  0  0  0  0  0  0  0  0  0  0  0
   -6.3738    1.9358   -0.1832 C   0  0  0  0  0  0  0  0  0  0  0  0
    4.0414    4.1561   -0.7934 H   0  0  0  0  0  0  0  0  0  0  0  0
    6.3277    5.2775   -0.0952 H   0  0  0  0  0  0  0  0  0  0  0  0
    5.2456    4.4481    1.0495 H   0  0  0  0  0  0  0  0  0  0  0  0
    6.6968    3.5639    0.5086 H   0  0  0  0  0  0  0  0  0  0  0  0
    6.6264    4.0928   -2.3259 H   0  0  0  0  0  0  0  0  0  0  0  0
    5.3971    5.3764   -2.2769 H   0  0  0  0  0  0  0  0  0  0  0  0
    3.7041    3.5341   -3.1372 H   0  0  0  0  0  0  0  0  0  0  0  0
    5.2968    2.8183   -3.7504 H   0  0  0  0  0  0  0  0  0  0  0  0
    4.7787    4.4816   -4.2300 H   0  0  0  0  0  0  0  0  0  0  0  0
    8.0656    1.4427   -1.8321 H   0  0  0  0  0  0  0  0  0  0  0  0
    6.6572   -0.5965   -1.7613 H   0  0  0  0  0  0  0  0  0  0  0  0
    4.7180   -1.6255   -0.8364 H   0  0  0  0  0  0  0  0  0  0  0  0
    3.0793    2.1890   -0.0090 H   0  0  0  0  0  0  0  0  0  0  0  0
    0.7823    0.0758    1.2975 H   0  0  0  0  0  0  0  0  0  0  0  0
    3.1674   -3.2658    1.3659 H   0  0  0  0  0  0  0  0  0  0  0  0
    3.6691   -3.9403   -0.7900 H   0  0  0  0  0  0  0  0  0  0  0  0
    1.9756   -3.6591   -1.3543 H   0  0  0  0  0  0  0  0  0  0  0  0
    2.3005   -5.9123   -0.7336 H   0  0  0  0  0  0  0  0  0  0  0  0
    2.4911   -6.7178    1.3306 H   0  0  0  0  0  0  0  0  0  0  0  0
    3.9052   -5.6701    1.0921 H   0  0  0  0  0  0  0  0  0  0  0  0
    2.2860   -5.7495    3.2518 H   0  0  0  0  0  0  0  0  0  0  0  0
    3.4592   -4.4734    2.9325 H   0  0  0  0  0  0  0  0  0  0  0  0
    1.7809   -3.0545    3.1742 H   0  0  0  0  0  0  0  0  0  0  0  0
    0.5039   -4.2907    3.1081 H   0  0  0  0  0  0  0  0  0  0  0  0
    0.7008   -4.2715    0.6662 H   0  0  0  0  0  0  0  0  0  0  0  0
   -1.9126   -0.2316    1.5113 H   0  0  0  0  0  0  0  0  0  0  0  0
   -4.1621    0.7390    1.3831 H   0  0  0  0  0  0  0  0  0  0  0  0
   -5.6973   -2.8971   -0.0948 H   0  0  0  0  0  0  0  0  0  0  0  0
   -3.5648   -3.9623    0.0001 H   0  0  0  0  0  0  0  0  0  0  0  0
   -9.3018   -0.5126    1.5855 H   0  0  0  0  0  0  0  0  0  0  0  0
  -10.1142    2.2431    0.0969 H   0  0  0  0  0  0  0  0  0  0  0  0
   -8.8925    4.1404   -0.5674 H   0  0  0  0  0  0  0  0  0  0  0  0
   -6.1196    6.0086   -2.0147 H   0  0  0  0  0  0  0  0  0  0  0  0
   -7.7301    5.4972   -1.4819 H   0  0  0  0  0  0  0  0  0  0  0  0
   -6.6148    6.1351   -0.2573 H   0  0  0  0  0  0  0  0  0  0  0  0
   -5.2993    1.8942   -0.2886 H   0  0  0  0  0  0  0  0  0  0  0  0
  1  2  1  0
  1  3  1  0
  3  4  1  0
  1  5  1  0
  5  6  2  0
  6  7  1  0
  6  8  1  0
  8  9  2  0
  9 10  1  0
 10 11  2  0
 10 12  1  0
 12 13  1  0
 12 14  2  3
 14 15  1  0
 15 16  1  0
 16 17  1  0
 17 18  1  0
 18 19  1  0
 19 20  1  0
 20 21  1  0
 21 22  1  0
 22 23  1  0
 23 24  2  0
 23 25  1  0
 25 26  2  0
 26 27  1  0
 27 28  2  0
 28 29  1  0
 29 30  2  0
 28 31  1  0
 31 32  2  0
 31 33  1  0
 33 34  2  0
 34 35  1  0
 34 36  1  0
 36 37  2  0
 37 38  1  0
 38 39  1  0
 39 40  1  0
 38 41  2  0
 11  5  1  0
 21 15  1  0
 30 25  1  0
 41 33  1  0
  1 42  1  1
  2 43  1  0
  2 44  1  0
  2 45  1  0
  3 46  1  0
  3 47  1  0
  4 48  1  0
  4 49  1  0
  4 50  1  0
  7 51  1  0
  8 52  1  0
  9 53  1  0
 11 54  1  0
 13 55  1  0
 15 56  1  1
 16 57  1  0
 16 58  1  0
 17 59  1  0
 18 60  1  0
 18 61  1  0
 19 62  1  0
 19 63  1  0
 20 64  1  0
 20 65  1  0
 21 66  1  6
 26 67  1  0
 27 68  1  0
 29 69  1  0
 30 70  1  0
 35 71  1  0
 36 72  1  0
 37 73  1  0
 40 74  1  0
 40 75  1  0
 40 76  1  0
 41 77  1  0
M  END
$$$$
