
     RDKit          3D

 55 59  0  0  0  0  0  0  0  0999 V2000
   -9.7181   -1.5874   -0.1007 C   0  0  0  0  0  0  0  0  0  0  0  0
   -8.9617   -0.7013    0.6879 O   0  0  0  0  0  0  0  0  0  0  0  0
   -7.6572   -0.7545    0.1874 C   0  0  0  0  0  0  0  0  0  0  0  0
   -6.7233    0.1473    0.9346 C   0  0  1  0  0  0  0  0  0  0  0  0
   -6.6904   -0.0851    2.4140 C   0  0  0  0  0  0  0  0  0  0  0  0
   -5.4429    0.1550    3.0081 O   0  0  0  0  0  0  0  0  0  0  0  0
   -4.2841    0.4911    2.3587 C   0  0  0  0  0  0  0  0  0  0  0  0
   -3.1196    0.8987    2.9959 C   0  0  0  0  0  0  0  0  0  0  0  0
   -1.9831    1.2221    2.2454 C   0  0  0  0  0  0  0  0  0  0  0  0
   -1.9801    1.1496    0.8896 C   0  0  0  0  0  0  0  0  0  0  0  0
   -0.8156    1.4792    0.0798 C   0  0  0  0  0  0  0  0  0  0  0  0
    0.3559    1.8839    0.5998 N   0  0  0  0  0  0  0  0  0  0  0  0
    1.1908    2.0968   -0.4095 N   0  0  0  0  0  0  0  0  0  0  0  0
    0.5417    1.8256   -1.5562 C   0  0  0  0  0  0  0  0  0  0  0  0
    1.2964    1.9798   -3.1687 S   0  0  0  0  0  0  0  0  0  0  0  0
    2.0907    0.3907   -3.6225 C   0  0  0  0  0  0  0  0  0  0  0  0
    3.2069    0.1869   -2.6788 C   0  0  0  0  0  0  0  0  0  0  0  0
    3.0098   -0.4823   -1.5015 C   0  0  0  0  0  0  0  0  0  0  0  0
    4.0599   -0.6826   -0.5960 C   0  0  0  0  0  0  0  0  0  0  0  0
    5.3091   -0.1911   -0.9100 C   0  0  0  0  0  0  0  0  0  0  0  0
    6.4436   -0.3541   -0.0203 C   0  0  0  0  0  0  0  0  0  0  0  0
    6.2813   -0.0540    1.3349 C   0  0  0  0  0  0  0  0  0  0  0  0
    7.3466   -0.1952    2.1976 C   0  0  0  0  0  0  0  0  0  0  0  0
    8.5824   -0.6346    1.7280 C   0  0  0  0  0  0  0  0  0  0  0  0
    8.7371   -0.9288    0.3940 C   0  0  0  0  0  0  0  0  0  0  0  0
    7.6683   -0.7870   -0.4708 C   0  0  0  0  0  0  0  0  0  0  0  0
    7.8440   -1.1068   -1.8692 C   0  0  0  0  0  0  0  0  0  0  0  0
    7.9839   -1.3611   -2.9997 N   0  0  0  0  0  0  0  0  0  0  0  0
    5.4790    0.4771   -2.0989 C   0  0  0  0  0  0  0  0  0  0  0  0
    4.4455    0.6727   -2.9871 C   0  0  0  0  0  0  0  0  0  0  0  0
   -0.6570    1.4596   -1.2094 O   0  0  0  0  0  0  0  0  0  0  0  0
   -3.1673    0.7359    0.2732 C   0  0  0  0  0  0  0  0  0  0  0  0
   -4.2821    0.4169    0.9782 C   0  0  0  0  0  0  0  0  0  0  0  0
   -5.4369    0.0125    0.3429 O   0  0  0  0  0  0  0  0  0  0  0  0
  -10.7647   -1.6262    0.2048 H   0  0  0  0  0  0  0  0  0  0  0  0
   -9.5704   -1.3290   -1.1777 H   0  0  0  0  0  0  0  0  0  0  0  0
   -9.2591   -2.5950    0.0436 H   0  0  0  0  0  0  0  0  0  0  0  0
   -7.7161   -0.3621   -0.8593 H   0  0  0  0  0  0  0  0  0  0  0  0
   -7.2962   -1.7988    0.0991 H   0  0  0  0  0  0  0  0  0  0  0  0
   -7.0369    1.2072    0.7022 H   0  0  0  0  0  0  0  0  0  0  0  0
   -7.4028    0.6637    2.8692 H   0  0  0  0  0  0  0  0  0  0  0  0
   -7.0687   -1.1085    2.6434 H   0  0  0  0  0  0  0  0  0  0  0  0
   -3.1360    0.9520    4.0756 H   0  0  0  0  0  0  0  0  0  0  0  0
   -1.0874    1.5380    2.7789 H   0  0  0  0  0  0  0  0  0  0  0  0
    2.4544    0.4865   -4.6598 H   0  0  0  0  0  0  0  0  0  0  0  0
    1.3500   -0.4341   -3.6063 H   0  0  0  0  0  0  0  0  0  0  0  0
    2.0423   -0.8891   -1.2083 H   0  0  0  0  0  0  0  0  0  0  0  0
    3.9399   -1.2007    0.3318 H   0  0  0  0  0  0  0  0  0  0  0  0
    5.3205    0.2916    1.7206 H   0  0  0  0  0  0  0  0  0  0  0  0
    7.2795    0.0226    3.2581 H   0  0  0  0  0  0  0  0  0  0  0  0
    9.4228   -0.7442    2.4181 H   0  0  0  0  0  0  0  0  0  0  0  0
    9.6726   -1.2727   -0.0217 H   0  0  0  0  0  0  0  0  0  0  0  0
    6.4529    0.8690   -2.3520 H   0  0  0  0  0  0  0  0  0  0  0  0
    4.6150    1.2022   -3.9120 H   0  0  0  0  0  0  0  0  0  0  0  0
   -3.1652    0.6784   -0.7994 H   0  0  0  0  0  0  0  0  0  0  0  0
  1  2  1  0
  2  3  1  0
  3  4  1  0
  4  5  1  0
  5  6  1  0
  6  7  1  0
  7  8  2  0
  8  9  1  0
  9 10  2  0
 10 11  1  0
 11 12  2  0
 12 13  1  0
 13 14  2  0
 14 15  1  0
 15 16  1  0
 16 17  1  0
 17 18  2  0
 18 19  1  0
 19 20  2  0
 20 21  1  0
 21 22  2  0
 22 23  1  0
 23 24  2  0
 24 25  1  0
 25 26  2  0
 26 27  1  0
 27 28  3  0
 20 29  1  0
 29 30  2  0
 14 31  1  0
 10 32  1  0
 32 33  2  0
 33 34  1  0
 34  4  1  0
 33  7  1  0
 31 11  1  0
 30 17  1  0
 26 21  1  0
  1 35  1  0
  1 36  1  0
  1 37  1  0
  3 38  1  0
  3 39  1  0
  4 40  1  1
  5 41  1  0
  5 42  1  0
  8 43  1  0
  9 44  1  0
 16 45  1  0
 16 46  1  0
 18 47  1  0
 19 48  1  0
 22 49  1  0
 23 50  1  0
 24 51  1  0
 25 52  1  0
 29 53  1  0
 30 54  1  0
 32 55  1  0
M  END
$$$$
