@<TRIPOS>MOLECULE
*****
 55 59 0 0 0
SMALL
GASTEIGER

@<TRIPOS>ATOM
      1 C          -9.7181   -1.5874   -0.1007 C.3     1  UNL1        0.0366
      2 O          -8.9617   -0.7013    0.6879 O.3     1  UNL1       -0.3792
      3 C          -7.6572   -0.7545    0.1874 C.3     1  UNL1        0.0874
      4 C          -6.7233    0.1473    0.9346 C.3     1  UNL1        0.1572
      5 C          -6.6904   -0.0851    2.4140 C.3     1  UNL1        0.1287
      6 O          -5.4429    0.1550    3.0081 O.3     1  UNL1       -0.4846
      7 C          -4.2841    0.4911    2.3587 C.ar    1  UNL1        0.1621
      8 C          -3.1196    0.8987    2.9959 C.ar    1  UNL1       -0.0156
      9 C          -1.9831    1.2221    2.2454 C.ar    1  UNL1       -0.0458
     10 C          -1.9801    1.1496    0.8896 C.ar    1  UNL1        0.0422
     11 C          -0.8156    1.4792    0.0798 C.ar    1  UNL1        0.2493
     12 N           0.3559    1.8839    0.5998 N.ar    1  UNL1       -0.1065
     13 N           1.1908    2.0968   -0.4095 N.ar    1  UNL1       -0.1006
     14 C           0.5417    1.8256   -1.5562 C.ar    1  UNL1        0.2779
     15 S           1.2964    1.9798   -3.1687 S.3     1  UNL1       -0.0609
     16 C           2.0907    0.3907   -3.6225 C.3     1  UNL1        0.0278
     17 C           3.2069    0.1869   -2.6788 C.ar    1  UNL1       -0.0370
     18 C           3.0098   -0.4823   -1.5015 C.ar    1  UNL1       -0.0572
     19 C           4.0599   -0.6826   -0.5960 C.ar    1  UNL1       -0.0537
     20 C           5.3091   -0.1911   -0.9100 C.ar    1  UNL1       -0.0166
     21 C           6.4436   -0.3541   -0.0203 C.ar    1  UNL1       -0.0005
     22 C           6.2813   -0.0540    1.3349 C.ar    1  UNL1       -0.0528
     23 C           7.3466   -0.1952    2.1976 C.ar    1  UNL1       -0.0611
     24 C           8.5824   -0.6346    1.7280 C.ar    1  UNL1       -0.0605
     25 C           8.7371   -0.9288    0.3940 C.ar    1  UNL1       -0.0438
     26 C           7.6683   -0.7870   -0.4708 C.ar    1  UNL1        0.0595
     27 C           7.8440   -1.1068   -1.8692 C.1     1  UNL1        0.0998
     28 N           7.9839   -1.3611   -2.9997 N.1     1  UNL1       -0.1909
     29 C           5.4790    0.4771   -2.0989 C.ar    1  UNL1       -0.0537
     30 C           4.4455    0.6727   -2.9871 C.ar    1  UNL1       -0.0572
     31 O          -0.6570    1.4596   -1.2094 O.2     1  UNL1       -0.4110
     32 C          -3.1673    0.7359    0.2732 C.ar    1  UNL1       -0.0040
     33 C          -4.2821    0.4169    0.9782 C.ar    1  UNL1        0.1633
     34 O          -5.4369    0.0125    0.3429 O.3     1  UNL1       -0.4795
     35 H         -10.7647   -1.6262    0.2048 H       1  UNL1        0.0524
     36 H          -9.5704   -1.3290   -1.1777 H       1  UNL1        0.0524
     37 H          -9.2591   -2.5950    0.0436 H       1  UNL1        0.0524
     38 H          -7.7161   -0.3621   -0.8593 H       1  UNL1        0.0598
     39 H          -7.2962   -1.7988    0.0991 H       1  UNL1        0.0598
     40 H          -7.0369    1.2072    0.7022 H       1  UNL1        0.0791
     41 H          -7.4028    0.6637    2.8692 H       1  UNL1        0.0735
     42 H          -7.0687   -1.1085    2.6434 H       1  UNL1        0.0735
     43 H          -3.1360    0.9520    4.0756 H       1  UNL1        0.0655
     44 H          -1.0874    1.5380    2.7789 H       1  UNL1        0.0626
     45 H           2.4544    0.4865   -4.6598 H       1  UNL1        0.0430
     46 H           1.3500   -0.4341   -3.6063 H       1  UNL1        0.0430
     47 H           2.0423   -0.8891   -1.2083 H       1  UNL1        0.0621
     48 H           3.9399   -1.2007    0.3318 H       1  UNL1        0.0624
     49 H           5.3205    0.2916    1.7206 H       1  UNL1        0.0624
     50 H           7.2795    0.0226    3.2581 H       1  UNL1        0.0618
     51 H           9.4228   -0.7442    2.4181 H       1  UNL1        0.0618
     52 H           9.6726   -1.2727   -0.0217 H       1  UNL1        0.0631
     53 H           6.4529    0.8690   -2.3520 H       1  UNL1        0.0624
     54 H           4.6150    1.2022   -3.9120 H       1  UNL1        0.0621
     55 H          -3.1652    0.6784   -0.7994 H       1  UNL1        0.0663
@<TRIPOS>BOND
     1     1     2    1
     2     2     3    1
     3     3     4    1
     4     4     5    1
     5     5     6    1
     6     6     7    1
     7     7     8   ar
     8     8     9   ar
     9     9    10   ar
    10    10    11    1
    11    11    12   ar
    12    12    13   ar
    13    13    14   ar
    14    14    15    1
    15    15    16    1
    16    16    17    1
    17    17    18   ar
    18    18    19   ar
    19    19    20   ar
    20    20    21    1
    21    21    22   ar
    22    22    23   ar
    23    23    24   ar
    24    24    25   ar
    25    25    26   ar
    26    26    27    1
    27    27    28    3
    28    20    29   ar
    29    29    30   ar
    30    14    31   ar
    31    10    32   ar
    32    32    33   ar
    33    33    34    1
    34    34     4    1
    35    33     7   ar
    36    31    11   ar
    37    30    17   ar
    38    26    21   ar
    39     1    35    1
    40     1    36    1
    41     1    37    1
    42     3    38    1
    43     3    39    1
    44     4    40    1
    45     5    41    1
    46     5    42    1
    47     8    43    1
    48     9    44    1
    49    16    45    1
    50    16    46    1
    51    18    47    1
    52    19    48    1
    53    22    49    1
    54    23    50    1
    55    24    51    1
    56    25    52    1
    57    29    53    1
    58    30    54    1
    59    32    55    1
