@<TRIPOS>MOLECULE
*****
 37 40 0 0 0
SMALL
GASTEIGER

@<TRIPOS>ATOM
      1 C          -2.8730   -0.7650    1.6623 C.3     1  UNL1       -0.0380
      2 C          -3.3210    0.2434    0.6623 C.ar    1  UNL1       -0.0293
      3 C          -4.6778    0.5989    0.6378 C.ar    1  UNL1       -0.0571
      4 C          -5.1348    1.5482   -0.2173 C.ar    1  UNL1       -0.0614
      5 C          -4.2846    2.1897   -1.0840 C.ar    1  UNL1       -0.0600
      6 C          -2.9639    1.8306   -1.0483 C.ar    1  UNL1       -0.0403
      7 C          -2.4512    0.8611   -0.1884 C.ar    1  UNL1        0.0353
      8 N          -1.0288    0.5948   -0.2294 N.pl3   1  UNL1       -0.2987
      9 C          -0.5261   -0.6377   -0.7050 C.ar    1  UNL1        0.1339
     10 N          -1.3650   -1.5504   -1.2842 N.ar    1  UNL1       -0.2200
     11 C          -0.9107   -2.7070   -1.7689 C.ar    1  UNL1        0.1187
     12 N           0.4139   -2.9952   -1.6904 N.ar    1  UNL1       -0.2353
     13 C           1.2635   -2.1227   -1.1272 C.ar    1  UNL1        0.0760
     14 C           2.6190   -2.4208   -1.0383 C.ar    1  UNL1       -0.0350
     15 C           3.5375   -1.5754   -0.4669 C.ar    1  UNL1       -0.0514
     16 C           3.0862   -0.3826    0.0378 C.ar    1  UNL1       -0.0090
     17 C           4.0068    0.5707    0.6569 C.ar    1  UNL1        0.0388
     18 C           5.4010    0.5227    0.7358 C.ar    1  UNL1        0.0425
     19 N           5.9199    1.5569    1.3555 N.ar    1  UNL1       -0.2551
     20 C           5.4594    2.4507    1.8220 C.ar    1  UNL1        0.0652
     21 S           3.5948    2.1015    1.4841 S.2     1  UNL1       -0.0755
     22 C           1.7252   -0.0337   -0.0282 C.ar    1  UNL1       -0.0410
     23 C           0.8340   -0.9032   -0.6070 C.ar    1  UNL1        0.0410
     24 H          -3.7475   -1.4177    1.8944 H       1  UNL1        0.0278
     25 H          -2.5864   -0.1602    2.5669 H       1  UNL1        0.0278
     26 H          -2.0291   -1.3398    1.2843 H       1  UNL1        0.0278
     27 H          -5.3462    0.0881    1.3257 H       1  UNL1        0.0621
     28 H          -6.1938    1.8338   -0.2461 H       1  UNL1        0.0618
     29 H          -4.6058    2.9371   -1.7665 H       1  UNL1        0.0618
     30 H          -2.2571    2.3176   -1.7233 H       1  UNL1        0.0636
     31 H          -0.3982    1.3395    0.1002 H       1  UNL1        0.1536
     32 H          -1.5581   -3.4531   -2.2316 H       1  UNL1        0.1048
     33 H           2.9160   -3.3889   -1.4581 H       1  UNL1        0.0639
     34 H           4.5669   -1.8083   -0.4021 H       1  UNL1        0.0624
     35 H           5.9533   -0.2998    0.3098 H       1  UNL1        0.0841
     36 H           5.5676    3.4776    2.4082 H       1  UNL1        0.0907
     37 H           1.3942    0.8984    0.3671 H       1  UNL1        0.0631
@<TRIPOS>BOND
     1     1     2    1
     2     2     3   ar
     3     3     4   ar
     4     4     5   ar
     5     5     6   ar
     6     6     7   ar
     7     7     8    1
     8     8     9    1
     9     9    10   ar
    10    10    11   ar
    11    11    12   ar
    12    12    13   ar
    13    13    14   ar
    14    14    15   ar
    15    15    16   ar
    16    16    17    1
    17    17    18   ar
    18    18    19   ar
    19    19    20   ar
    20    20    21   ar
    21    16    22   ar
    22    22    23   ar
    23     7     2   ar
    24    23     9   ar
    25    23    13   ar
    26    21    17   ar
    27     1    24    1
    28     1    25    1
    29     1    26    1
    30     3    27    1
    31     4    28    1
    32     5    29    1
    33     6    30    1
    34     8    31    1
    35    11    32    1
    36    14    33    1
    37    15    34    1
    38    18    35    1
    39    20    36    1
    40    22    37    1
