
     RDKit          3D

 55 59  0  0  0  0  0  0  0  0999 V2000
    1.9711   -1.7966   -1.7232 C   0  0  0  0  0  0  0  0  0  0  0  0
    1.5676   -0.3549   -1.6901 C   0  0  2  0  0  0  0  0  0  0  0  0
    2.7180    0.5810   -1.3669 C   0  0  0  0  0  0  0  0  0  0  0  0
    3.1441    0.2721   -0.0410 N   0  0  0  0  0  0  0  0  0  0  0  0
    4.5234    0.3361    0.2817 C   0  0  0  0  0  0  0  0  0  0  0  0
    5.1500   -0.8072    0.7324 C   0  0  0  0  0  0  0  0  0  0  0  0
    6.4791   -0.7604    1.0481 C   0  0  0  0  0  0  0  0  0  0  0  0
    7.1649    0.4227    0.9107 C   0  0  0  0  0  0  0  0  0  0  0  0
    6.5364    1.5244    0.4703 N   0  0  0  0  0  0  0  0  0  0  0  0
    5.2172    1.5267    0.1444 C   0  0  0  0  0  0  0  0  0  0  0  0
    4.5852    2.7235   -0.3218 C   0  0  0  0  0  0  0  0  0  0  0  0
    4.0493    3.7035   -0.6993 N   0  0  0  0  0  0  0  0  0  0  0  0
    2.2057   -0.0999    0.9611 C   0  0  0  0  0  0  0  0  0  0  0  0
    0.7562    0.1883    0.6022 C   0  0  0  0  0  0  0  0  0  0  0  0
    0.4430   -0.1269   -0.7434 N   0  0  0  0  0  0  0  0  0  0  0  0
   -0.8664   -0.2348   -1.2298 C   0  0  0  0  0  0  0  0  0  0  0  0
   -0.9296   -0.5060   -2.4974 O   0  0  0  0  0  0  0  0  0  0  0  0
   -2.1522   -0.0927   -0.5550 C   0  0  0  0  0  0  0  0  0  0  0  0
   -2.3209    1.1404    0.2816 C   0  0  0  0  0  0  0  0  0  0  0  0
   -3.7495    1.1728    0.8078 C   0  0  0  0  0  0  0  0  0  0  0  0
   -4.1384   -0.0742    1.5369 C   0  0  0  0  0  0  0  0  0  0  0  0
   -3.9767   -1.2954    0.6227 C   0  0  0  0  0  0  0  0  0  0  0  0
   -4.9002   -1.1280   -0.5369 C   0  0  0  0  0  0  0  0  0  0  0  0
   -4.5788    0.1775   -1.2400 C   0  0  0  0  0  0  0  0  0  0  0  0
   -4.7307    1.3718   -0.3216 C   0  0  0  0  0  0  0  0  0  0  0  0
   -3.1780    0.1125   -1.7115 C   0  0  0  0  0  0  0  0  0  0  0  0
   -2.5097   -1.3034    0.2322 C   0  0  0  0  0  0  0  0  0  0  0  0
    1.5409   -2.3010   -0.8441 H   0  0  0  0  0  0  0  0  0  0  0  0
    1.5157   -2.3123   -2.6195 H   0  0  0  0  0  0  0  0  0  0  0  0
    3.0808   -1.8871   -1.7672 H   0  0  0  0  0  0  0  0  0  0  0  0
    1.2296   -0.0779   -2.7198 H   0  0  0  0  0  0  0  0  0  0  0  0
    3.4920    0.4108   -2.1162 H   0  0  0  0  0  0  0  0  0  0  0  0
    2.3334    1.6180   -1.4780 H   0  0  0  0  0  0  0  0  0  0  0  0
    4.5544   -1.7139    0.8200 H   0  0  0  0  0  0  0  0  0  0  0  0
    6.9876   -1.6530    1.4048 H   0  0  0  0  0  0  0  0  0  0  0  0
    8.2046    0.4457    1.1613 H   0  0  0  0  0  0  0  0  0  0  0  0
    2.2873   -1.1896    1.1440 H   0  0  0  0  0  0  0  0  0  0  0  0
    2.4713    0.4060    1.9226 H   0  0  0  0  0  0  0  0  0  0  0  0
    0.0967   -0.3383    1.3031 H   0  0  0  0  0  0  0  0  0  0  0  0
    0.6443    1.2915    0.8291 H   0  0  0  0  0  0  0  0  0  0  0  0
   -1.6809    1.2194    1.1573 H   0  0  0  0  0  0  0  0  0  0  0  0
   -2.1958    2.0467   -0.3469 H   0  0  0  0  0  0  0  0  0  0  0  0
   -3.8718    2.0228    1.5217 H   0  0  0  0  0  0  0  0  0  0  0  0
   -5.2214   -0.0088    1.7491 H   0  0  0  0  0  0  0  0  0  0  0  0
   -3.5968   -0.2167    2.4963 H   0  0  0  0  0  0  0  0  0  0  0  0
   -4.2356   -2.1772    1.2159 H   0  0  0  0  0  0  0  0  0  0  0  0
   -5.9280   -1.1834   -0.1828 H   0  0  0  0  0  0  0  0  0  0  0  0
   -4.6976   -1.9316   -1.2834 H   0  0  0  0  0  0  0  0  0  0  0  0
   -5.2326    0.2623   -2.1161 H   0  0  0  0  0  0  0  0  0  0  0  0
   -4.4542    2.2649   -0.8808 H   0  0  0  0  0  0  0  0  0  0  0  0
   -5.7456    1.4111    0.0917 H   0  0  0  0  0  0  0  0  0  0  0  0
   -2.9598   -0.6520   -2.4649 H   0  0  0  0  0  0  0  0  0  0  0  0
   -2.8996    1.1331   -2.1090 H   0  0  0  0  0  0  0  0  0  0  0  0
   -1.9583   -1.3061    1.1881 H   0  0  0  0  0  0  0  0  0  0  0  0
   -2.2411   -2.2561   -0.2758 H   0  0  0  0  0  0  0  0  0  0  0  0
  1  2  1  0
  2  3  1  0
  3  4  1  0
  4  5  1  0
  5  6  2  0
  6  7  1  0
  7  8  2  0
  8  9  1  0
  9 10  2  0
 10 11  1  0
 11 12  3  0
  4 13  1  0
 13 14  1  0
 14 15  1  0
 15 16  1  0
 16 17  2  0
 16 18  1  0
 18 19  1  0
 19 20  1  0
 20 21  1  0
 21 22  1  0
 22 23  1  0
 23 24  1  0
 24 25  1  0
 24 26  1  0
 22 27  1  0
 15  2  1  0
 26 18  1  0
 10  5  1  0
 27 18  1  0
 25 20  1  0
  1 28  1  0
  1 29  1  0
  1 30  1  0
  2 31  1  6
  3 32  1  0
  3 33  1  0
  6 34  1  0
  7 35  1  0
  8 36  1  0
 13 37  1  0
 13 38  1  0
 14 39  1  0
 14 40  1  0
 19 41  1  0
 19 42  1  0
 20 43  1  0
 21 44  1  0
 21 45  1  0
 22 46  1  0
 23 47  1  0
 23 48  1  0
 24 49  1  0
 25 50  1  0
 25 51  1  0
 26 52  1  0
 26 53  1  0
 27 54  1  0
 27 55  1  0
M  END
$$$$
