@<TRIPOS>MOLECULE
*****
 55 59 0 0 0
SMALL
GASTEIGER

@<TRIPOS>ATOM
      1 C           1.9711   -1.7966   -1.7232 C.3     1  UNL1       -0.0450
      2 C           1.5676   -0.3549   -1.6901 C.3     1  UNL1        0.0389
      3 C           2.7180    0.5810   -1.3669 C.3     1  UNL1        0.0307
      4 N           3.1441    0.2721   -0.0410 N.pl3   1  UNL1       -0.3245
      5 C           4.5234    0.3361    0.2817 C.ar    1  UNL1        0.0661
      6 C           5.1500   -0.8072    0.7324 C.ar    1  UNL1       -0.0364
      7 C           6.4791   -0.7604    1.0481 C.ar    1  UNL1       -0.0418
      8 C           7.1649    0.4227    0.9107 C.ar    1  UNL1        0.0292
      9 N           6.5364    1.5244    0.4703 N.ar    1  UNL1       -0.2428
     10 C           5.2172    1.5267    0.1444 C.ar    1  UNL1        0.1609
     11 C           4.5852    2.7235   -0.3218 C.1     1  UNL1        0.1210
     12 N           4.0493    3.7035   -0.6993 N.1     1  UNL1       -0.1892
     13 C           2.2057   -0.0999    0.9611 C.3     1  UNL1        0.0281
     14 C           0.7562    0.1883    0.6022 C.3     1  UNL1        0.0307
     15 N           0.4430   -0.1269   -0.7434 N.am    1  UNL1       -0.2952
     16 C          -0.8664   -0.2348   -1.2298 C.2     1  UNL1        0.2221
     17 O          -0.9296   -0.5060   -2.4974 O.2     1  UNL1       -0.2750
     18 C          -2.1522   -0.0927   -0.5550 C.3     1  UNL1        0.0479
     19 C          -2.3209    1.1404    0.2816 C.3     1  UNL1       -0.0362
     20 C          -3.7495    1.1728    0.8078 C.3     1  UNL1       -0.0396
     21 C          -4.1384   -0.0742    1.5369 C.3     1  UNL1       -0.0473
     22 C          -3.9767   -1.2954    0.6227 C.3     1  UNL1       -0.0396
     23 C          -4.9002   -1.1280   -0.5369 C.3     1  UNL1       -0.0473
     24 C          -4.5788    0.1775   -1.2400 C.3     1  UNL1       -0.0396
     25 C          -4.7307    1.3718   -0.3216 C.3     1  UNL1       -0.0473
     26 C          -3.1780    0.1125   -1.7115 C.3     1  UNL1       -0.0362
     27 C          -2.5097   -1.3034    0.2322 C.3     1  UNL1       -0.0362
     28 H           1.5409   -2.3010   -0.8441 H       1  UNL1        0.0248
     29 H           1.5157   -2.3123   -2.6195 H       1  UNL1        0.0248
     30 H           3.0808   -1.8871   -1.7672 H       1  UNL1        0.0248
     31 H           1.2296   -0.0779   -2.7198 H       1  UNL1        0.0513
     32 H           3.4920    0.4108   -2.1162 H       1  UNL1        0.0482
     33 H           2.3334    1.6180   -1.4780 H       1  UNL1        0.0482
     34 H           4.5544   -1.7139    0.8200 H       1  UNL1        0.0637
     35 H           6.9876   -1.6530    1.4048 H       1  UNL1        0.0633
     36 H           8.2046    0.4457    1.1613 H       1  UNL1        0.0830
     37 H           2.2873   -1.1896    1.1440 H       1  UNL1        0.0479
     38 H           2.4713    0.4060    1.9226 H       1  UNL1        0.0479
     39 H           0.0967   -0.3383    1.3031 H       1  UNL1        0.0480
     40 H           0.6443    1.2915    0.8291 H       1  UNL1        0.0480
     41 H          -1.6809    1.2194    1.1573 H       1  UNL1        0.0278
     42 H          -2.1958    2.0467   -0.3469 H       1  UNL1        0.0278
     43 H          -3.8718    2.0228    1.5217 H       1  UNL1        0.0301
     44 H          -5.2214   -0.0088    1.7491 H       1  UNL1        0.0271
     45 H          -3.5968   -0.2167    2.4963 H       1  UNL1        0.0271
     46 H          -4.2356   -2.1772    1.2159 H       1  UNL1        0.0301
     47 H          -5.9280   -1.1834   -0.1828 H       1  UNL1        0.0271
     48 H          -4.6976   -1.9316   -1.2834 H       1  UNL1        0.0271
     49 H          -5.2326    0.2623   -2.1161 H       1  UNL1        0.0301
     50 H          -4.4542    2.2649   -0.8808 H       1  UNL1        0.0271
     51 H          -5.7456    1.4111    0.0917 H       1  UNL1        0.0271
     52 H          -2.9598   -0.6520   -2.4649 H       1  UNL1        0.0278
     53 H          -2.8996    1.1331   -2.1090 H       1  UNL1        0.0278
     54 H          -1.9583   -1.3061    1.1881 H       1  UNL1        0.0278
     55 H          -2.2411   -2.2561   -0.2758 H       1  UNL1        0.0278
@<TRIPOS>BOND
     1     1     2    1
     2     2     3    1
     3     3     4    1
     4     4     5    1
     5     5     6   ar
     6     6     7   ar
     7     7     8   ar
     8     8     9   ar
     9     9    10   ar
    10    10    11    1
    11    11    12    3
    12     4    13    1
    13    13    14    1
    14    14    15    1
    15    15    16   am
    16    16    17    2
    17    16    18    1
    18    18    19    1
    19    19    20    1
    20    20    21    1
    21    21    22    1
    22    22    23    1
    23    23    24    1
    24    24    25    1
    25    24    26    1
    26    22    27    1
    27    15     2    1
    28    26    18    1
    29    10     5   ar
    30    27    18    1
    31    25    20    1
    32     1    28    1
    33     1    29    1
    34     1    30    1
    35     2    31    1
    36     3    32    1
    37     3    33    1
    38     6    34    1
    39     7    35    1
    40     8    36    1
    41    13    37    1
    42    13    38    1
    43    14    39    1
    44    14    40    1
    45    19    41    1
    46    19    42    1
    47    20    43    1
    48    21    44    1
    49    21    45    1
    50    22    46    1
    51    23    47    1
    52    23    48    1
    53    24    49    1
    54    25    50    1
    55    25    51    1
    56    26    52    1
    57    26    53    1
    58    27    54    1
    59    27    55    1
