@<TRIPOS>MOLECULE
*****
 37 39 0 0 0
SMALL
GASTEIGER

@<TRIPOS>ATOM
      1 N           1.8190    5.2344    0.9378 N.1     1  UNL1       -0.1876
      2 C           1.3633    4.1796    0.7757 C.1     1  UNL1        0.1401
      3 C           0.7932    2.8631    0.5980 C.ar    1  UNL1        0.2378
      4 N           1.5626    1.7651    0.4903 N.ar    1  UNL1       -0.1849
      5 C           1.1004    0.5275    0.3257 C.ar    1  UNL1        0.2249
      6 N           1.8799   -0.6481    0.2090 N.pl3   1  UNL1       -0.2834
      7 C           3.2816   -0.7292    0.2451 C.ar    1  UNL1        0.0350
      8 C           3.8673   -1.9968    0.1108 C.ar    1  UNL1       -0.0404
      9 C           5.2193   -2.2017    0.1303 C.ar    1  UNL1       -0.0586
     10 C           6.0808   -1.1412    0.2869 C.ar    1  UNL1       -0.0433
     11 C           5.5291    0.1097    0.4202 C.ar    1  UNL1        0.0427
     12 CL          6.5878    1.4870    0.6215 Cl      1  UNL1       -0.0835
     13 C           4.1495    0.3180    0.4002 C.ar    1  UNL1       -0.0221
     14 N          -0.2557    0.4165    0.2682 N.ar    1  UNL1       -0.1808
     15 C          -1.0917    1.4587    0.3670 C.ar    1  UNL1        0.2208
     16 N          -2.4919    1.3357    0.3066 N.pl3   1  UNL1       -0.3105
     17 C          -3.1963    0.0917    0.1334 C.3     1  UNL1        0.0233
     18 C          -2.8399   -0.6149   -1.1485 C.3     1  UNL1       -0.0345
     19 C          -3.9332   -1.6848   -1.2065 C.3     1  UNL1       -0.0513
     20 C          -5.1336   -1.0713   -0.5152 C.3     1  UNL1       -0.0513
     21 C          -4.6866    0.2960   -0.0305 C.3     1  UNL1       -0.0345
     22 N          -0.5305    2.6699    0.5316 N.ar    1  UNL1       -0.1852
     23 H           1.3571   -1.5580    0.0818 H       1  UNL1        0.1550
     24 H           3.2535   -2.8832   -0.0165 H       1  UNL1        0.0636
     25 H           5.6640   -3.1861    0.0258 H       1  UNL1        0.0619
     26 H           7.1646   -1.2775    0.3058 H       1  UNL1        0.0632
     27 H           3.7739    1.3179    0.5089 H       1  UNL1        0.0651
     28 H          -3.0846    2.1889    0.3907 H       1  UNL1        0.1492
     29 H          -3.0453   -0.6154    0.9707 H       1  UNL1        0.0498
     30 H          -1.8380   -1.0412   -1.0872 H       1  UNL1        0.0283
     31 H          -3.0089    0.0474   -2.0058 H       1  UNL1        0.0283
     32 H          -4.1382   -2.0198   -2.2253 H       1  UNL1        0.0266
     33 H          -3.5882   -2.5396   -0.5551 H       1  UNL1        0.0266
     34 H          -6.0116   -0.9933   -1.2050 H       1  UNL1        0.0266
     35 H          -5.4866   -1.7000    0.3335 H       1  UNL1        0.0266
     36 H          -4.9504    1.0522   -0.7696 H       1  UNL1        0.0283
     37 H          -5.1355    0.5432    0.9572 H       1  UNL1        0.0283
@<TRIPOS>BOND
     1     1     2    3
     2     2     3    1
     3     3     4   ar
     4     4     5   ar
     5     5     6    1
     6     6     7    1
     7     7     8   ar
     8     8     9   ar
     9     9    10   ar
    10    10    11   ar
    11    11    12    1
    12    11    13   ar
    13     5    14   ar
    14    14    15   ar
    15    15    16    1
    16    16    17    1
    17    17    18    1
    18    18    19    1
    19    19    20    1
    20    20    21    1
    21    15    22   ar
    22    22     3   ar
    23    13     7   ar
    24    21    17    1
    25     6    23    1
    26     8    24    1
    27     9    25    1
    28    10    26    1
    29    13    27    1
    30    16    28    1
    31    17    29    1
    32    18    30    1
    33    18    31    1
    34    19    32    1
    35    19    33    1
    36    20    34    1
    37    20    35    1
    38    21    36    1
    39    21    37    1
