
     RDKit          3D

 37 39  0  0  0  0  0  0  0  0999 V2000
    1.8190    5.2344    0.9378 N   0  0  0  0  0  0  0  0  0  0  0  0
    1.3633    4.1796    0.7757 C   0  0  0  0  0  0  0  0  0  0  0  0
    0.7932    2.8631    0.5980 C   0  0  0  0  0  0  0  0  0  0  0  0
    1.5626    1.7651    0.4903 N   0  0  0  0  0  0  0  0  0  0  0  0
    1.1004    0.5275    0.3257 C   0  0  0  0  0  0  0  0  0  0  0  0
    1.8799   -0.6481    0.2090 N   0  0  0  0  0  0  0  0  0  0  0  0
    3.2816   -0.7292    0.2451 C   0  0  0  0  0  0  0  0  0  0  0  0
    3.8673   -1.9968    0.1108 C   0  0  0  0  0  0  0  0  0  0  0  0
    5.2193   -2.2017    0.1303 C   0  0  0  0  0  0  0  0  0  0  0  0
    6.0808   -1.1412    0.2869 C   0  0  0  0  0  0  0  0  0  0  0  0
    5.5291    0.1097    0.4202 C   0  0  0  0  0  0  0  0  0  0  0  0
    6.5878    1.4870    0.6215 Cl  0  0  0  0  0  0  0  0  0  0  0  0
    4.1495    0.3180    0.4002 C   0  0  0  0  0  0  0  0  0  0  0  0
   -0.2557    0.4165    0.2682 N   0  0  0  0  0  0  0  0  0  0  0  0
   -1.0917    1.4587    0.3670 C   0  0  0  0  0  0  0  0  0  0  0  0
   -2.4919    1.3357    0.3066 N   0  0  0  0  0  0  0  0  0  0  0  0
   -3.1963    0.0917    0.1334 C   0  0  0  0  0  0  0  0  0  0  0  0
   -2.8399   -0.6149   -1.1485 C   0  0  0  0  0  0  0  0  0  0  0  0
   -3.9332   -1.6848   -1.2065 C   0  0  0  0  0  0  0  0  0  0  0  0
   -5.1336   -1.0713   -0.5152 C   0  0  0  0  0  0  0  0  0  0  0  0
   -4.6866    0.2960   -0.0305 C   0  0  0  0  0  0  0  0  0  0  0  0
   -0.5305    2.6699    0.5316 N   0  0  0  0  0  0  0  0  0  0  0  0
    1.3571   -1.5580    0.0818 H   0  0  0  0  0  0  0  0  0  0  0  0
    3.2535   -2.8832   -0.0165 H   0  0  0  0  0  0  0  0  0  0  0  0
    5.6640   -3.1861    0.0258 H   0  0  0  0  0  0  0  0  0  0  0  0
    7.1646   -1.2775    0.3058 H   0  0  0  0  0  0  0  0  0  0  0  0
    3.7739    1.3179    0.5089 H   0  0  0  0  0  0  0  0  0  0  0  0
   -3.0846    2.1889    0.3907 H   0  0  0  0  0  0  0  0  0  0  0  0
   -3.0453   -0.6154    0.9707 H   0  0  0  0  0  0  0  0  0  0  0  0
   -1.8380   -1.0412   -1.0872 H   0  0  0  0  0  0  0  0  0  0  0  0
   -3.0089    0.0474   -2.0058 H   0  0  0  0  0  0  0  0  0  0  0  0
   -4.1382   -2.0198   -2.2253 H   0  0  0  0  0  0  0  0  0  0  0  0
   -3.5882   -2.5396   -0.5551 H   0  0  0  0  0  0  0  0  0  0  0  0
   -6.0116   -0.9933   -1.2050 H   0  0  0  0  0  0  0  0  0  0  0  0
   -5.4866   -1.7000    0.3335 H   0  0  0  0  0  0  0  0  0  0  0  0
   -4.9504    1.0522   -0.7696 H   0  0  0  0  0  0  0  0  0  0  0  0
   -5.1355    0.5432    0.9572 H   0  0  0  0  0  0  0  0  0  0  0  0
  1  2  3  0
  2  3  1  0
  3  4  2  0
  4  5  1  0
  5  6  1  0
  6  7  1  0
  7  8  2  0
  8  9  1  0
  9 10  2  0
 10 11  1  0
 11 12  1  0
 11 13  2  0
  5 14  2  0
 14 15  1  0
 15 16  1  0
 16 17  1  0
 17 18  1  0
 18 19  1  0
 19 20  1  0
 20 21  1  0
 15 22  2  0
 22  3  1  0
 13  7  1  0
 21 17  1  0
  6 23  1  0
  8 24  1  0
  9 25  1  0
 10 26  1  0
 13 27  1  0
 16 28  1  0
 17 29  1  0
 18 30  1  0
 18 31  1  0
 19 32  1  0
 19 33  1  0
 20 34  1  0
 20 35  1  0
 21 36  1  0
 21 37  1  0
M  END
$$$$
