@<TRIPOS>MOLECULE
*****
 71 76 0 0 0
SMALL
GASTEIGER

@<TRIPOS>ATOM
      1 N          -7.5020   -2.1207   -0.6606 N.pl3   1  UNL1       -0.3559
      2 C          -6.1952   -1.7889   -0.2781 C.ar    1  UNL1        0.0639
      3 C          -5.1697   -2.4494   -0.9200 C.ar    1  UNL1        0.1398
      4 C          -3.9300   -2.1274   -0.5258 C.ar    1  UNL1       -0.0107
      5 C          -3.6046   -1.2151    0.4507 C.ar    1  UNL1        0.0450
      6 N          -2.3251   -0.7900    0.7640 N.pl3   1  UNL1       -0.3138
      7 C          -1.0803   -0.8421    0.1139 C.ar    1  UNL1        0.0333
      8 C          -0.3888   -1.7982   -0.5563 C.ar    1  UNL1       -0.0387
      9 C           0.7904   -1.5392   -1.2009 C.ar    1  UNL1       -0.0368
     10 C           1.2792   -0.2257   -1.1435 C.ar    1  UNL1        0.0612
     11 N           2.4935    0.0569   -1.6947 N.pl3   1  UNL1       -0.2818
     12 C           3.7105    0.3343   -2.2521 C.ar    1  UNL1        0.2251
     13 N           3.6852    0.2470   -3.6146 N.ar    1  UNL1       -0.1838
     14 C           4.8262    0.5469   -4.2805 C.ar    1  UNL1        0.2286
     15 CL          5.1659    0.5902   -6.0335 Cl      1  UNL1       -0.0409
     16 N           5.9324    0.9102   -3.6289 N.ar    1  UNL1       -0.1838
     17 C           6.0234    1.0115   -2.3127 C.ar    1  UNL1        0.2251
     18 N           6.8279    1.3283   -1.1560 N.pl3   1  UNL1       -0.2818
     19 C           7.5577    0.2084   -0.6355 C.ar    1  UNL1        0.0611
     20 C           7.6326   -1.0063   -1.2817 C.ar    1  UNL1       -0.0385
     21 C           8.3406   -2.0713   -0.8174 C.ar    1  UNL1       -0.0599
     22 C           9.0247   -1.9161    0.3828 C.ar    1  UNL1       -0.0598
     23 C           8.9597   -0.6995    1.0496 C.ar    1  UNL1       -0.0326
     24 C           8.2372    0.3411    0.5455 C.ar    1  UNL1        0.1379
     25 S           8.0949    1.8979    1.3730 S.O2    1  UNL1        0.1114
     26 O           6.4651    2.0800    1.7163 O.3     1  UNL1       -0.2497
     27 O           8.6434    3.0124    0.5502 O.2     1  UNL1       -0.1420
     28 O           8.8756    1.7712    2.6463 O.2     1  UNL1       -0.1420
     29 N           4.9089    0.7166   -1.6953 N.ar    1  UNL1       -0.1805
     30 C           0.5727    0.7941   -0.4459 C.ar    1  UNL1        0.1397
     31 C          -0.6333    0.4862    0.1974 C.ar    1  UNL1       -0.0114
     32 S           1.2736    2.4049   -0.4691 S.O2    1  UNL1        0.1114
     33 O           0.1500    3.4542    0.2562 O.3     1  UNL1       -0.2497
     34 O           1.5078    2.9193   -1.8657 O.2     1  UNL1       -0.1420
     35 O           2.5322    2.4900    0.3690 O.2     1  UNL1       -0.1420
     36 C          -4.7024   -0.5966    1.0450 C.ar    1  UNL1        0.0561
     37 C          -6.0130   -0.8380    0.7274 C.ar    1  UNL1        0.0574
     38 C          -7.1551   -0.1953    1.2872 C.2     1  UNL1        0.1964
     39 O          -8.3507   -0.4982    0.9275 O.2     1  UNL1       -0.2865
     40 C          -6.9435    0.8266    2.2840 C.ar    1  UNL1        0.0331
     41 C          -8.0416    1.4935    2.8591 C.ar    1  UNL1       -0.0502
     42 C          -7.8333    2.4743    3.8083 C.ar    1  UNL1       -0.0610
     43 C          -6.5696    2.8061    4.2051 C.ar    1  UNL1       -0.0610
     44 C          -5.5079    2.1449    3.6395 C.ar    1  UNL1       -0.0502
     45 C          -5.6575    1.1591    2.6849 C.ar    1  UNL1        0.0331
     46 C          -4.5505    0.4414    2.0567 C.2     1  UNL1        0.1963
     47 O          -3.4622    0.8474    2.5091 O.2     1  UNL1       -0.2865
     48 S          -5.3564   -3.6041   -2.2369 S.O2    1  UNL1        0.1114
     49 O          -5.8416   -2.7407   -3.6021 O.3     1  UNL1       -0.2497
     50 O          -4.1075   -4.3305   -2.5402 O.2     1  UNL1       -0.1420
     51 O          -6.4986   -4.5608   -1.9255 O.2     1  UNL1       -0.1420
     52 H          -8.3199   -2.1564   -1.2641 H       1  UNL1        0.1424
     53 H          -7.9967   -2.6587    0.1160 H       1  UNL1        0.1424
     54 H          -3.1089   -2.6266   -1.0277 H       1  UNL1        0.0657
     55 H          -2.2427   -0.4046    1.7198 H       1  UNL1        0.1522
     56 H          -0.9047   -2.7303   -0.4524 H       1  UNL1        0.0637
     57 H           1.2576   -2.3511   -1.6980 H       1  UNL1        0.0637
     58 H           2.8011    0.7087   -0.9536 H       1  UNL1        0.1551
     59 H           6.8538    2.2749   -0.7277 H       1  UNL1        0.1551
     60 H           7.0727   -1.0965   -2.2358 H       1  UNL1        0.0637
     61 H           8.3262   -2.9917   -1.4323 H       1  UNL1        0.0618
     62 H           9.5887   -2.7799    0.7352 H       1  UNL1        0.0618
     63 H           9.4775   -0.5906    1.9581 H       1  UNL1        0.0638
     64 H           6.2803    1.7508    2.6314 H       1  UNL1        0.2449
     65 H          -1.0224    1.3770    0.6587 H       1  UNL1        0.0656
     66 H          -0.4469    3.7746   -0.4745 H       1  UNL1        0.2449
     67 H          -9.0692    1.2539    2.5710 H       1  UNL1        0.0625
     68 H          -8.6608    3.0170    4.2978 H       1  UNL1        0.0618
     69 H          -6.3614    3.5519    4.9412 H       1  UNL1        0.0618
     70 H          -4.5070    2.4258    3.9633 H       1  UNL1        0.0625
     71 H          -5.1078   -2.2652   -4.0017 H       1  UNL1        0.2449
@<TRIPOS>BOND
     1     1     2    1
     2     2     3   ar
     3     3     4   ar
     4     4     5   ar
     5     5     6    1
     6     6     7    1
     7     7     8   ar
     8     8     9   ar
     9     9    10   ar
    10    10    11    1
    11    11    12    1
    12    12    13   ar
    13    13    14   ar
    14    14    15    1
    15    14    16   ar
    16    16    17   ar
    17    17    18    1
    18    18    19    1
    19    19    20   ar
    20    20    21   ar
    21    21    22   ar
    22    22    23   ar
    23    23    24   ar
    24    24    25    1
    25    25    26    1
    26    25    27    2
    27    25    28    2
    28    17    29   ar
    29    10    30   ar
    30    30    31   ar
    31    30    32    1
    32    32    33    1
    33    32    34    2
    34    32    35    2
    35     5    36   ar
    36    36    37   ar
    37    37    38    1
    38    38    39    2
    39    38    40    1
    40    40    41   ar
    41    41    42   ar
    42    42    43   ar
    43    43    44   ar
    44    44    45   ar
    45    45    46    1
    46    46    47    2
    47     3    48    1
    48    48    49    1
    49    48    50    2
    50    48    51    2
    51    37     2   ar
    52    45    40   ar
    53    31     7   ar
    54    46    36    1
    55    29    12   ar
    56    24    19   ar
    57     1    52    1
    58     1    53    1
    59     4    54    1
    60     6    55    1
    61     8    56    1
    62     9    57    1
    63    11    58    1
    64    18    59    1
    65    20    60    1
    66    21    61    1
    67    22    62    1
    68    23    63    1
    69    26    64    1
    70    31    65    1
    71    33    66    1
    72    41    67    1
    73    42    68    1
    74    43    69    1
    75    44    70    1
    76    49    71    1
