@<TRIPOS>MOLECULE
*****
 60 63 0 0 0
SMALL
GASTEIGER

@<TRIPOS>ATOM
      1 C          -7.5794    1.3640    3.5207 C.3     1  UNL1        0.0788
      2 O          -6.5911    0.3724    3.3191 O.3     1  UNL1       -0.4951
      3 C          -5.4807    0.6964    2.5201 C.ar    1  UNL1        0.1201
      4 C          -4.4807   -0.2257    2.2836 C.ar    1  UNL1       -0.0193
      5 C          -3.3922    0.0962    1.4985 C.ar    1  UNL1       -0.0475
      6 C          -3.2428    1.3334    0.9160 C.ar    1  UNL1        0.0226
      7 C          -2.1365    1.6954    0.0917 C.2     1  UNL1        0.1955
      8 O          -1.8454    2.9589    0.0949 O.2     1  UNL1       -0.2866
      9 C          -1.3013    0.8371   -0.7374 C.ar    1  UNL1        0.0520
     10 C           0.0423    1.0510   -1.0529 C.ar    1  UNL1        0.0293
     11 C           0.8059    2.2046   -0.5368 C.3     1  UNL1       -0.0235
     12 N           0.5112    0.1024   -1.8634 N.ar    1  UNL1       -0.3243
     13 C           1.8669   -0.0405   -2.4056 C.3     1  UNL1        0.0500
     14 C           2.7075   -0.8747   -1.5528 C.ar    1  UNL1       -0.0243
     15 C           2.7095   -2.2649   -1.6106 C.ar    1  UNL1       -0.0566
     16 C           3.5436   -2.9723   -0.7738 C.ar    1  UNL1       -0.0580
     17 C           4.3745   -2.3520    0.1167 C.ar    1  UNL1       -0.0199
     18 C           4.4021   -0.9574    0.2051 C.ar    1  UNL1        0.1220
     19 O           5.2610   -0.3965    1.1215 O.3     1  UNL1       -0.4779
     20 C           5.4042    0.9569    1.3235 C.3     1  UNL1        0.1931
     21 C           5.0621    1.3303    2.7795 C.3     1  UNL1       -0.0172
     22 C           6.8073    1.4339    1.1359 C.2     1  UNL1        0.3456
     23 O           7.0485    2.6566    1.2975 O.2     1  UNL1       -0.2468
     24 O           7.8528    0.6031    0.7941 O.3     1  UNL1       -0.4781
     25 C           3.5566   -0.2806   -0.6448 C.ar    1  UNL1       -0.0150
     26 C          -0.5155   -0.7416   -2.0910 C.ar    1  UNL1        0.1422
     27 N          -0.6018   -1.8406   -2.8332 N.ar    1  UNL1       -0.2342
     28 C          -1.7151   -2.5769   -2.9776 C.ar    1  UNL1        0.0406
     29 C          -1.7607   -3.8139   -3.8293 C.3     1  UNL1       -0.0223
     30 C          -2.8425   -2.1567   -2.3067 C.ar    1  UNL1       -0.0399
     31 C          -2.8302   -1.0283   -1.5188 C.ar    1  UNL1       -0.0487
     32 C          -1.6598   -0.3091   -1.4027 C.ar    1  UNL1        0.0300
     33 C          -4.2474    2.2445    1.1599 C.ar    1  UNL1       -0.0475
     34 C          -5.3460    1.9402    1.9439 C.ar    1  UNL1       -0.0193
     35 H          -7.2148    2.1693    4.1903 H       1  UNL1        0.0660
     36 H          -8.4861    0.9024    3.9968 H       1  UNL1        0.0660
     37 H          -7.9174    1.8335    2.5720 H       1  UNL1        0.0660
     38 H          -4.5754   -1.1985    2.7283 H       1  UNL1        0.0654
     39 H          -2.6288   -0.6857    1.3502 H       1  UNL1        0.0626
     40 H           1.7952    2.2647   -1.0614 H       1  UNL1        0.0292
     41 H           1.0282    2.0836    0.5382 H       1  UNL1        0.0292
     42 H           0.2811    3.1737   -0.7339 H       1  UNL1        0.0292
     43 H           2.3196    0.9441   -2.5126 H       1  UNL1        0.0542
     44 H           1.8408   -0.5045   -3.4134 H       1  UNL1        0.0542
     45 H           2.0521   -2.7145   -2.3135 H       1  UNL1        0.0621
     46 H           3.5434   -4.0678   -0.8207 H       1  UNL1        0.0619
     47 H           5.0126   -2.9175    0.7555 H       1  UNL1        0.0654
     48 H           4.7842    1.6256    0.7092 H       1  UNL1        0.0849
     49 H           5.6446    2.1991    3.1067 H       1  UNL1        0.0271
     50 H           3.9809    1.5537    2.8076 H       1  UNL1        0.0271
     51 H           5.2321    0.4448    3.4271 H       1  UNL1        0.0271
     52 H           8.5558    0.9125    0.1055 H       1  UNL1        0.2952
     53 H           3.5765    0.8012   -0.5826 H       1  UNL1        0.0657
     54 H          -2.4126   -3.5544   -4.7140 H       1  UNL1        0.0292
     55 H          -2.2727   -4.6202   -3.2637 H       1  UNL1        0.0292
     56 H          -0.7752   -4.0875   -4.2031 H       1  UNL1        0.0292
     57 H          -3.7407   -2.7694   -2.4368 H       1  UNL1        0.0636
     58 H          -3.7413   -0.7398   -1.0432 H       1  UNL1        0.0625
     59 H          -4.1499    3.2378    0.7056 H       1  UNL1        0.0626
     60 H          -6.1191    2.6684    2.1210 H       1  UNL1        0.0654
@<TRIPOS>BOND
     1     1     2    1
     2     2     3    1
     3     3     4   ar
     4     4     5   ar
     5     5     6   ar
     6     6     7    1
     7     7     8    2
     8     7     9    1
     9     9    10   ar
    10    10    11    1
    11    10    12   ar
    12    12    13    1
    13    13    14    1
    14    14    15   ar
    15    15    16   ar
    16    16    17   ar
    17    17    18   ar
    18    18    19    1
    19    19    20    1
    20    20    21    1
    21    20    22    1
    22    22    23    2
    23    22    24    1
    24    18    25   ar
    25    12    26   ar
    26    26    27   ar
    27    27    28   ar
    28    28    29    1
    29    28    30   ar
    30    30    31   ar
    31    31    32   ar
    32     6    33   ar
    33    33    34   ar
    34    34     3   ar
    35    32     9   ar
    36    25    14   ar
    37    32    26   ar
    38     1    35    1
    39     1    36    1
    40     1    37    1
    41     4    38    1
    42     5    39    1
    43    11    40    1
    44    11    41    1
    45    11    42    1
    46    13    43    1
    47    13    44    1
    48    15    45    1
    49    16    46    1
    50    17    47    1
    51    20    48    1
    52    21    49    1
    53    21    50    1
    54    21    51    1
    55    24    52    1
    56    25    53    1
    57    29    54    1
    58    29    55    1
    59    29    56    1
    60    30    57    1
    61    31    58    1
    62    33    59    1
    63    34    60    1
