
     RDKit          3D

 60 63  0  0  0  0  0  0  0  0999 V2000
   -7.5794    1.3640    3.5207 C   0  0  0  0  0  0  0  0  0  0  0  0
   -6.5911    0.3724    3.3191 O   0  0  0  0  0  0  0  0  0  0  0  0
   -5.4807    0.6964    2.5201 C   0  0  0  0  0  0  0  0  0  0  0  0
   -4.4807   -0.2257    2.2836 C   0  0  0  0  0  0  0  0  0  0  0  0
   -3.3922    0.0962    1.4985 C   0  0  0  0  0  0  0  0  0  0  0  0
   -3.2428    1.3334    0.9160 C   0  0  0  0  0  0  0  0  0  0  0  0
   -2.1365    1.6954    0.0917 C   0  0  0  0  0  0  0  0  0  0  0  0
   -1.8454    2.9589    0.0949 O   0  0  0  0  0  0  0  0  0  0  0  0
   -1.3013    0.8371   -0.7374 C   0  0  0  0  0  0  0  0  0  0  0  0
    0.0423    1.0510   -1.0529 C   0  0  0  0  0  0  0  0  0  0  0  0
    0.8059    2.2046   -0.5368 C   0  0  0  0  0  0  0  0  0  0  0  0
    0.5112    0.1024   -1.8634 N   0  0  0  0  0  0  0  0  0  0  0  0
    1.8669   -0.0405   -2.4056 C   0  0  0  0  0  0  0  0  0  0  0  0
    2.7075   -0.8747   -1.5528 C   0  0  0  0  0  0  0  0  0  0  0  0
    2.7095   -2.2649   -1.6106 C   0  0  0  0  0  0  0  0  0  0  0  0
    3.5436   -2.9723   -0.7738 C   0  0  0  0  0  0  0  0  0  0  0  0
    4.3745   -2.3520    0.1167 C   0  0  0  0  0  0  0  0  0  0  0  0
    4.4021   -0.9574    0.2051 C   0  0  0  0  0  0  0  0  0  0  0  0
    5.2610   -0.3965    1.1215 O   0  0  0  0  0  0  0  0  0  0  0  0
    5.4042    0.9569    1.3235 C   0  0  1  0  0  0  0  0  0  0  0  0
    5.0621    1.3303    2.7795 C   0  0  0  0  0  0  0  0  0  0  0  0
    6.8073    1.4339    1.1359 C   0  0  0  0  0  0  0  0  0  0  0  0
    7.0485    2.6566    1.2975 O   0  0  0  0  0  0  0  0  0  0  0  0
    7.8528    0.6031    0.7941 O   0  0  0  0  0  0  0  0  0  0  0  0
    3.5566   -0.2806   -0.6448 C   0  0  0  0  0  0  0  0  0  0  0  0
   -0.5155   -0.7416   -2.0910 C   0  0  0  0  0  0  0  0  0  0  0  0
   -0.6018   -1.8406   -2.8332 N   0  0  0  0  0  0  0  0  0  0  0  0
   -1.7151   -2.5769   -2.9776 C   0  0  0  0  0  0  0  0  0  0  0  0
   -1.7607   -3.8139   -3.8293 C   0  0  0  0  0  0  0  0  0  0  0  0
   -2.8425   -2.1567   -2.3067 C   0  0  0  0  0  0  0  0  0  0  0  0
   -2.8302   -1.0283   -1.5188 C   0  0  0  0  0  0  0  0  0  0  0  0
   -1.6598   -0.3091   -1.4027 C   0  0  0  0  0  0  0  0  0  0  0  0
   -4.2474    2.2445    1.1599 C   0  0  0  0  0  0  0  0  0  0  0  0
   -5.3460    1.9402    1.9439 C   0  0  0  0  0  0  0  0  0  0  0  0
   -7.2148    2.1693    4.1903 H   0  0  0  0  0  0  0  0  0  0  0  0
   -8.4861    0.9024    3.9968 H   0  0  0  0  0  0  0  0  0  0  0  0
   -7.9174    1.8335    2.5720 H   0  0  0  0  0  0  0  0  0  0  0  0
   -4.5754   -1.1985    2.7283 H   0  0  0  0  0  0  0  0  0  0  0  0
   -2.6288   -0.6857    1.3502 H   0  0  0  0  0  0  0  0  0  0  0  0
    1.7952    2.2647   -1.0614 H   0  0  0  0  0  0  0  0  0  0  0  0
    1.0282    2.0836    0.5382 H   0  0  0  0  0  0  0  0  0  0  0  0
    0.2811    3.1737   -0.7339 H   0  0  0  0  0  0  0  0  0  0  0  0
    2.3196    0.9441   -2.5126 H   0  0  0  0  0  0  0  0  0  0  0  0
    1.8408   -0.5045   -3.4134 H   0  0  0  0  0  0  0  0  0  0  0  0
    2.0521   -2.7145   -2.3135 H   0  0  0  0  0  0  0  0  0  0  0  0
    3.5434   -4.0678   -0.8207 H   0  0  0  0  0  0  0  0  0  0  0  0
    5.0126   -2.9175    0.7555 H   0  0  0  0  0  0  0  0  0  0  0  0
    4.7842    1.6256    0.7092 H   0  0  0  0  0  0  0  0  0  0  0  0
    5.6446    2.1991    3.1067 H   0  0  0  0  0  0  0  0  0  0  0  0
    3.9809    1.5537    2.8076 H   0  0  0  0  0  0  0  0  0  0  0  0
    5.2321    0.4448    3.4271 H   0  0  0  0  0  0  0  0  0  0  0  0
    8.5558    0.9125    0.1055 H   0  0  0  0  0  0  0  0  0  0  0  0
    3.5765    0.8012   -0.5826 H   0  0  0  0  0  0  0  0  0  0  0  0
   -2.4126   -3.5544   -4.7140 H   0  0  0  0  0  0  0  0  0  0  0  0
   -2.2727   -4.6202   -3.2637 H   0  0  0  0  0  0  0  0  0  0  0  0
   -0.7752   -4.0875   -4.2031 H   0  0  0  0  0  0  0  0  0  0  0  0
   -3.7407   -2.7694   -2.4368 H   0  0  0  0  0  0  0  0  0  0  0  0
   -3.7413   -0.7398   -1.0432 H   0  0  0  0  0  0  0  0  0  0  0  0
   -4.1499    3.2378    0.7056 H   0  0  0  0  0  0  0  0  0  0  0  0
   -6.1191    2.6684    2.1210 H   0  0  0  0  0  0  0  0  0  0  0  0
  1  2  1  0
  2  3  1  0
  3  4  2  0
  4  5  1  0
  5  6  2  0
  6  7  1  0
  7  8  2  0
  7  9  1  0
  9 10  2  0
 10 11  1  0
 10 12  1  0
 12 13  1  0
 13 14  1  0
 14 15  2  0
 15 16  1  0
 16 17  2  0
 17 18  1  0
 18 19  1  0
 19 20  1  0
 20 21  1  0
 20 22  1  0
 22 23  2  0
 22 24  1  0
 18 25  2  0
 12 26  1  0
 26 27  2  0
 27 28  1  0
 28 29  1  0
 28 30  2  0
 30 31  1  0
 31 32  2  0
  6 33  1  0
 33 34  2  0
 34  3  1  0
 32  9  1  0
 25 14  1  0
 32 26  1  0
  1 35  1  0
  1 36  1  0
  1 37  1  0
  4 38  1  0
  5 39  1  0
 11 40  1  0
 11 41  1  0
 11 42  1  0
 13 43  1  0
 13 44  1  0
 15 45  1  0
 16 46  1  0
 17 47  1  0
 20 48  1  6
 21 49  1  0
 21 50  1  0
 21 51  1  0
 24 52  1  0
 25 53  1  0
 29 54  1  0
 29 55  1  0
 29 56  1  0
 30 57  1  0
 31 58  1  0
 33 59  1  0
 34 60  1  0
M  END
$$$$
