
     RDKit          3D

 34 36  0  0  0  0  0  0  0  0999 V2000
   -2.6039    2.7250    0.5692 N   0  0  0  0  0  0  0  0  0  0  0  0
   -3.2482    1.7001    1.3096 C   0  0  0  0  0  0  0  0  0  0  0  0
   -4.1814    2.0948    2.0296 O   0  0  0  0  0  0  0  0  0  0  0  0
   -2.8211    0.3254    1.2042 C   0  0  0  0  0  0  0  0  0  0  0  0
   -3.4478   -0.6694    1.9248 C   0  0  0  0  0  0  0  0  0  0  0  0
   -3.0077   -1.9217    1.7850 N   0  0  0  0  0  0  0  0  0  0  0  0
   -1.9851   -2.2731    0.9798 C   0  0  0  0  0  0  0  0  0  0  0  0
   -1.4313   -3.5129    0.7386 C   0  0  0  0  0  0  0  0  0  0  0  0
   -0.4246   -3.2642   -0.1668 C   0  0  0  0  0  0  0  0  0  0  0  0
   -0.3508   -1.9421   -0.4764 N   0  0  0  0  0  0  0  0  0  0  0  0
   -1.3097   -1.3137    0.2244 C   0  0  0  0  0  0  0  0  0  0  0  0
   -1.7755   -0.0032    0.3752 C   0  0  0  0  0  0  0  0  0  0  0  0
    0.7423   -1.1505   -1.5513 S   0  0  0  0  0  0  0  0  0  0  0  0
    1.5720   -2.2222   -2.2042 O   0  0  0  0  0  0  0  0  0  0  0  0
   -0.0747   -0.4326   -2.6020 O   0  0  0  0  0  0  0  0  0  0  0  0
    1.7193    0.0105   -0.6851 C   0  0  0  0  0  0  0  0  0  0  0  0
    1.6785    0.2833    0.6659 C   0  0  0  0  0  0  0  0  0  0  0  0
    2.4999    1.2227    1.2504 C   0  0  0  0  0  0  0  0  0  0  0  0
    3.4131    1.9433    0.5016 C   0  0  0  0  0  0  0  0  0  0  0  0
    3.4750    1.6901   -0.8529 C   0  0  0  0  0  0  0  0  0  0  0  0
    2.6441    0.7450   -1.4220 C   0  0  0  0  0  0  0  0  0  0  0  0
    2.8387    0.6099   -2.8261 N   0  0  0  0  0  4  0  0  0  0  0  0
    4.0745    0.8126   -3.3919 O   0  0  0  0  0  1  0  0  0  0  0  0
    2.1354    0.3282   -3.8160 O   0  0  0  0  0  0  0  0  0  0  0  0
   -2.6361    2.8029   -0.4606 H   0  0  0  0  0  0  0  0  0  0  0  0
   -2.0213    3.5497    0.7403 H   0  0  0  0  0  0  0  0  0  0  0  0
   -4.2790   -0.4041    2.5832 H   0  0  0  0  0  0  0  0  0  0  0  0
   -1.7257   -4.4616    1.1670 H   0  0  0  0  0  0  0  0  0  0  0  0
    0.2333   -4.0255   -0.5862 H   0  0  0  0  0  0  0  0  0  0  0  0
   -1.2613    0.7566   -0.2058 H   0  0  0  0  0  0  0  0  0  0  0  0
    0.9634   -0.2891    1.2324 H   0  0  0  0  0  0  0  0  0  0  0  0
    2.3792    1.3539    2.3258 H   0  0  0  0  0  0  0  0  0  0  0  0
    4.0142    2.6555    1.0351 H   0  0  0  0  0  0  0  0  0  0  0  0
    4.2023    2.2764   -1.3949 H   0  0  0  0  0  0  0  0  0  0  0  0
  1  2  1  0
  2  3  2  0
  2  4  1  0
  4  5  2  0
  5  6  1  0
  6  7  2  0
  7  8  1  0
  8  9  2  0
  9 10  1  0
 10 11  1  0
 11 12  2  0
 10 13  1  0
 13 14  2  0
 13 15  2  0
 13 16  1  0
 16 17  2  0
 17 18  1  0
 18 19  2  0
 19 20  1  0
 20 21  2  0
 21 22  1  0
 22 23  1  0
 22 24  2  0
 12  4  1  0
 21 16  1  0
 11  7  1  0
  1 25  1  0
  1 26  1  0
  5 27  1  0
  8 28  1  0
  9 29  1  0
 12 30  1  0
 17 31  1  0
 18 32  1  0
 19 33  1  0
 20 34  1  0
M  CHG  2  22   1  23  -1
M  END
$$$$
