@<TRIPOS>MOLECULE
*****
 34 36 0 0 0
SMALL
GASTEIGER

@<TRIPOS>ATOM
      1 N          -2.6039    2.7250    0.5692 N.am    1  UNL1       -0.3253
      2 C          -3.2482    1.7001    1.3096 C.2     1  UNL1        0.2431
      3 O          -4.1814    2.0948    2.0296 O.2     1  UNL1       -0.2704
      4 C          -2.8211    0.3254    1.2042 C.ar    1  UNL1        0.0566
      5 C          -3.4478   -0.6694    1.9248 C.ar    1  UNL1        0.0405
      6 N          -3.0077   -1.9217    1.7850 N.ar    1  UNL1       -0.2527
      7 C          -1.9851   -2.2731    0.9798 C.ar    1  UNL1        0.0904
      8 C          -1.4313   -3.5129    0.7386 C.ar    1  UNL1       -0.0163
      9 C          -0.4246   -3.2642   -0.1668 C.ar    1  UNL1        0.0316
     10 N          -0.3508   -1.9421   -0.4764 N.ar    1  UNL1       -0.2165
     11 C          -1.3097   -1.3137    0.2244 C.ar    1  UNL1        0.0911
     12 C          -1.7755   -0.0032    0.3752 C.ar    1  UNL1       -0.0208
     13 S           0.7423   -1.1505   -1.5513 S.O2    1  UNL1        0.0907
     14 O           1.5720   -2.2222   -2.2042 O.2     1  UNL1       -0.1474
     15 O          -0.0747   -0.4326   -2.6020 O.2     1  UNL1       -0.1474
     16 C           1.7193    0.0105   -0.6851 C.ar    1  UNL1        0.1875
     17 C           1.6785    0.2833    0.6659 C.ar    1  UNL1       -0.0282
     18 C           2.4999    1.2227    1.2504 C.ar    1  UNL1       -0.0595
     19 C           3.4131    1.9433    0.5016 C.ar    1  UNL1       -0.0552
     20 C           3.4750    1.6901   -0.8529 C.ar    1  UNL1        0.0176
     21 C           2.6441    0.7450   -1.4220 C.ar    1  UNL1        0.2997
     22 N           2.8387    0.6099   -2.8261 N.pl3   1  UNL1        0.0817
     23 O           4.0745    0.8126   -3.3919 O.co2   1  UNL1       -0.5760
     24 O           2.1354    0.3282   -3.8160 O.2     1  UNL1        0.0415
     25 H          -2.6361    2.8029   -0.4606 H       1  UNL1        0.1453
     26 H          -2.0213    3.5497    0.7403 H       1  UNL1        0.1453
     27 H          -4.2790   -0.4041    2.5832 H       1  UNL1        0.0837
     28 H          -1.7257   -4.4616    1.1670 H       1  UNL1        0.0654
     29 H           0.2333   -4.0255   -0.5862 H       1  UNL1        0.0829
     30 H          -1.2613    0.7566   -0.2058 H       1  UNL1        0.0647
     31 H           0.9634   -0.2891    1.2324 H       1  UNL1        0.0639
     32 H           2.3792    1.3539    2.3258 H       1  UNL1        0.0618
     33 H           4.0142    2.6555    1.0351 H       1  UNL1        0.0620
     34 H           4.2023    2.2764   -1.3949 H       1  UNL1        0.0686
@<TRIPOS>UNITY_ATOM_ATTR
22 1
charge 1
23 1
charge -1
@<TRIPOS>BOND
     1     1     2   am
     2     2     3    2
     3     2     4    1
     4     4     5   ar
     5     5     6   ar
     6     6     7   ar
     7     7     8   ar
     8     8     9   ar
     9     9    10   ar
    10    10    11   ar
    11    11    12   ar
    12    10    13    1
    13    13    14    2
    14    13    15    2
    15    13    16    1
    16    16    17   ar
    17    17    18   ar
    18    18    19   ar
    19    19    20   ar
    20    20    21   ar
    21    21    22    1
    22    22    23    1
    23    22    24    2
    24    12     4   ar
    25    21    16   ar
    26    11     7   ar
    27     1    25    1
    28     1    26    1
    29     5    27    1
    30     8    28    1
    31     9    29    1
    32    12    30    1
    33    17    31    1
    34    18    32    1
    35    19    33    1
    36    20    34    1
