@<TRIPOS>MOLECULE
*****
 30 32 0 0 0
SMALL
GASTEIGER

@<TRIPOS>ATOM
      1 F           0.5156   -3.3132    1.0336 F       1  UNL1       -0.1654
      2 C          -0.4278   -2.2848    1.1167 C.3     1  UNL1        0.4460
      3 F          -1.7122   -2.7660    1.1844 F       1  UNL1       -0.1654
      4 F          -0.1537   -1.5337    2.2243 F       1  UNL1       -0.1654
      5 C          -0.2596   -1.4297   -0.1481 C.3     1  UNL1        0.2958
      6 O          -0.4795   -2.2190   -1.2926 O.3     1  UNL1       -0.4168
      7 C          -1.5644   -2.0044   -2.1089 C.2     1  UNL1        0.4065
      8 O          -1.6615   -2.8514   -3.0566 O.2     1  UNL1       -0.2261
      9 N          -2.5075   -0.9610   -1.9535 N.am    1  UNL1       -0.2507
     10 C          -2.3004   -0.0776   -0.8605 C.ar    1  UNL1        0.0448
     11 C          -1.2147   -0.3024   -0.0427 C.ar    1  UNL1        0.0397
     12 C          -1.0705    0.6301    0.9623 C.ar    1  UNL1       -0.0334
     13 C          -1.9428    1.6889    1.1259 C.ar    1  UNL1        0.0415
     14 CL         -1.7940    2.8899    2.3860 Cl      1  UNL1       -0.0835
     15 C          -3.0191    1.8647    0.2739 C.ar    1  UNL1       -0.0416
     16 C          -3.2006    0.9587   -0.7434 C.ar    1  UNL1       -0.0386
     17 C           1.0765   -0.8401   -0.1813 C.1     1  UNL1       -0.0407
     18 C           2.1987   -0.3669   -0.2027 C.1     1  UNL1       -0.0943
     19 C           3.5621    0.1855   -0.2134 C.3     1  UNL1        0.0209
     20 C           3.7688    1.3152    0.7267 C.3     1  UNL1       -0.0382
     21 C           3.7656    1.5326   -0.7581 C.3     1  UNL1       -0.0382
     22 H          -3.2671   -0.9490   -2.6674 H       1  UNL1        0.1582
     23 H          -0.3002    0.6428    1.6906 H       1  UNL1        0.0637
     24 H          -3.7275    2.6751    0.3616 H       1  UNL1        0.0633
     25 H          -4.0299    1.0635   -1.4287 H       1  UNL1        0.0637
     26 H           4.4125   -0.5440   -0.2399 H       1  UNL1        0.0433
     27 H           4.7637    1.4449    1.2108 H       1  UNL1        0.0277
     28 H           2.9456    1.7348    1.3411 H       1  UNL1        0.0277
     29 H           2.9099    2.1125   -1.1588 H       1  UNL1        0.0277
     30 H           4.7140    1.7041   -1.2957 H       1  UNL1        0.0277
@<TRIPOS>BOND
     1     1     2    1
     2     2     3    1
     3     2     4    1
     4     2     5    1
     5     5     6    1
     6     6     7    1
     7     7     8    2
     8     7     9   am
     9     9    10    1
    10    10    11   ar
    11    11    12   ar
    12    12    13   ar
    13    13    14    1
    14    13    15   ar
    15    15    16   ar
    16     5    17    1
    17    17    18    3
    18    18    19    1
    19    19    20    1
    20    20    21    1
    21    11     5    1
    22    21    19    1
    23    16    10   ar
    24     9    22    1
    25    12    23    1
    26    15    24    1
    27    16    25    1
    28    19    26    1
    29    20    27    1
    30    20    28    1
    31    21    29    1
    32    21    30    1
