@<TRIPOS>MOLECULE
*****
 53 56 0 0 0
SMALL
GASTEIGER

@<TRIPOS>ATOM
      1 C           8.7224   -0.0970    0.6261 C.3     1  UNL1        0.0789
      2 O           7.6197   -0.8864    1.0512 O.3     1  UNL1       -0.4936
      3 C           6.3173   -0.4179    0.9826 C.ar    1  UNL1        0.1387
      4 C           5.2227   -1.1454    1.3846 C.ar    1  UNL1        0.0700
      5 N           3.9791   -0.6444    1.2965 N.ar    1  UNL1       -0.2479
      6 C           3.6906    0.5808    0.8217 C.ar    1  UNL1        0.1111
      7 C           2.4251    1.0775    0.7492 C.ar    1  UNL1        0.1490
      8 N           1.3072    0.2866    1.1702 N.pl3   1  UNL1       -0.2977
      9 C           0.4866   -0.2945    0.1360 C.ar    1  UNL1        0.0330
     10 C           1.0906   -0.6343   -1.0630 C.ar    1  UNL1       -0.0378
     11 C           0.2888   -1.1330   -2.0579 C.ar    1  UNL1       -0.0243
     12 C          -1.0946   -1.2911   -1.8650 C.ar    1  UNL1        0.1311
     13 F          -1.7556   -1.7979   -2.9257 F       1  UNL1       -0.2050
     14 C          -1.6845   -0.9514   -0.6738 C.ar    1  UNL1        0.0420
     15 C          -3.1561   -1.0829   -0.5050 C.3     1  UNL1        0.1961
     16 C          -3.5391   -2.4990   -0.8114 C.3     1  UNL1       -0.0112
     17 C          -3.7365   -0.1063   -1.5379 C.3     1  UNL1        0.1212
     18 S          -5.4645   -0.0209   -1.2530 S.O2    1  UNL1        0.0192
     19 O          -5.9511    1.2909   -1.8386 O.2     1  UNL1       -0.1706
     20 O          -6.1433   -1.1168   -2.0197 O.2     1  UNL1       -0.1706
     21 C          -5.7836   -0.1129    0.4820 C.3     1  UNL1        0.3220
     22 C          -6.5340    1.1464    0.8813 C.3     1  UNL1        0.0013
     23 F          -6.6562   -1.1624    0.6934 F       1  UNL1       -0.2044
     24 C          -4.5528   -0.2565    1.2709 C.2     1  UNL1        0.3390
     25 N          -4.6983    0.1288    2.6655 N.pl3   1  UNL1       -0.2465
     26 N          -3.4657   -0.6695    0.8114 N.2     1  UNL1       -0.0700
     27 C          -0.8684   -0.4477    0.3349 C.ar    1  UNL1       -0.0301
     28 N           2.2229    2.3287    0.2653 N.ar    1  UNL1       -0.2380
     29 C           3.2625    3.0922   -0.1460 C.ar    1  UNL1        0.0304
     30 C           4.5451    2.6130   -0.0815 C.ar    1  UNL1       -0.0342
     31 C           4.7826    1.3531    0.4028 C.ar    1  UNL1        0.0086
     32 C           6.0688    0.8399    0.4910 C.ar    1  UNL1       -0.0091
     33 H           8.5737    0.9286    1.0733 H       1  UNL1        0.0660
     34 H           8.7276    0.0592   -0.4878 H       1  UNL1        0.0660
     35 H           9.6845   -0.5151    0.9752 H       1  UNL1        0.0660
     36 H           5.4147   -2.1361    1.7723 H       1  UNL1        0.0867
     37 H           1.1422    0.1698    2.1746 H       1  UNL1        0.1536
     38 H           2.1574   -0.4902   -1.1659 H       1  UNL1        0.0637
     39 H           0.7595   -1.3985   -2.9928 H       1  UNL1        0.0647
     40 H          -3.9352   -2.6499   -1.8379 H       1  UNL1        0.0279
     41 H          -2.7172   -3.1985   -0.5666 H       1  UNL1        0.0279
     42 H          -4.3672   -2.7571   -0.1086 H       1  UNL1        0.0279
     43 H          -3.4631   -0.3833   -2.5551 H       1  UNL1        0.0551
     44 H          -3.2321    0.8822   -1.3248 H       1  UNL1        0.0551
     45 H          -5.8167    1.9577    1.1434 H       1  UNL1        0.0283
     46 H          -7.2710    0.9760    1.6944 H       1  UNL1        0.0283
     47 H          -7.0859    1.4915   -0.0129 H       1  UNL1        0.0283
     48 H          -4.0947   -0.3059    3.3950 H       1  UNL1        0.2882
     49 H          -5.3934    0.8307    2.9826 H       1  UNL1        0.2882
     50 H          -1.3425   -0.1882    1.2619 H       1  UNL1        0.0641
     51 H           3.0310    4.0768   -0.5198 H       1  UNL1        0.0830
     52 H           5.3969    3.2132   -0.4120 H       1  UNL1        0.0639
     53 H           6.8838    1.4675    0.1547 H       1  UNL1        0.0661
@<TRIPOS>BOND
     1     1     2    1
     2     2     3    1
     3     3     4   ar
     4     4     5   ar
     5     5     6   ar
     6     6     7   ar
     7     7     8    1
     8     8     9    1
     9     9    10   ar
    10    10    11   ar
    11    11    12   ar
    12    12    13    1
    13    12    14   ar
    14    14    15    1
    15    15    16    1
    16    15    17    1
    17    17    18    1
    18    18    19    2
    19    18    20    2
    20    18    21    1
    21    21    22    1
    22    21    23    1
    23    21    24    1
    24    24    25    1
    25    24    26    2
    26    14    27   ar
    27     7    28   ar
    28    28    29   ar
    29    29    30   ar
    30    30    31   ar
    31    31    32   ar
    32    32     3   ar
    33    31     6   ar
    34    27     9   ar
    35    26    15    1
    36     1    33    1
    37     1    34    1
    38     1    35    1
    39     4    36    1
    40     8    37    1
    41    10    38    1
    42    11    39    1
    43    16    40    1
    44    16    41    1
    45    16    42    1
    46    17    43    1
    47    17    44    1
    48    22    45    1
    49    22    46    1
    50    22    47    1
    51    25    48    1
    52    25    49    1
    53    27    50    1
    54    29    51    1
    55    30    52    1
    56    32    53    1
