@<TRIPOS>MOLECULE
*****
 21 20 0 0 0
SMALL
GASTEIGER

@<TRIPOS>ATOM
      1 C          -1.2534    0.1416   -0.5576 C.3     1  UNL1       -0.0023
      2 C          -1.6809   -0.8114    0.5093 C.3     1  UNL1       -0.0572
      3 C          -0.0987   -0.2609   -1.3892 C.3     1  UNL1       -0.0197
      4 CA          1.1964   -0.5017   -0.7140 C.3     1  UNL1        0.1038
      5 N           1.1540   -1.5523    0.2721 N.3     1  UNL1       -0.3184
      6 C           1.8350    0.7298   -0.1852 C.2     1  UNL1        0.3217
      7 O           2.3352    0.8562    1.1105 O.3     1  UNL1       -0.4795
      8 OXT         2.0199    1.8284   -0.8123 O.2     1  UNL1       -0.2493
      9 C          -1.1088    1.4939    0.0458 C.2     1  UNL1        0.0446
     10 O          -1.1572    2.6325   -0.7800 O.co2   1  UNL1       -0.5495
     11 O          -0.9355    1.9128    1.2399 O.co2   1  UNL1       -0.5495
     12 H          -2.1223    0.2504   -1.2738 H       1  UNL1        0.0358
     13 H          -2.8119   -0.8015    0.5453 H       1  UNL1        0.0236
     14 H          -1.3996   -0.4229    1.5304 H       1  UNL1        0.0236
     15 H          -1.3950   -1.8626    0.3546 H       1  UNL1        0.0236
     16 H          -0.0078    0.4973   -2.2093 H       1  UNL1        0.0292
     17 H          -0.3839   -1.2034   -1.9193 H       1  UNL1        0.0292
     18 HA          1.8999   -0.8930   -1.5077 H       1  UNL1        0.0574
     19 H1          0.7860   -1.3070    1.1857 H       1  UNL1        0.1190
     20 H2          0.8648   -2.4256   -0.1716 H       1  UNL1        0.1190
     21 H           2.2638    1.6991    1.6668 H       1  UNL1        0.2951
@<TRIPOS>UNITY_ATOM_ATTR
10 1
charge -1
@<TRIPOS>BOND
     1     1     2    1
     2     1     3    1
     3     3     4    1
     4     4     5    1
     5     4     6    1
     6     6     7    1
     7     6     8    2
     8     1     9    1
     9     9    10   ar
    10     9    11   ar
    11     1    12    1
    12     2    13    1
    13     2    14    1
    14     2    15    1
    15     3    16    1
    16     3    17    1
    17     4    18    1
    18     5    19    1
    19     5    20    1
    20     7    21    1
