@<TRIPOS>MOLECULE
*****
 54 57 0 0 0
SMALL
GASTEIGER

@<TRIPOS>ATOM
      1 C          -7.6950    2.4050   -0.1772 C.3     1  UNL1        0.0134
      2 N          -7.4125    1.0355    0.1961 N.ar    1  UNL1       -0.3308
      3 C          -8.3574    0.1454    0.6169 C.ar    1  UNL1        0.0244
      4 C          -7.7427   -1.0707    0.8952 C.ar    1  UNL1        0.0462
      5 N          -6.4171   -0.8783    0.6300 N.ar    1  UNL1       -0.2328
      6 C          -6.2466    0.3887    0.2135 C.ar    1  UNL1        0.1846
      7 C          -4.9579    0.9567   -0.1661 C.2     1  UNL1        0.2631
      8 O          -4.9954    2.1582   -0.5615 O.2     1  UNL1       -0.2801
      9 C          -3.7395    0.2029   -0.0943 C.ar    1  UNL1        0.1822
     10 C          -2.4654    0.5814   -0.4284 C.ar    1  UNL1        0.0099
     11 C          -2.0348    1.8901   -0.9567 C.3     1  UNL1       -0.0353
     12 C          -1.5651   -0.4653   -0.2029 C.ar    1  UNL1        0.0654
     13 C          -2.4184   -1.4564    0.2799 C.ar    1  UNL1        0.1396
     14 O          -3.6626   -1.0430    0.3311 O.2     1  UNL1       -0.4510
     15 C          -1.9025   -2.6829    0.6297 C.ar    1  UNL1       -0.0185
     16 C          -0.5628   -2.9853    0.5244 C.ar    1  UNL1       -0.0548
     17 C           0.2141   -1.9580    0.0408 C.ar    1  UNL1       -0.0191
     18 C          -0.1832   -0.6974   -0.3393 C.ar    1  UNL1        0.1315
     19 O           0.4178    0.3753   -0.8127 O.3     1  UNL1       -0.4912
     20 C           1.5899    0.9123   -1.1789 C.3     1  UNL1        0.0908
     21 C           2.6990    1.0830   -0.2056 C.3     1  UNL1       -0.0061
     22 C           3.2534   -0.1280    0.4399 C.3     1  UNL1       -0.0007
     23 N           3.8069   -1.0845   -0.4912 N.3     1  UNL1       -0.3119
     24 C           5.0108   -0.6361   -1.1525 C.3     1  UNL1        0.0227
     25 C           6.1361   -0.3471   -0.2641 C.ar    1  UNL1       -0.0155
     26 C           6.4235    0.8688    0.3186 C.ar    1  UNL1        0.0319
     27 N           7.4926    1.0175    1.1213 N.ar    1  UNL1       -0.2629
     28 C           8.3262    0.0017    1.3939 C.ar    1  UNL1        0.0276
     29 C           8.0637   -1.2275    0.8243 C.ar    1  UNL1       -0.0433
     30 C           6.9778   -1.4350   -0.0082 C.ar    1  UNL1       -0.0545
     31 H          -7.2534    2.7210   -1.1245 H       1  UNL1        0.0456
     32 H          -7.2609    3.0977    0.5990 H       1  UNL1        0.0456
     33 H          -8.7928    2.5718   -0.2466 H       1  UNL1        0.0456
     34 H          -9.4272    0.3902    0.7084 H       1  UNL1        0.0825
     35 H          -8.2812   -1.9214    1.2407 H       1  UNL1        0.0845
     36 H          -1.1615    2.2015   -0.3110 H       1  UNL1        0.0279
     37 H          -2.7504    2.6946   -0.8849 H       1  UNL1        0.0279
     38 H          -1.6172    1.8407   -1.9895 H       1  UNL1        0.0279
     39 H          -2.5588   -3.4526    1.0037 H       1  UNL1        0.0654
     40 H          -0.1066   -3.9205    0.7807 H       1  UNL1        0.0620
     41 H           1.2590   -2.1408   -0.0724 H       1  UNL1        0.0654
     42 H           1.5019    1.9074   -1.7141 H       1  UNL1        0.0697
     43 H           2.0281    0.2479   -2.0063 H       1  UNL1        0.0697
     44 H           3.5442    1.5635   -0.7791 H       1  UNL1        0.0310
     45 H           2.4474    1.8438    0.5674 H       1  UNL1        0.0310
     46 H           2.6063   -0.6597    1.1420 H       1  UNL1        0.0425
     47 H           4.1283    0.2253    1.0692 H       1  UNL1        0.0425
     48 H           3.1274   -1.2927   -1.2604 H       1  UNL1        0.1222
     49 H           4.6997    0.2315   -1.7906 H       1  UNL1        0.0474
     50 H           5.2606   -1.4356   -1.8913 H       1  UNL1        0.0474
     51 H           5.7680    1.6870    0.1087 H       1  UNL1        0.0833
     52 H           9.1839    0.1287    2.0401 H       1  UNL1        0.0829
     53 H           8.7492   -2.0300    1.0595 H       1  UNL1        0.0633
     54 H           6.8534   -2.4264   -0.4044 H       1  UNL1        0.0622
@<TRIPOS>BOND
     1     1     2    1
     2     2     3   ar
     3     3     4   ar
     4     4     5   ar
     5     5     6   ar
     6     6     7    1
     7     7     8    2
     8     7     9    1
     9     9    10   ar
    10    10    11    1
    11    10    12   ar
    12    12    13   ar
    13    13    14   ar
    14    13    15   ar
    15    15    16   ar
    16    16    17   ar
    17    17    18   ar
    18    18    19    1
    19    19    20    1
    20    20    21    1
    21    21    22    1
    22    22    23    1
    23    23    24    1
    24    24    25    1
    25    25    26   ar
    26    26    27   ar
    27    27    28   ar
    28    28    29   ar
    29    29    30   ar
    30     6     2   ar
    31    14     9   ar
    32    30    25   ar
    33    18    12   ar
    34     1    31    1
    35     1    32    1
    36     1    33    1
    37     3    34    1
    38     4    35    1
    39    11    36    1
    40    11    37    1
    41    11    38    1
    42    15    39    1
    43    16    40    1
    44    17    41    1
    45    20    42    1
    46    20    43    1
    47    21    44    1
    48    21    45    1
    49    22    46    1
    50    22    47    1
    51    23    48    1
    52    24    49    1
    53    24    50    1
    54    26    51    1
    55    28    52    1
    56    29    53    1
    57    30    54    1
