@<TRIPOS>MOLECULE
*****
 52 57 0 0 0
SMALL
GASTEIGER

@<TRIPOS>ATOM
      1 C          -4.1895    0.9494    1.4410 C.3     1  UNL1       -0.0203
      2 C          -3.4509   -0.1278    0.7074 C.ar    1  UNL1        0.0660
      3 N          -4.0113   -1.2325    0.1892 N.ar    1  UNL1       -0.1752
      4 N          -3.0988   -1.9943   -0.3990 N.ar    1  UNL1       -0.2556
      5 C          -3.3593   -3.2632   -1.0620 C.3     1  UNL1        0.0537
      6 C          -2.5255   -4.4676   -0.6731 C.3     1  UNL1       -0.0285
      7 C          -3.8965   -4.3987   -0.1410 C.3     1  UNL1       -0.0285
      8 C          -1.9096   -1.3730   -0.2628 C.ar    1  UNL1        0.1297
      9 C          -2.1055   -0.2051    0.4249 C.ar    1  UNL1        0.0305
     10 C          -0.8314    0.5345    0.6054 C.3     1  UNL1        0.0881
     11 C          -0.9690    1.8903    0.0091 C.ar    1  UNL1        0.0131
     12 C          -0.9680    2.9798    0.8463 C.ar    1  UNL1       -0.0523
     13 C          -1.0911    4.2736    0.3510 C.ar    1  UNL1       -0.0429
     14 C          -1.2151    4.4306   -1.0175 C.ar    1  UNL1        0.0437
     15 CL         -1.3756    6.0489   -1.7141 Cl      1  UNL1       -0.0835
     16 C          -1.2143    3.3263   -1.8445 C.ar    1  UNL1       -0.0078
     17 C          -1.0920    2.0338   -1.3565 C.ar    1  UNL1        0.1300
     18 F          -1.0975    0.9730   -2.1989 F       1  UNL1       -0.2051
     19 N           0.1692   -0.2799   -0.0096 N.am    1  UNL1       -0.2530
     20 C           1.5683   -0.0606   -0.1119 C.ar    1  UNL1        0.0545
     21 C           2.1731    0.6108   -1.1518 C.ar    1  UNL1       -0.0324
     22 C           3.5384    0.8022   -1.2144 C.ar    1  UNL1       -0.0041
     23 C           4.1992    1.5244   -2.3301 C.3     1  UNL1       -0.0361
     24 C           4.3133    0.2977   -0.1926 C.ar    1  UNL1        0.1641
     25 N           5.6473    0.3035    0.0581 N.ar    1  UNL1       -0.1292
     26 N           5.8627   -0.3345    1.2005 N.ar    1  UNL1       -0.1340
     27 C           4.6913   -0.7650    1.7140 C.ar    1  UNL1        0.1347
     28 C           4.4680   -1.5241    2.9782 C.3     1  UNL1       -0.0041
     29 N           3.7493   -0.3645    0.8393 N.ar    1  UNL1       -0.2846
     30 C           2.4140   -0.5435    0.8867 C.ar    1  UNL1        0.0344
     31 C          -0.4711   -1.4484   -0.5541 C.2     1  UNL1        0.2700
     32 O           0.0728   -2.3972   -1.1804 O.2     1  UNL1       -0.2679
     33 H          -5.2238    0.9512    1.0697 H       1  UNL1        0.0293
     34 H          -4.2452    0.6898    2.5381 H       1  UNL1        0.0293
     35 H          -3.6871    1.9224    1.3737 H       1  UNL1        0.0293
     36 H          -3.8063   -3.2450   -2.0788 H       1  UNL1        0.0545
     37 H          -2.3027   -5.2315   -1.4513 H       1  UNL1        0.0286
     38 H          -1.6635   -4.2327   -0.0395 H       1  UNL1        0.0286
     39 H          -4.0976   -4.0899    0.9138 H       1  UNL1        0.0286
     40 H          -4.7117   -5.0056   -0.5626 H       1  UNL1        0.0286
     41 H          -0.6285    0.5970    1.6832 H       1  UNL1        0.0607
     42 H          -0.8733    2.8946    1.9154 H       1  UNL1        0.0622
     43 H          -1.0933    5.1481    0.9861 H       1  UNL1        0.0632
     44 H          -1.3101    3.4264   -2.9180 H       1  UNL1        0.0661
     45 H           1.5825    1.0015   -1.9416 H       1  UNL1        0.0640
     46 H           5.0401    0.9174   -2.7137 H       1  UNL1        0.0279
     47 H           4.5211    2.5454   -2.0327 H       1  UNL1        0.0279
     48 H           3.4704    1.6711   -3.1721 H       1  UNL1        0.0279
     49 H           4.2549   -2.5930    2.7626 H       1  UNL1        0.0308
     50 H           5.2768   -1.3846    3.7014 H       1  UNL1        0.0308
     51 H           3.5286   -1.1132    3.4232 H       1  UNL1        0.0308
     52 H           1.9737   -1.0685    1.7062 H       1  UNL1        0.0833
@<TRIPOS>BOND
     1     1     2    1
     2     2     3   ar
     3     3     4   ar
     4     4     5    1
     5     5     6    1
     6     6     7    1
     7     4     8   ar
     8     8     9   ar
     9     9    10    1
    10    10    11    1
    11    11    12   ar
    12    12    13   ar
    13    13    14   ar
    14    14    15    1
    15    14    16   ar
    16    16    17   ar
    17    17    18    1
    18    10    19    1
    19    19    20    1
    20    20    21   ar
    21    21    22   ar
    22    22    23    1
    23    22    24   ar
    24    24    25   ar
    25    25    26   ar
    26    26    27   ar
    27    27    28    1
    28    27    29   ar
    29    29    30   ar
    30    19    31   am
    31    31    32    2
    32     9     2   ar
    33    17    11   ar
    34    30    20   ar
    35     7     5    1
    36    31     8    1
    37    29    24   ar
    38     1    33    1
    39     1    34    1
    40     1    35    1
    41     5    36    1
    42     6    37    1
    43     6    38    1
    44     7    39    1
    45     7    40    1
    46    10    41    1
    47    12    42    1
    48    13    43    1
    49    16    44    1
    50    21    45    1
    51    23    46    1
    52    23    47    1
    53    23    48    1
    54    28    49    1
    55    28    50    1
    56    28    51    1
    57    30    52    1
