
     RDKit          3D

 52 57  0  0  0  0  0  0  0  0999 V2000
   -4.1895    0.9494    1.4410 C   0  0  0  0  0  0  0  0  0  0  0  0
   -3.4509   -0.1278    0.7074 C   0  0  0  0  0  0  0  0  0  0  0  0
   -4.0113   -1.2325    0.1892 N   0  0  0  0  0  0  0  0  0  0  0  0
   -3.0988   -1.9943   -0.3990 N   0  0  0  0  0  0  0  0  0  0  0  0
   -3.3593   -3.2632   -1.0620 C   0  0  0  0  0  0  0  0  0  0  0  0
   -2.5255   -4.4676   -0.6731 C   0  0  0  0  0  0  0  0  0  0  0  0
   -3.8965   -4.3987   -0.1410 C   0  0  0  0  0  0  0  0  0  0  0  0
   -1.9096   -1.3730   -0.2628 C   0  0  0  0  0  0  0  0  0  0  0  0
   -2.1055   -0.2051    0.4249 C   0  0  0  0  0  0  0  0  0  0  0  0
   -0.8314    0.5345    0.6054 C   0  0  0  0  0  0  0  0  0  0  0  0
   -0.9690    1.8903    0.0091 C   0  0  0  0  0  0  0  0  0  0  0  0
   -0.9680    2.9798    0.8463 C   0  0  0  0  0  0  0  0  0  0  0  0
   -1.0911    4.2736    0.3510 C   0  0  0  0  0  0  0  0  0  0  0  0
   -1.2151    4.4306   -1.0175 C   0  0  0  0  0  0  0  0  0  0  0  0
   -1.3756    6.0489   -1.7141 Cl  0  0  0  0  0  0  0  0  0  0  0  0
   -1.2143    3.3263   -1.8445 C   0  0  0  0  0  0  0  0  0  0  0  0
   -1.0920    2.0338   -1.3565 C   0  0  0  0  0  0  0  0  0  0  0  0
   -1.0975    0.9730   -2.1989 F   0  0  0  0  0  0  0  0  0  0  0  0
    0.1692   -0.2799   -0.0096 N   0  0  0  0  0  0  0  0  0  0  0  0
    1.5683   -0.0606   -0.1119 C   0  0  0  0  0  0  0  0  0  0  0  0
    2.1731    0.6108   -1.1518 C   0  0  0  0  0  0  0  0  0  0  0  0
    3.5384    0.8022   -1.2144 C   0  0  0  0  0  0  0  0  0  0  0  0
    4.1992    1.5244   -2.3301 C   0  0  0  0  0  0  0  0  0  0  0  0
    4.3133    0.2977   -0.1926 C   0  0  0  0  0  0  0  0  0  0  0  0
    5.6473    0.3035    0.0581 N   0  0  0  0  0  0  0  0  0  0  0  0
    5.8627   -0.3345    1.2005 N   0  0  0  0  0  0  0  0  0  0  0  0
    4.6913   -0.7650    1.7140 C   0  0  0  0  0  0  0  0  0  0  0  0
    4.4680   -1.5241    2.9782 C   0  0  0  0  0  0  0  0  0  0  0  0
    3.7493   -0.3645    0.8393 N   0  0  0  0  0  0  0  0  0  0  0  0
    2.4140   -0.5435    0.8867 C   0  0  0  0  0  0  0  0  0  0  0  0
   -0.4711   -1.4484   -0.5541 C   0  0  0  0  0  0  0  0  0  0  0  0
    0.0728   -2.3972   -1.1804 O   0  0  0  0  0  0  0  0  0  0  0  0
   -5.2238    0.9512    1.0697 H   0  0  0  0  0  0  0  0  0  0  0  0
   -4.2452    0.6898    2.5381 H   0  0  0  0  0  0  0  0  0  0  0  0
   -3.6871    1.9224    1.3737 H   0  0  0  0  0  0  0  0  0  0  0  0
   -3.8063   -3.2450   -2.0788 H   0  0  0  0  0  0  0  0  0  0  0  0
   -2.3027   -5.2315   -1.4513 H   0  0  0  0  0  0  0  0  0  0  0  0
   -1.6635   -4.2327   -0.0395 H   0  0  0  0  0  0  0  0  0  0  0  0
   -4.0976   -4.0899    0.9138 H   0  0  0  0  0  0  0  0  0  0  0  0
   -4.7117   -5.0056   -0.5626 H   0  0  0  0  0  0  0  0  0  0  0  0
   -0.6285    0.5970    1.6832 H   0  0  0  0  0  0  0  0  0  0  0  0
   -0.8733    2.8946    1.9154 H   0  0  0  0  0  0  0  0  0  0  0  0
   -1.0933    5.1481    0.9861 H   0  0  0  0  0  0  0  0  0  0  0  0
   -1.3101    3.4264   -2.9180 H   0  0  0  0  0  0  0  0  0  0  0  0
    1.5825    1.0015   -1.9416 H   0  0  0  0  0  0  0  0  0  0  0  0
    5.0401    0.9174   -2.7137 H   0  0  0  0  0  0  0  0  0  0  0  0
    4.5211    2.5454   -2.0327 H   0  0  0  0  0  0  0  0  0  0  0  0
    3.4704    1.6711   -3.1721 H   0  0  0  0  0  0  0  0  0  0  0  0
    4.2549   -2.5930    2.7626 H   0  0  0  0  0  0  0  0  0  0  0  0
    5.2768   -1.3846    3.7014 H   0  0  0  0  0  0  0  0  0  0  0  0
    3.5286   -1.1132    3.4232 H   0  0  0  0  0  0  0  0  0  0  0  0
    1.9737   -1.0685    1.7062 H   0  0  0  0  0  0  0  0  0  0  0  0
  1  2  1  0
  2  3  2  0
  3  4  1  0
  4  5  1  0
  5  6  1  0
  6  7  1  0
  4  8  1  0
  8  9  2  0
  9 10  1  0
 10 11  1  0
 11 12  2  0
 12 13  1  0
 13 14  2  0
 14 15  1  0
 14 16  1  0
 16 17  2  0
 17 18  1  0
 10 19  1  0
 19 20  1  0
 20 21  1  0
 21 22  2  0
 22 23  1  0
 22 24  1  0
 24 25  2  0
 25 26  1  0
 26 27  2  0
 27 28  1  0
 27 29  1  0
 29 30  1  0
 19 31  1  0
 31 32  2  0
  9  2  1  0
 17 11  1  0
 30 20  2  0
  7  5  1  0
 31  8  1  0
 29 24  1  0
  1 33  1  0
  1 34  1  0
  1 35  1  0
  5 36  1  0
  6 37  1  0
  6 38  1  0
  7 39  1  0
  7 40  1  0
 10 41  1  0
 12 42  1  0
 13 43  1  0
 16 44  1  0
 21 45  1  0
 23 46  1  0
 23 47  1  0
 23 48  1  0
 28 49  1  0
 28 50  1  0
 28 51  1  0
 30 52  1  0
M  END
$$$$
