
     RDKit          3D

 47 50  0  0  0  0  0  0  0  0999 V2000
    4.6594    1.7415   -5.7582 C   0  0  0  0  0  3  0  0  0  0  0  0
    4.3523    1.6362   -4.5544 N   0  0  0  0  0  4  0  0  0  0  0  0
    4.0199    1.5070   -3.3010 C   0  0  0  0  0  0  0  0  0  0  0  0
    3.8979    0.3035   -2.5906 C   0  0  0  0  0  0  0  0  0  0  0  0
    3.5295    0.2022   -1.3446 N   0  0  0  0  0  0  0  0  0  0  0  0
    3.2200    1.2586   -0.5744 C   0  0  0  0  0  0  0  0  0  0  0  0
    2.8364    1.1542    0.7689 C   0  0  0  0  0  0  0  0  0  0  0  0
    2.7953   -0.1300    1.3451 N   0  0  0  0  0  0  0  0  0  0  0  0
    1.6384   -0.9013    1.5005 C   0  0  0  0  0  0  0  0  0  0  0  0
    1.8079   -2.2551    1.8665 C   0  0  0  0  0  0  0  0  0  0  0  0
    0.6812   -2.9843    2.0122 C   0  0  0  0  0  0  0  0  0  0  0  0
   -0.6069   -2.5427    1.8423 C   0  0  0  0  0  0  0  0  0  0  0  0
   -1.6550   -3.4119    2.0442 F   0  0  0  0  0  0  0  0  0  0  0  0
   -0.7968   -1.2286    1.4862 C   0  0  0  0  0  0  0  0  0  0  0  0
   -2.1589   -0.7328    1.3117 C   0  0  2  0  0  0  0  0  0  0  0  0
   -2.8467   -0.8504    2.7030 C   0  0  0  0  0  0  0  0  0  0  0  0
   -4.1494   -0.4054    2.6378 F   0  0  0  0  0  0  0  0  0  0  0  0
   -2.9273   -1.5692    0.3349 C   0  0  0  0  0  0  0  0  0  0  0  0
   -3.0569   -0.9759   -1.0405 C   0  0  1  0  0  0  0  0  0  0  0  0
   -4.0847   -1.8381   -1.7740 C   0  0  0  0  0  0  0  0  0  0  0  0
   -4.2880   -1.3918   -3.0700 F   0  0  0  0  0  0  0  0  0  0  0  0
   -5.2765   -1.6975   -1.0472 F   0  0  0  0  0  0  0  0  0  0  0  0
   -3.7288   -3.1453   -1.7086 F   0  0  0  0  0  0  0  0  0  0  0  0
   -3.5783    0.3441   -0.9263 O   0  0  0  0  0  0  0  0  0  0  0  0
   -2.9309    1.1630   -0.0248 C   0  0  0  0  0  0  0  0  0  0  0  0
   -2.9773    2.5914   -0.2278 N   0  0  0  0  0  0  0  0  0  0  0  0
   -2.3125    0.6359    0.9526 N   0  0  0  0  0  0  0  0  0  0  0  0
    0.3365   -0.4264    1.3204 C   0  0  0  0  0  0  0  0  0  0  0  0
    2.5574    2.2396    1.4497 N   0  0  0  0  0  0  0  0  0  0  0  0
    2.6415    3.4659    0.8592 C   0  0  0  0  0  0  0  0  0  0  0  0
    3.0108    3.5835   -0.4267 N   0  0  0  0  0  0  0  0  0  0  0  0
    3.3180    2.5050   -1.2087 C   0  0  0  0  0  0  0  0  0  0  0  0
    3.6941    2.6310   -2.4861 C   0  0  0  0  0  0  0  0  0  0  0  0
    4.1550   -0.5799   -3.2169 H   0  0  0  0  0  0  0  0  0  0  0  0
    3.7298   -0.5038    1.6621 H   0  0  0  0  0  0  0  0  0  0  0  0
    2.8242   -2.6372    2.0104 H   0  0  0  0  0  0  0  0  0  0  0  0
    0.7969   -4.0402    2.3015 H   0  0  0  0  0  0  0  0  0  0  0  0
   -2.7628   -1.8512    3.1129 H   0  0  0  0  0  0  0  0  0  0  0  0
   -2.3097   -0.1847    3.4443 H   0  0  0  0  0  0  0  0  0  0  0  0
   -3.9503   -1.8243    0.7305 H   0  0  0  0  0  0  0  0  0  0  0  0
   -2.4589   -2.5822    0.1689 H   0  0  0  0  0  0  0  0  0  0  0  0
   -2.0878   -0.9874   -1.5561 H   0  0  0  0  0  0  0  0  0  0  0  0
   -3.6942    3.0237   -0.8082 H   0  0  0  0  0  0  0  0  0  0  0  0
   -2.2418    3.1188    0.2614 H   0  0  0  0  0  0  0  0  0  0  0  0
    0.2160    0.6027    1.0502 H   0  0  0  0  0  0  0  0  0  0  0  0
    2.4051    4.3499    1.4329 H   0  0  0  0  0  0  0  0  0  0  0  0
    3.7570    3.6200   -2.9652 H   0  0  0  0  0  0  0  0  0  0  0  0
  1  2  3  0
  2  3  1  0
  3  4  2  0
  4  5  1  0
  5  6  2  0
  6  7  1  0
  7  8  1  0
  8  9  1  0
  9 10  2  0
 10 11  1  0
 11 12  2  0
 12 13  1  0
 12 14  1  0
 14 15  1  0
 15 16  1  1
 16 17  1  0
 15 18  1  0
 18 19  1  0
 19 20  1  0
 20 21  1  0
 20 22  1  0
 20 23  1  0
 19 24  1  0
 24 25  1  0
 25 26  1  0
 25 27  2  0
 14 28  2  0
  7 29  2  0
 29 30  1  0
 30 31  2  0
 31 32  1  0
 32 33  2  0
 33  3  1  0
 32  6  1  0
 28  9  1  0
 27 15  1  0
  4 34  1  0
  8 35  1  0
 10 36  1  0
 11 37  1  0
 16 38  1  0
 16 39  1  0
 18 40  1  0
 18 41  1  0
 19 42  1  6
 26 43  1  0
 26 44  1  0
 28 45  1  0
 30 46  1  0
 33 47  1  0
M  CHG  2   1  -1   2   1
M  END
$$$$
