@<TRIPOS>MOLECULE
*****
 47 50 0 0 0
SMALL
GASTEIGER

@<TRIPOS>ATOM
      1 C           4.6594    1.7415   -5.7582 C.2     1  UNL1       -0.2277
      2 N           4.3523    1.6362   -4.5544 N.1     1  UNL1       -0.2653
      3 C           4.0199    1.5070   -3.3010 C.ar    1  UNL1        0.3113
      4 C           3.8979    0.3035   -2.5906 C.ar    1  UNL1        0.1144
      5 N           3.5295    0.2022   -1.3446 N.ar    1  UNL1       -0.2424
      6 C           3.2200    1.2586   -0.5744 C.ar    1  UNL1        0.1296
      7 C           2.8364    1.1542    0.7689 C.ar    1  UNL1        0.1523
      8 N           2.7953   -0.1300    1.3451 N.pl3   1  UNL1       -0.2976
      9 C           1.6384   -0.9013    1.5005 C.ar    1  UNL1        0.0329
     10 C           1.8079   -2.2551    1.8665 C.ar    1  UNL1       -0.0378
     11 C           0.6812   -2.9843    2.0122 C.ar    1  UNL1       -0.0243
     12 C          -0.6069   -2.5427    1.8423 C.ar    1  UNL1        0.1291
     13 F          -1.6550   -3.4119    2.0442 F       1  UNL1       -0.2051
     14 C          -0.7968   -1.2286    1.4862 C.ar    1  UNL1        0.0196
     15 C          -2.1589   -0.7328    1.3117 C.3     1  UNL1        0.1258
     16 C          -2.8467   -0.8504    2.7030 C.3     1  UNL1        0.1196
     17 F          -4.1494   -0.4054    2.6378 F       1  UNL1       -0.2462
     18 C          -2.9273   -1.5692    0.3349 C.3     1  UNL1        0.0251
     19 C          -3.0569   -0.9759   -1.0405 C.3     1  UNL1        0.1998
     20 C          -4.0847   -1.8381   -1.7740 C.3     1  UNL1        0.4266
     21 F          -4.2880   -1.3918   -3.0700 F       1  UNL1       -0.1669
     22 F          -5.2765   -1.6975   -1.0472 F       1  UNL1       -0.1669
     23 F          -3.7288   -3.1453   -1.7086 F       1  UNL1       -0.1669
     24 O          -3.5783    0.3441   -0.9263 O.2     1  UNL1       -0.4534
     25 C          -2.9309    1.1630   -0.0248 C.2     1  UNL1        0.2766
     26 N          -2.9773    2.5914   -0.2278 N.pl3   1  UNL1       -0.3134
     27 N          -2.3125    0.6359    0.9526 N.2     1  UNL1       -0.2228
     28 C           0.3365   -0.4264    1.3204 C.ar    1  UNL1       -0.0322
     29 N           2.5574    2.2396    1.4497 N.ar    1  UNL1       -0.2184
     30 C           2.6415    3.4659    0.8592 C.ar    1  UNL1        0.1188
     31 N           3.0108    3.5835   -0.4267 N.ar    1  UNL1       -0.2335
     32 C           3.3180    2.5050   -1.2087 C.ar    1  UNL1        0.1015
     33 C           3.6941    2.6310   -2.4861 C.ar    1  UNL1        0.0537
     34 H           4.1550   -0.5799   -3.2169 H       1  UNL1        0.0908
     35 H           3.7298   -0.5038    1.6621 H       1  UNL1        0.1536
     36 H           2.8242   -2.6372    2.0104 H       1  UNL1        0.0637
     37 H           0.7969   -4.0402    2.3015 H       1  UNL1        0.0647
     38 H          -2.7628   -1.8512    3.1129 H       1  UNL1        0.0643
     39 H          -2.3097   -0.1847    3.4443 H       1  UNL1        0.0643
     40 H          -3.9503   -1.8243    0.7305 H       1  UNL1        0.0331
     41 H          -2.4589   -2.5822    0.1689 H       1  UNL1        0.0331
     42 H          -2.0878   -0.9874   -1.5561 H       1  UNL1        0.0826
     43 H          -3.6942    3.0237   -0.8082 H       1  UNL1        0.1466
     44 H          -2.2418    3.1188    0.2614 H       1  UNL1        0.1466
     45 H           0.2160    0.6027    1.0502 H       1  UNL1        0.0640
     46 H           2.4051    4.3499    1.4329 H       1  UNL1        0.1048
     47 H           3.7570    3.6200   -2.9652 H       1  UNL1        0.0717
@<TRIPOS>UNITY_ATOM_ATTR
1 1
charge -1
2 1
charge 1
@<TRIPOS>BOND
     1     1     2    3
     2     2     3    1
     3     3     4   ar
     4     4     5   ar
     5     5     6   ar
     6     6     7   ar
     7     7     8    1
     8     8     9    1
     9     9    10   ar
    10    10    11   ar
    11    11    12   ar
    12    12    13    1
    13    12    14   ar
    14    14    15    1
    15    15    16    1
    16    16    17    1
    17    15    18    1
    18    18    19    1
    19    19    20    1
    20    20    21    1
    21    20    22    1
    22    20    23    1
    23    19    24    1
    24    24    25    1
    25    25    26    1
    26    25    27    2
    27    14    28   ar
    28     7    29   ar
    29    29    30   ar
    30    30    31   ar
    31    31    32   ar
    32    32    33   ar
    33    33     3   ar
    34    32     6   ar
    35    28     9   ar
    36    27    15    1
    37     4    34    1
    38     8    35    1
    39    10    36    1
    40    11    37    1
    41    16    38    1
    42    16    39    1
    43    18    40    1
    44    18    41    1
    45    19    42    1
    46    26    43    1
    47    26    44    1
    48    28    45    1
    49    30    46    1
    50    33    47    1
