@<TRIPOS>MOLECULE
*****
 71 76 0 0 0
SMALL
GASTEIGER

@<TRIPOS>ATOM
      1 C           9.0434   -2.0958    0.1343 C.3     1  UNL1        0.0032
      2 N           7.6347   -1.7433    0.2632 N.am    1  UNL1       -0.3024
      3 C           7.1430   -1.5739    1.6317 C.3     1  UNL1        0.0032
      4 C           6.7883   -1.5743   -0.8605 C.2     1  UNL1        0.2627
      5 O           7.2473   -1.7299   -2.0117 O.2     1  UNL1       -0.2684
      6 C           5.3944   -1.2208   -0.6161 C.ar    1  UNL1        0.1070
      7 C           4.4048   -2.1480   -0.2505 C.ar    1  UNL1       -0.0209
      8 C           3.2514   -1.4132   -0.1156 C.ar    1  UNL1        0.0378
      9 C           1.9349   -1.7461    0.2290 C.ar    1  UNL1        0.0419
     10 N           0.9750   -0.8231    0.2935 N.ar    1  UNL1       -0.2219
     11 C           1.2307    0.4503    0.0329 C.ar    1  UNL1        0.2224
     12 N           0.2369    1.4405    0.1027 N.pl3   1  UNL1       -0.2685
     13 C          -1.0788    1.2493    0.4713 C.ar    1  UNL1        0.1250
     14 C          -1.6519    0.0849    0.8351 C.ar    1  UNL1       -0.0208
     15 C          -3.0039   -0.0049    1.1991 C.ar    1  UNL1       -0.0449
     16 C          -3.7749    1.1184    1.1883 C.ar    1  UNL1        0.0551
     17 C          -5.1729    1.0288    1.5679 C.2     1  UNL1        0.2481
     18 O          -5.6099    1.7211    2.5314 O.2     1  UNL1       -0.2699
     19 N          -6.0478    0.1638    0.8569 N.am    1  UNL1       -0.2954
     20 C          -5.6937   -0.6810   -0.2600 C.3     1  UNL1        0.0197
     21 C          -6.9079   -0.6924   -1.1445 C.3     1  UNL1       -0.0035
     22 C          -7.5696    0.6321   -1.3543 C.3     1  UNL1       -0.0267
     23 C          -8.0296   -0.3085   -0.2555 C.3     1  UNL1        0.0417
     24 N          -9.3140   -0.9180   -0.3011 N.3     1  UNL1       -0.3009
     25 C          -9.3644   -2.3241   -0.0885 C.3     1  UNL1       -0.0125
     26 C         -10.2583   -0.3762   -1.2129 C.3     1  UNL1       -0.0125
     27 C          -7.4398   -0.0224    1.1288 C.3     1  UNL1        0.0337
     28 C          -3.1860    2.3139    0.8142 C.ar    1  UNL1        0.0418
     29 N          -1.8888    2.3585    0.4727 N.ar    1  UNL1       -0.2394
     30 N           2.5244    0.7913   -0.3084 N.ar    1  UNL1       -0.1962
     31 C           3.5152   -0.0953   -0.3853 C.ar    1  UNL1        0.1466
     32 N           4.8468   -0.0199   -0.6890 N.ar    1  UNL1       -0.3180
     33 C           5.4397    1.2306   -1.0156 C.3     1  UNL1        0.0366
     34 C           5.5234    2.1841    0.1485 C.3     1  UNL1       -0.0320
     35 C           6.7567    3.0239   -0.1036 C.3     1  UNL1       -0.0511
     36 C           7.1408    2.7262   -1.5620 C.3     1  UNL1       -0.0511
     37 C           6.8119    1.2188   -1.5673 C.3     1  UNL1       -0.0320
     38 H           9.4062   -1.8361   -0.8955 H       1  UNL1        0.0428
     39 H           9.5949   -1.5379    0.9232 H       1  UNL1        0.0428
     40 H           9.2363   -3.1663    0.2924 H       1  UNL1        0.0428
     41 H           6.2451   -0.9195    1.5956 H       1  UNL1        0.0428
     42 H           7.9577   -1.1342    2.2440 H       1  UNL1        0.0428
     43 H           6.9115   -2.5625    2.0963 H       1  UNL1        0.0428
     44 H           4.4847   -3.1950   -0.1010 H       1  UNL1        0.0647
     45 H           1.7762   -2.8004    0.4334 H       1  UNL1        0.0838
     46 H           0.5631    2.4464   -0.1646 H       1  UNL1        0.1564
     47 H          -1.0930   -0.8353    0.8637 H       1  UNL1        0.0652
     48 H          -3.4247   -0.9443    1.4819 H       1  UNL1        0.0627
     49 H          -4.8396   -0.2647   -0.8358 H       1  UNL1        0.0468
     50 H          -5.4041   -1.6959    0.0904 H       1  UNL1        0.0468
     51 H          -6.9978   -1.4386   -1.9393 H       1  UNL1        0.0335
     52 H          -7.1033    1.5698   -1.0014 H       1  UNL1        0.0287
     53 H          -8.2539    0.7875   -2.1997 H       1  UNL1        0.0287
     54 H          -8.3416   -2.7594   -0.0489 H       1  UNL1        0.0391
     55 H          -9.8259   -2.5254    0.9025 H       1  UNL1        0.0391
     56 H          -9.9731   -2.8449   -0.8686 H       1  UNL1        0.0391
     57 H         -10.0884    0.6941   -1.3499 H       1  UNL1        0.0391
     58 H         -10.3234   -0.8918   -2.1926 H       1  UNL1        0.0391
     59 H         -11.2782   -0.4622   -0.7362 H       1  UNL1        0.0391
     60 H          -7.9372    0.9103    1.4806 H       1  UNL1        0.0483
     61 H          -7.6559   -0.8757    1.8107 H       1  UNL1        0.0483
     62 H          -3.7454    3.2363    0.7858 H       1  UNL1        0.0838
     63 H           4.7903    1.7357   -1.7934 H       1  UNL1        0.0528
     64 H           5.5429    1.6703    1.1278 H       1  UNL1        0.0285
     65 H           4.6618    2.8852    0.1335 H       1  UNL1        0.0285
     66 H           7.5693    2.5596    0.5198 H       1  UNL1        0.0266
     67 H           6.6249    4.0867    0.0849 H       1  UNL1        0.0266
     68 H           8.1969    2.9175   -1.7573 H       1  UNL1        0.0266
     69 H           6.4324    3.2906   -2.1811 H       1  UNL1        0.0266
     70 H           7.5870    0.7734   -0.9326 H       1  UNL1        0.0285
     71 H           6.8531    0.9011   -2.6300 H       1  UNL1        0.0285
@<TRIPOS>BOND
     1     1     2    1
     2     2     3    1
     3     2     4   am
     4     4     5    2
     5     4     6    1
     6     6     7   ar
     7     7     8   ar
     8     8     9   ar
     9     9    10   ar
    10    10    11   ar
    11    11    12    1
    12    12    13    1
    13    13    14   ar
    14    14    15   ar
    15    15    16   ar
    16    16    17    1
    17    17    18    2
    18    17    19   am
    19    19    20    1
    20    20    21    1
    21    21    22    1
    22    22    23    1
    23    23    24    1
    24    24    25    1
    25    24    26    1
    26    23    27    1
    27    16    28   ar
    28    28    29   ar
    29    11    30   ar
    30    30    31   ar
    31    31    32   ar
    32    32    33    1
    33    33    34    1
    34    34    35    1
    35    35    36    1
    36    36    37    1
    37    32     6   ar
    38    37    33    1
    39    31     8   ar
    40    29    13   ar
    41    27    19    1
    42    23    21    1
    43     1    38    1
    44     1    39    1
    45     1    40    1
    46     3    41    1
    47     3    42    1
    48     3    43    1
    49     7    44    1
    50     9    45    1
    51    12    46    1
    52    14    47    1
    53    15    48    1
    54    20    49    1
    55    20    50    1
    56    21    51    1
    57    22    52    1
    58    22    53    1
    59    25    54    1
    60    25    55    1
    61    25    56    1
    62    26    57    1
    63    26    58    1
    64    26    59    1
    65    27    60    1
    66    27    61    1
    67    28    62    1
    68    33    63    1
    69    34    64    1
    70    34    65    1
    71    35    66    1
    72    35    67    1
    73    36    68    1
    74    36    69    1
    75    37    70    1
    76    37    71    1
