@<TRIPOS>MOLECULE
*****
 34 34 0 0 0
SMALL
GASTEIGER

@<TRIPOS>ATOM
      1 C           3.6644    0.8440   -0.1058 C.3     1  UNL1       -0.0653
      2 C           2.1772    0.9426    0.2516 C.3     1  UNL1       -0.0556
      3 C           1.5577   -0.4022    0.3880 C.3     1  UNL1       -0.0493
      4 C           0.0952   -0.4212    0.7377 C.3     1  UNL1       -0.0215
      5 C          -0.0952    0.2964    2.0437 C.3     1  UNL1       -0.0610
      6 C          -0.8676   -0.1784   -0.3379 C.3     1  UNL1        0.1257
      7 C          -0.8658    1.0825   -1.1026 C.3     1  UNL1       -0.0332
      8 C          -1.0697    2.3641   -0.3959 C.3     1  UNL1       -0.0639
      9 C          -0.5484   -1.2154   -1.4002 C.2     1  UNL1        0.2357
     10 O           0.1718   -0.9971   -2.4354 O.2     1  UNL1       -0.2742
     11 N          -1.0457   -2.5404   -1.3102 N.am    1  UNL1       -0.2390
     12 C          -2.1942   -2.7940   -0.4961 C.2     1  UNL1        0.3122
     13 O          -2.6644   -3.9744   -0.3954 O.2     1  UNL1       -0.2520
     14 N          -2.8545   -1.7537    0.2282 N.am    1  UNL1       -0.2390
     15 C          -2.2848   -0.4477    0.0793 C.2     1  UNL1        0.2357
     16 O          -3.0381    0.5542    0.3192 O.2     1  UNL1       -0.2742
     17 H           4.2208    0.3767    0.7065 H       1  UNL1        0.0230
     18 H           3.9817    1.9064   -0.3137 H       1  UNL1        0.0230
     19 H           3.7387    0.3128   -1.0660 H       1  UNL1        0.0230
     20 H           2.1860    1.4716    1.2501 H       1  UNL1        0.0263
     21 H           1.7443    1.6389   -0.4464 H       1  UNL1        0.0263
     22 H           2.1219   -0.9026    1.2356 H       1  UNL1        0.0268
     23 H           1.7911   -1.0739   -0.4775 H       1  UNL1        0.0268
     24 H          -0.0795   -1.5280    1.0340 H       1  UNL1        0.0313
     25 H           0.3330    1.2963    2.0680 H       1  UNL1        0.0233
     26 H           0.5001   -0.2815    2.8137 H       1  UNL1        0.0233
     27 H          -1.1345    0.2220    2.4347 H       1  UNL1        0.0233
     28 H          -0.0479    1.1618   -1.8608 H       1  UNL1        0.0277
     29 H          -1.7791    0.9766   -1.7919 H       1  UNL1        0.0277
     30 H          -1.9046    2.9859   -0.8404 H       1  UNL1        0.0230
     31 H          -0.1902    3.0347   -0.4970 H       1  UNL1        0.0230
     32 H          -1.3214    2.3220    0.6762 H       1  UNL1        0.0230
     33 H          -0.6054   -3.3385   -1.8157 H       1  UNL1        0.1591
     34 H          -3.6929   -1.9402    0.8222 H       1  UNL1        0.1591
@<TRIPOS>BOND
     1     1     2    1
     2     2     3    1
     3     3     4    1
     4     4     5    1
     5     4     6    1
     6     6     7    1
     7     7     8    1
     8     6     9    1
     9     9    10    2
    10     9    11   am
    11    11    12   am
    12    12    13    2
    13    12    14   am
    14    14    15   am
    15    15    16    2
    16    15     6    1
    17     1    17    1
    18     1    18    1
    19     1    19    1
    20     2    20    1
    21     2    21    1
    22     3    22    1
    23     3    23    1
    24     4    24    1
    25     5    25    1
    26     5    26    1
    27     5    27    1
    28     7    28    1
    29     7    29    1
    30     8    30    1
    31     8    31    1
    32     8    32    1
    33    11    33    1
    34    14    34    1
