@<TRIPOS>MOLECULE
*****
 98 99 0 0 0
SMALL
GASTEIGER

@<TRIPOS>ATOM
      1 C          -7.9970   -4.0391    0.1004 C.3     1  UNL1        0.1373
      2 C          -8.9771   -5.2139    0.0784 C.3     1  UNL1        0.0218
      3 S          -8.0641   -6.6251    0.7571 S.3     1  UNL1       -0.1757
      4 N          -6.8859   -4.4492   -0.7314 N.2     1  UNL1       -0.2411
      5 C          -5.7847   -3.7848   -0.6514 C.2     1  UNL1        0.1832
      6 O          -5.7691   -4.8329   -1.5432 O.2     1  UNL1       -0.4956
      7 C          -5.4372   -2.6056    0.1917 C.3     1  UNL1        0.0230
      8 C          -4.2195   -2.9707    1.0102 C.3     1  UNL1       -0.0446
      9 C          -3.0931   -3.3153    0.0755 C.3     1  UNL1       -0.0509
     10 C          -2.7827   -2.1493   -0.8140 C.3     1  UNL1       -0.0333
     11 C          -2.3847   -0.9684    0.0195 C.3     1  UNL1        0.0431
     12 N          -2.1001    0.1143   -0.9398 N.2     1  UNL1       -0.2530
     13 C          -1.3250    1.0543   -0.5167 C.2     1  UNL1        0.2082
     14 O          -1.7789    1.1969   -1.8088 O.2     1  UNL1       -0.4942
     15 C          -0.6009    1.3412    0.7746 C.3     1  UNL1        0.1329
     16 C          -1.1744    2.6005    1.4028 C.3     1  UNL1        0.0035
     17 C          -1.0250    3.7774    0.5081 C.ar    1  UNL1       -0.0448
     18 C           0.0432    4.6492    0.4678 C.ar    1  UNL1       -0.0580
     19 C           0.0388    5.7091   -0.4268 C.ar    1  UNL1       -0.0521
     20 C          -1.0221    5.8870   -1.2648 C.ar    1  UNL1        0.0328
     21 C          -2.1368    5.0439   -1.2784 C.ar    1  UNL1       -0.0521
     22 C          -2.0847    3.9949   -0.3621 C.ar    1  UNL1       -0.0580
     23 C          -0.9947    7.0446   -2.2223 C.3     1  UNL1        0.3711
     24 F           0.0786    6.8835   -3.0828 F       1  UNL1       -0.1866
     25 F          -2.1702    7.1123   -2.9266 F       1  UNL1       -0.1866
     26 P          -0.7415    8.5954   -1.3227 P.3     1  UNL1        0.4007
     27 O          -1.3536    8.4884    0.2547 O.3     1  UNL1       -0.3199
     28 O          -1.5951    9.8028   -2.1414 O.3     1  UNL1       -0.3199
     29 O           0.7199    8.9243   -1.2396 O.2     1  UNL1       -0.2522
     30 N           0.8100    1.4773    0.5251 N.2     1  UNL1       -0.2397
     31 C           1.6843    0.5422    0.5155 C.2     1  UNL1        0.2092
     32 O           1.2618   -0.7744    0.7729 O.2     1  UNL1       -0.4942
     33 C           3.1045    0.8728    0.2338 C.3     1  UNL1        0.1389
     34 C           3.2234    2.3687    0.0919 C.3     1  UNL1        0.0758
     35 C           4.5828    2.8320   -0.1903 C.2     1  UNL1        0.3072
     36 O           5.9202    2.5268   -0.4103 O.3     1  UNL1       -0.4806
     37 O           4.5597    4.1059   -0.2824 O.2     1  UNL1       -0.2509
     38 N           3.9946    0.2831    1.1557 N.2     1  UNL1       -0.2411
     39 C           4.0956    0.3619    2.4047 C.2     1  UNL1        0.1876
     40 O           3.1631    1.1811    3.0259 O.2     1  UNL1       -0.4954
     41 C           5.1924   -0.4303    3.0171 C.3     1  UNL1        0.0482
     42 C           5.9991   -1.1830    2.0189 C.ar    1  UNL1       -0.0385
     43 C           7.1076   -0.5214    1.4747 C.ar    1  UNL1       -0.0577
     44 C           7.9476   -1.0995    0.5344 C.ar    1  UNL1       -0.0521
     45 C           7.6616   -2.3948    0.1246 C.ar    1  UNL1        0.0328
     46 C           6.5718   -3.0766    0.6442 C.ar    1  UNL1       -0.0521
     47 C           5.7397   -2.4876    1.5837 C.ar    1  UNL1       -0.0577
     48 C           8.5570   -3.0271   -0.8871 C.3     1  UNL1        0.3711
     49 F           9.8867   -2.7171   -0.6782 F       1  UNL1       -0.1866
     50 F           8.2299   -2.5653   -2.1361 F       1  UNL1       -0.1866
     51 P           8.3954   -4.8321   -0.8859 P.3     1  UNL1        0.4007
     52 O           8.5371   -5.3516    0.7318 O.3     1  UNL1       -0.3199
     53 O           6.9362   -5.3581   -1.5108 O.3     1  UNL1       -0.3199
     54 O           9.5793   -5.4202   -1.6263 O.2     1  UNL1       -0.2522
     55 C          -8.6082   -2.8340   -0.4993 C.2     1  UNL1        0.2059
     56 O          -8.2727   -1.5220   -0.7638 O.2     1  UNL1       -0.4943
     57 N          -9.7930   -2.7799   -0.9755 N.2     1  UNL1       -0.2693
     58 H          -7.7100   -3.8441    1.1526 H       1  UNL1        0.0651
     59 H          -9.8766   -4.9861    0.6558 H       1  UNL1        0.0399
     60 H          -9.1537   -5.4088   -0.9989 H       1  UNL1        0.0399
     61 H          -8.5743   -7.7910    0.1138 H       1  UNL1        0.1017
     62 H          -4.9682   -4.9181   -2.1843 H       1  UNL1        0.2934
     63 H          -5.2230   -1.7077   -0.3950 H       1  UNL1        0.0359
     64 H          -6.2924   -2.4205    0.8998 H       1  UNL1        0.0359
     65 H          -3.9904   -2.1406    1.6916 H       1  UNL1        0.0270
     66 H          -4.5369   -3.8753    1.6068 H       1  UNL1        0.0270
     67 H          -3.3543   -4.1634   -0.5935 H       1  UNL1        0.0266
     68 H          -2.1483   -3.5268    0.6409 H       1  UNL1        0.0266
     69 H          -3.6177   -1.9179   -1.5376 H       1  UNL1        0.0283
     70 H          -1.9276   -2.4286   -1.5119 H       1  UNL1        0.0283
     71 H          -1.4877   -1.2690    0.5904 H       1  UNL1        0.0509
     72 H          -3.1271   -0.6401    0.7456 H       1  UNL1        0.0509
     73 H          -1.4337    1.9987   -2.3577 H       1  UNL1        0.2935
     74 H          -0.7523    0.5165    1.4873 H       1  UNL1        0.0646
     75 H          -2.2290    2.4558    1.7066 H       1  UNL1        0.0339
     76 H          -0.6167    2.7909    2.3346 H       1  UNL1        0.0339
     77 H           0.8473    4.4426    1.1625 H       1  UNL1        0.0620
     78 H           0.8989    6.3643   -0.4213 H       1  UNL1        0.0622
     79 H          -2.9639    5.1951   -1.9424 H       1  UNL1        0.0622
     80 H          -2.9707    3.3417   -0.3866 H       1  UNL1        0.0620
     81 H          -2.0837    9.1532    0.4042 H       1  UNL1        0.2199
     82 H          -1.3720   10.7057   -1.8127 H       1  UNL1        0.2199
     83 H           0.6523   -0.9308    1.5891 H       1  UNL1        0.2935
     84 H           3.3122    0.3740   -0.7676 H       1  UNL1        0.0648
     85 H           2.9049    2.8199    1.0556 H       1  UNL1        0.0403
     86 H           2.5370    2.6898   -0.7203 H       1  UNL1        0.0403
     87 H           6.3502    2.7052   -1.3223 H       1  UNL1        0.2951
     88 H           2.1711    1.0443    2.9128 H       1  UNL1        0.2934
     89 H           4.7677   -1.1047    3.7932 H       1  UNL1        0.0408
     90 H           5.8912    0.2400    3.5782 H       1  UNL1        0.0408
     91 H           7.3755    0.5050    1.7657 H       1  UNL1        0.0621
     92 H           8.7845   -0.5713    0.1380 H       1  UNL1        0.0622
     93 H           6.3334   -4.0666    0.3453 H       1  UNL1        0.0622
     94 H           4.8784   -2.9540    2.0315 H       1  UNL1        0.0621
     95 H           9.4955   -5.5255    0.9435 H       1  UNL1        0.2199
     96 H           6.7919   -6.2854   -1.1707 H       1  UNL1        0.2199
     97 H          -8.5771   -0.7475   -0.2072 H       1  UNL1        0.2935
     98 H         -10.4544   -3.5619   -0.9967 H       1  UNL1        0.1896
@<TRIPOS>BOND
     1     1     2    1
     2     2     3    1
     3     1     4    1
     4     4     5    2
     5     5     6    1
     6     5     7    1
     7     7     8    1
     8     8     9    1
     9     9    10    1
    10    10    11    1
    11    11    12    1
    12    12    13    2
    13    13    14    1
    14    13    15    1
    15    15    16    1
    16    16    17    1
    17    17    18   ar
    18    18    19   ar
    19    19    20   ar
    20    20    21   ar
    21    21    22   ar
    22    20    23    1
    23    23    24    1
    24    23    25    1
    25    23    26    1
    26    26    27    1
    27    26    28    1
    28    26    29    2
    29    15    30    1
    30    30    31    2
    31    31    32    1
    32    31    33    1
    33    33    34    1
    34    34    35    1
    35    35    36    1
    36    35    37    2
    37    33    38    1
    38    38    39    2
    39    39    40    1
    40    39    41    1
    41    41    42    1
    42    42    43   ar
    43    43    44   ar
    44    44    45   ar
    45    45    46   ar
    46    46    47   ar
    47    45    48    1
    48    48    49    1
    49    48    50    1
    50    48    51    1
    51    51    52    1
    52    51    53    1
    53    51    54    2
    54     1    55    1
    55    55    56    1
    56    55    57    2
    57    22    17   ar
    58    47    42   ar
    59     1    58    1
    60     2    59    1
    61     2    60    1
    62     3    61    1
    63     6    62    1
    64     7    63    1
    65     7    64    1
    66     8    65    1
    67     8    66    1
    68     9    67    1
    69     9    68    1
    70    10    69    1
    71    10    70    1
    72    11    71    1
    73    11    72    1
    74    14    73    1
    75    15    74    1
    76    16    75    1
    77    16    76    1
    78    18    77    1
    79    19    78    1
    80    21    79    1
    81    22    80    1
    82    27    81    1
    83    28    82    1
    84    32    83    1
    85    33    84    1
    86    34    85    1
    87    34    86    1
    88    36    87    1
    89    40    88    1
    90    41    89    1
    91    41    90    1
    92    43    91    1
    93    44    92    1
    94    46    93    1
    95    47    94    1
    96    52    95    1
    97    53    96    1
    98    56    97    1
    99    57    98    1
