
     RDKit          3D

 43 45  0  0  0  0  0  0  0  0999 V2000
   -1.9099   -1.3445    2.7854 C   0  0  0  0  0  0  0  0  0  0  0  0
   -2.8461   -0.6911    1.7959 C   0  0  0  0  0  0  0  0  0  0  0  0
   -4.2913   -0.7485    2.1555 C   0  0  0  0  0  0  0  0  0  0  0  0
   -2.3847   -0.1342    0.6791 C   0  0  0  0  0  0  0  0  0  0  0  0
   -3.3154    0.4901   -0.2339 C   0  0  0  0  0  0  0  0  0  0  0  0
   -3.3417    0.1114   -1.5644 C   0  0  0  0  0  0  0  0  0  0  0  0
   -4.1991    0.7337   -2.4770 C   0  0  0  0  0  0  0  0  0  0  0  0
   -5.0145    1.7159   -2.0653 N   0  0  0  0  0  0  0  0  0  0  0  0
   -5.0217    2.1124   -0.7942 C   0  0  0  0  0  0  0  0  0  0  0  0
   -4.1687    1.5011    0.1382 C   0  0  0  0  0  0  0  0  0  0  0  0
   -0.9467   -0.1656    0.3962 C   0  0  0  0  0  0  0  0  0  0  0  0
   -0.1657   -1.2819    0.4757 C   0  0  0  0  0  0  0  0  0  0  0  0
    1.2049   -1.2480    0.2196 C   0  0  0  0  0  0  0  0  0  0  0  0
    1.8070   -0.0768   -0.1213 C   0  0  0  0  0  0  0  0  0  0  0  0
    3.2354    0.0240   -0.3888 C   0  0  0  0  0  0  0  0  0  0  0  0
    3.9489    1.1917   -0.1104 C   0  0  0  0  0  0  0  0  0  0  0  0
    5.2958    1.2848   -0.3596 C   0  0  0  0  0  0  0  0  0  0  0  0
    5.9949    0.2323   -0.8914 C   0  0  0  0  0  0  0  0  0  0  0  0
    7.3642    0.2658   -1.1653 O   0  0  0  0  0  0  0  0  0  0  0  0
    5.2961   -0.9363   -1.1720 C   0  0  0  0  0  0  0  0  0  0  0  0
    5.9573   -2.0404   -1.7162 O   0  0  0  0  0  0  0  0  0  0  0  0
    3.9321   -1.0258   -0.9190 C   0  0  0  0  0  0  0  0  0  0  0  0
    1.0499    1.0680   -0.2111 C   0  0  0  0  0  0  0  0  0  0  0  0
   -0.3259    1.0103    0.0500 C   0  0  0  0  0  0  0  0  0  0  0  0
   -2.3185   -1.1610    3.8109 H   0  0  0  0  0  0  0  0  0  0  0  0
   -1.9807   -2.4354    2.6073 H   0  0  0  0  0  0  0  0  0  0  0  0
   -0.9171   -0.8963    2.7135 H   0  0  0  0  0  0  0  0  0  0  0  0
   -4.9239   -0.9539    1.2411 H   0  0  0  0  0  0  0  0  0  0  0  0
   -4.4211   -1.6328    2.8613 H   0  0  0  0  0  0  0  0  0  0  0  0
   -4.5939    0.1723    2.6817 H   0  0  0  0  0  0  0  0  0  0  0  0
   -2.7011   -0.6685   -1.9016 H   0  0  0  0  0  0  0  0  0  0  0  0
   -4.2187    0.4431   -3.5142 H   0  0  0  0  0  0  0  0  0  0  0  0
   -5.6769    2.9116   -0.4434 H   0  0  0  0  0  0  0  0  0  0  0  0
   -4.1719    1.8521    1.1597 H   0  0  0  0  0  0  0  0  0  0  0  0
   -0.6365   -2.2380    0.7359 H   0  0  0  0  0  0  0  0  0  0  0  0
    1.7531   -2.1638    0.3014 H   0  0  0  0  0  0  0  0  0  0  0  0
    3.4036    2.0129    0.3017 H   0  0  0  0  0  0  0  0  0  0  0  0
    5.8474    2.2005   -0.1382 H   0  0  0  0  0  0  0  0  0  0  0  0
    7.8753    1.0721   -0.8048 H   0  0  0  0  0  0  0  0  0  0  0  0
    6.5994   -2.5572   -1.1457 H   0  0  0  0  0  0  0  0  0  0  0  0
    3.3774   -1.9394   -1.1361 H   0  0  0  0  0  0  0  0  0  0  0  0
    1.4763    2.0246   -0.4817 H   0  0  0  0  0  0  0  0  0  0  0  0
   -0.9273    1.9087   -0.0212 H   0  0  0  0  0  0  0  0  0  0  0  0
  1  2  1  0
  2  3  1  0
  2  4  2  3
  4  5  1  0
  5  6  2  0
  6  7  1  0
  7  8  2  0
  8  9  1  0
  9 10  2  0
  4 11  1  0
 11 12  2  0
 12 13  1  0
 13 14  2  0
 14 15  1  0
 15 16  2  0
 16 17  1  0
 17 18  2  0
 18 19  1  0
 18 20  1  0
 20 21  1  0
 20 22  2  0
 14 23  1  0
 23 24  2  0
 10  5  1  0
 24 11  1  0
 22 15  1  0
  1 25  1  0
  1 26  1  0
  1 27  1  0
  3 28  1  0
  3 29  1  0
  3 30  1  0
  6 31  1  0
  7 32  1  0
  9 33  1  0
 10 34  1  0
 12 35  1  0
 13 36  1  0
 16 37  1  0
 17 38  1  0
 19 39  1  0
 21 40  1  0
 22 41  1  0
 23 42  1  0
 24 43  1  0
M  END
$$$$
