@<TRIPOS>MOLECULE
*****
 43 45 0 0 0
SMALL
GASTEIGER

@<TRIPOS>ATOM
      1 C          -1.9099   -1.3445    2.7854 C.3     1  UNL1       -0.0432
      2 C          -2.8461   -0.6911    1.7959 C.2     1  UNL1       -0.0674
      3 C          -4.2913   -0.7485    2.1555 C.3     1  UNL1       -0.0432
      4 C          -2.3847   -0.1342    0.6791 C.2     1  UNL1       -0.0119
      5 C          -3.3154    0.4901   -0.2339 C.ar    1  UNL1       -0.0145
      6 C          -3.3417    0.1114   -1.5644 C.ar    1  UNL1       -0.0359
      7 C          -4.1991    0.7337   -2.4770 C.ar    1  UNL1        0.0281
      8 N          -5.0145    1.7159   -2.0653 N.ar    1  UNL1       -0.2632
      9 C          -5.0217    2.1124   -0.7942 C.ar    1  UNL1        0.0281
     10 C          -4.1687    1.5011    0.1382 C.ar    1  UNL1       -0.0359
     11 C          -0.9467   -0.1656    0.3962 C.ar    1  UNL1       -0.0173
     12 C          -0.1657   -1.2819    0.4757 C.ar    1  UNL1       -0.0534
     13 C           1.2049   -1.2480    0.2196 C.ar    1  UNL1       -0.0535
     14 C           1.8070   -0.0768   -0.1213 C.ar    1  UNL1       -0.0177
     15 C           3.2354    0.0240   -0.3888 C.ar    1  UNL1       -0.0142
     16 C           3.9489    1.1917   -0.1104 C.ar    1  UNL1       -0.0503
     17 C           5.2958    1.2848   -0.3596 C.ar    1  UNL1       -0.0160
     18 C           5.9949    0.2323   -0.8914 C.ar    1  UNL1        0.1582
     19 O           7.3642    0.2658   -1.1653 O.3     1  UNL1       -0.5033
     20 C           5.2961   -0.9363   -1.1720 C.ar    1  UNL1        0.1588
     21 O           5.9573   -2.0404   -1.7162 O.3     1  UNL1       -0.5033
     22 C           3.9321   -1.0258   -0.9190 C.ar    1  UNL1       -0.0088
     23 C           1.0499    1.0680   -0.2111 C.ar    1  UNL1       -0.0535
     24 C          -0.3259    1.0103    0.0500 C.ar    1  UNL1       -0.0534
     25 H          -2.3185   -1.1610    3.8109 H       1  UNL1        0.0275
     26 H          -1.9807   -2.4354    2.6073 H       1  UNL1        0.0275
     27 H          -0.9171   -0.8963    2.7135 H       1  UNL1        0.0275
     28 H          -4.9239   -0.9539    1.2411 H       1  UNL1        0.0275
     29 H          -4.4211   -1.6328    2.8613 H       1  UNL1        0.0275
     30 H          -4.5939    0.1723    2.6817 H       1  UNL1        0.0275
     31 H          -2.7011   -0.6685   -1.9016 H       1  UNL1        0.0639
     32 H          -4.2187    0.4431   -3.5142 H       1  UNL1        0.0830
     33 H          -5.6769    2.9116   -0.4434 H       1  UNL1        0.0830
     34 H          -4.1719    1.8521    1.1597 H       1  UNL1        0.0639
     35 H          -0.6365   -2.2380    0.7359 H       1  UNL1        0.0624
     36 H           1.7531   -2.1638    0.3014 H       1  UNL1        0.0624
     37 H           3.4036    2.0129    0.3017 H       1  UNL1        0.0625
     38 H           5.8474    2.2005   -0.1382 H       1  UNL1        0.0655
     39 H           7.8753    1.0721   -0.8048 H       1  UNL1        0.2923
     40 H           6.5994   -2.5572   -1.1457 H       1  UNL1        0.2923
     41 H           3.3774   -1.9394   -1.1361 H       1  UNL1        0.0661
     42 H           1.4763    2.0246   -0.4817 H       1  UNL1        0.0624
     43 H          -0.9273    1.9087   -0.0212 H       1  UNL1        0.0624
@<TRIPOS>BOND
     1     1     2    1
     2     2     3    1
     3     2     4    2
     4     4     5    1
     5     5     6   ar
     6     6     7   ar
     7     7     8   ar
     8     8     9   ar
     9     9    10   ar
    10     4    11    1
    11    11    12   ar
    12    12    13   ar
    13    13    14   ar
    14    14    15    1
    15    15    16   ar
    16    16    17   ar
    17    17    18   ar
    18    18    19    1
    19    18    20   ar
    20    20    21    1
    21    20    22   ar
    22    14    23   ar
    23    23    24   ar
    24    10     5   ar
    25    24    11   ar
    26    22    15   ar
    27     1    25    1
    28     1    26    1
    29     1    27    1
    30     3    28    1
    31     3    29    1
    32     3    30    1
    33     6    31    1
    34     7    32    1
    35     9    33    1
    36    10    34    1
    37    12    35    1
    38    13    36    1
    39    16    37    1
    40    17    38    1
    41    19    39    1
    42    21    40    1
    43    22    41    1
    44    23    42    1
    45    24    43    1
