@<TRIPOS>MOLECULE
*****
 48 51 0 0 0
SMALL
GASTEIGER

@<TRIPOS>ATOM
      1 C          -1.1334    3.0874    0.5165 C.3     1  UNL1       -0.0610
      2 C          -0.9140    3.3960   -0.9486 C.3     1  UNL1       -0.0287
      3 C          -0.0637    4.6677   -0.9818 C.3     1  UNL1       -0.0610
      4 C          -0.2472    2.2812   -1.6927 C.3     1  UNL1        0.0270
      5 N          -1.0116    1.0597   -1.6586 N.ar    1  UNL1       -0.3293
      6 C          -1.9724    0.7478   -2.5799 C.ar    1  UNL1        0.0971
      7 N          -2.5163   -0.4469   -2.2928 N.ar    1  UNL1       -0.2351
      8 C          -1.9274   -0.9320   -1.1912 C.ar    1  UNL1        0.0967
      9 C          -2.2872   -2.2095   -0.6143 C.ar    1  UNL1        0.0026
     10 C          -2.9634   -2.4063    0.5603 C.ar    1  UNL1       -0.0498
     11 C          -3.2236   -3.6808    0.9776 C.ar    1  UNL1       -0.0258
     12 C          -2.8208   -4.7688    0.2423 C.ar    1  UNL1        0.1234
     13 F          -3.0933   -6.0476    0.6806 F       1  UNL1       -0.2055
     14 C          -2.1397   -4.5942   -0.9421 C.ar    1  UNL1       -0.0258
     15 C          -1.8782   -3.3205   -1.3614 C.ar    1  UNL1       -0.0498
     16 C          -1.0001    0.0136   -0.8140 C.ar    1  UNL1        0.0778
     17 C          -0.1119   -0.0895    0.3298 C.ar    1  UNL1        0.0173
     18 C          -0.5857   -0.0651    1.6188 C.ar    1  UNL1       -0.0477
     19 C           0.2962   -0.1723    2.6629 C.ar    1  UNL1       -0.0182
     20 C           1.6405   -0.3019    2.3859 C.ar    1  UNL1        0.1381
     21 N           2.6911   -0.4220    3.2271 N.ar    1  UNL1       -0.2353
     22 C           3.7883   -0.5179    2.4625 C.ar    1  UNL1        0.0588
     23 C           3.4436   -0.4595    1.1299 C.ar    1  UNL1        0.1280
     24 C           4.3666   -0.5315    0.0060 C.2     1  UNL1        0.2599
     25 N           5.7665   -0.6755    0.2075 N.am    1  UNL1       -0.3241
     26 O           3.9694   -0.4700   -1.1841 O.2     1  UNL1       -0.2687
     27 N           2.1062   -0.3255    1.1136 N.ar    1  UNL1       -0.2949
     28 C           1.2394   -0.2204    0.0891 C.ar    1  UNL1        0.0211
     29 H          -1.4214    4.0248    1.0367 H       1  UNL1        0.0233
     30 H          -1.9092    2.3266    0.6629 H       1  UNL1        0.0233
     31 H          -0.1945    2.7311    0.9847 H       1  UNL1        0.0233
     32 H          -1.8847    3.7036   -1.4387 H       1  UNL1        0.0313
     33 H          -0.7081    5.5624   -0.8415 H       1  UNL1        0.0233
     34 H           0.4199    4.8038   -1.9779 H       1  UNL1        0.0233
     35 H           0.7480    4.6212   -0.2378 H       1  UNL1        0.0233
     36 H           0.7659    2.1532   -1.2272 H       1  UNL1        0.0495
     37 H          -0.0534    2.6363   -2.7205 H       1  UNL1        0.0495
     38 H          -2.2879    1.3366   -3.4316 H       1  UNL1        0.1029
     39 H          -3.2704   -1.5413    1.1115 H       1  UNL1        0.0625
     40 H          -3.7574   -3.8599    1.9047 H       1  UNL1        0.0646
     41 H          -1.8443   -5.4827   -1.4845 H       1  UNL1        0.0646
     42 H          -1.3386   -3.2150   -2.3007 H       1  UNL1        0.0625
     43 H          -1.6633    0.0446    1.8133 H       1  UNL1        0.0626
     44 H          -0.0911   -0.1516    3.6746 H       1  UNL1        0.0654
     45 H           4.7870   -0.6252    2.8728 H       1  UNL1        0.0853
     46 H           6.2857   -1.5721    0.0903 H       1  UNL1        0.1453
     47 H           6.3485    0.1511    0.4930 H       1  UNL1        0.1453
     48 H           1.6513   -0.2433   -0.9328 H       1  UNL1        0.0820
@<TRIPOS>BOND
     1     1     2    1
     2     2     3    1
     3     2     4    1
     4     4     5    1
     5     5     6   ar
     6     6     7   ar
     7     7     8   ar
     8     8     9    1
     9     9    10   ar
    10    10    11   ar
    11    11    12   ar
    12    12    13    1
    13    12    14   ar
    14    14    15   ar
    15     8    16   ar
    16    16    17    1
    17    17    18   ar
    18    18    19   ar
    19    19    20   ar
    20    20    21   ar
    21    21    22   ar
    22    22    23   ar
    23    23    24    1
    24    24    25   am
    25    24    26    2
    26    23    27   ar
    27    27    28   ar
    28    16     5   ar
    29    28    17   ar
    30    15     9   ar
    31    27    20   ar
    32     1    29    1
    33     1    30    1
    34     1    31    1
    35     2    32    1
    36     3    33    1
    37     3    34    1
    38     3    35    1
    39     4    36    1
    40     4    37    1
    41     6    38    1
    42    10    39    1
    43    11    40    1
    44    14    41    1
    45    15    42    1
    46    18    43    1
    47    19    44    1
    48    22    45    1
    49    25    46    1
    50    25    47    1
    51    28    48    1
