
     RDKit          3D

 53 57  0  0  0  0  0  0  0  0999 V2000
   -0.7878   -2.1800    2.6963 C   0  0  0  0  0  0  0  0  0  0  0  0
   -0.9053   -1.1776    1.5189 C   0  0  2  0  0  0  0  0  0  0  0  0
    0.0401   -1.7024    0.5111 C   0  0  0  0  0  0  0  0  0  0  0  0
    1.1780   -0.9935    0.2293 C   0  0  0  0  0  0  0  0  0  0  0  0
    2.1028   -1.4321   -0.7170 C   0  0  0  0  0  0  0  0  0  0  0  0
    3.3174   -0.6873   -1.0220 C   0  0  0  0  0  0  0  0  0  0  0  0
    4.0382   -0.0509   -0.1237 C   0  0  0  0  0  0  0  0  0  0  0  0
    3.6609   -0.0666    1.1707 F   0  0  0  0  0  0  0  0  0  0  0  0
    5.2551    0.6823   -0.5130 C   0  0  0  0  0  0  0  0  0  0  0  0
    6.0102    1.3441    0.4240 C   0  0  0  0  0  0  0  0  0  0  0  0
    7.1571    2.0329    0.0392 C   0  0  0  0  0  0  0  0  0  0  0  0
    7.5372    2.0544   -1.2697 C   0  0  0  0  0  0  0  0  0  0  0  0
    8.9878    2.9218   -1.7794 Cl  0  0  0  0  0  0  0  0  0  0  0  0
    6.7627    1.3826   -2.1910 C   0  0  0  0  0  0  0  0  0  0  0  0
    5.6591    0.7244   -1.7940 N   0  0  0  0  0  0  0  0  0  0  0  0
    1.8655   -2.5952   -1.3760 C   0  0  0  0  0  0  0  0  0  0  0  0
    0.7242   -3.3153   -1.0995 C   0  0  0  0  0  0  0  0  0  0  0  0
   -0.1971   -2.8728   -0.1526 C   0  0  0  0  0  0  0  0  0  0  0  0
   -1.3013   -3.6441    0.0752 F   0  0  0  0  0  0  0  0  0  0  0  0
   -0.4098    0.0572    2.0688 N   0  0  0  0  0  0  0  0  0  0  0  0
   -0.5315    1.2060    1.5249 C   0  0  0  0  0  0  0  0  0  0  0  0
   -0.0754    2.4310    2.0028 N   0  0  0  0  0  0  0  0  0  0  0  0
   -1.4295    1.1868   -0.0510 S   0  0  0  0  0  0  0  0  0  0  0  0
   -2.7832   -0.0081    0.2758 C   0  0  1  0  0  0  0  0  0  0  0  0
   -4.0226    0.6402    0.7230 C   0  0  0  0  0  0  0  0  0  0  0  0
   -4.0889    0.9070    1.9657 O   0  0  0  0  0  0  0  0  0  0  0  0
   -5.1006    0.9648   -0.1449 N   0  0  0  0  0  0  0  0  0  0  0  0
   -6.3929    1.5883    0.0418 C   0  0  0  0  0  0  0  0  0  0  0  0
   -6.3943    1.9778   -1.3999 C   0  0  0  0  0  0  0  0  0  0  0  0
   -5.4144    0.8370   -1.5508 C   0  0  0  0  0  0  0  0  0  0  0  0
   -2.7021   -1.3026   -0.3647 C   0  0  0  0  0  0  0  0  0  0  0  0
   -2.3213   -1.1670    1.0565 C   0  0  1  0  0  0  0  0  0  0  0  0
   -1.4824   -1.9044    3.4905 H   0  0  0  0  0  0  0  0  0  0  0  0
   -1.0329   -3.1942    2.3643 H   0  0  0  0  0  0  0  0  0  0  0  0
    0.2698   -2.1904    3.0238 H   0  0  0  0  0  0  0  0  0  0  0  0
    1.4214   -0.0614    0.7195 H   0  0  0  0  0  0  0  0  0  0  0  0
    3.7005   -0.6211   -2.0538 H   0  0  0  0  0  0  0  0  0  0  0  0
    5.7074    1.3235    1.4456 H   0  0  0  0  0  0  0  0  0  0  0  0
    7.7748    2.5671    0.7658 H   0  0  0  0  0  0  0  0  0  0  0  0
    7.0341    1.3787   -3.2361 H   0  0  0  0  0  0  0  0  0  0  0  0
    2.5906   -2.9518   -2.1267 H   0  0  0  0  0  0  0  0  0  0  0  0
    0.5383   -4.2492   -1.6322 H   0  0  0  0  0  0  0  0  0  0  0  0
    0.6847    2.9354    1.5104 H   0  0  0  0  0  0  0  0  0  0  0  0
   -0.4817    2.8618    2.8535 H   0  0  0  0  0  0  0  0  0  0  0  0
   -6.3676    2.4983    0.6976 H   0  0  0  0  0  0  0  0  0  0  0  0
   -7.2168    0.9112    0.3402 H   0  0  0  0  0  0  0  0  0  0  0  0
   -6.0113    2.9717   -1.6627 H   0  0  0  0  0  0  0  0  0  0  0  0
   -7.3676    1.8057   -1.9046 H   0  0  0  0  0  0  0  0  0  0  0  0
   -4.6056    1.1132   -2.2534 H   0  0  0  0  0  0  0  0  0  0  0  0
   -5.9717   -0.0841   -1.8233 H   0  0  0  0  0  0  0  0  0  0  0  0
   -3.6318   -1.8569   -0.6299 H   0  0  0  0  0  0  0  0  0  0  0  0
   -1.9428   -1.3851   -1.1924 H   0  0  0  0  0  0  0  0  0  0  0  0
   -3.0478   -1.6110    1.7751 H   0  0  0  0  0  0  0  0  0  0  0  0
  2  1  1  1
  2  3  1  0
  3  4  2  0
  4  5  1  0
  5  6  1  0
  6  7  2  0
  7  8  1  0
  7  9  1  0
  9 10  2  0
 10 11  1  0
 11 12  2  0
 12 13  1  0
 12 14  1  0
 14 15  2  0
  5 16  2  0
 16 17  1  0
 17 18  2  0
 18 19  1  0
  2 20  1  0
 20 21  2  0
 21 22  1  0
 21 23  1  0
 23 24  1  0
 24 25  1  1
 25 26  2  0
 25 27  1  0
 27 28  1  0
 28 29  1  0
 29 30  1  0
 24 31  1  0
 31 32  1  0
 32  2  1  0
 18  3  1  0
 32 24  1  0
 15  9  1  0
 30 27  1  0
  1 33  1  0
  1 34  1  0
  1 35  1  0
  4 36  1  0
  6 37  1  0
 10 38  1  0
 11 39  1  0
 14 40  1  0
 16 41  1  0
 17 42  1  0
 22 43  1  0
 22 44  1  0
 28 45  1  0
 28 46  1  0
 29 47  1  0
 29 48  1  0
 30 49  1  0
 30 50  1  0
 31 51  1  0
 31 52  1  0
 32 53  1  1
M  END
$$$$
