@<TRIPOS>MOLECULE
*****
 53 57 0 0 0
SMALL
GASTEIGER

@<TRIPOS>ATOM
      1 C          -0.7878   -2.1800    2.6963 C.3     1  UNL1       -0.0351
      2 C          -0.9053   -1.1776    1.5189 C.3     1  UNL1        0.0935
      3 C           0.0401   -1.7024    0.5111 C.ar    1  UNL1        0.0158
      4 C           1.1780   -0.9935    0.2293 C.ar    1  UNL1       -0.0463
      5 C           2.1028   -1.4321   -0.7170 C.ar    1  UNL1       -0.0217
      6 C           3.3174   -0.6873   -1.0220 C.2     1  UNL1       -0.0172
      7 C           4.0382   -0.0509   -0.1237 C.2     1  UNL1        0.1492
      8 F           3.6609   -0.0666    1.1707 F       1  UNL1       -0.2032
      9 C           5.2551    0.6823   -0.5130 C.ar    1  UNL1        0.0990
     10 C           6.0102    1.3441    0.4240 C.ar    1  UNL1       -0.0321
     11 C           7.1571    2.0329    0.0392 C.ar    1  UNL1       -0.0398
     12 C           7.5372    2.0544   -1.2697 C.ar    1  UNL1        0.0591
     13 CL          8.9878    2.9218   -1.7794 Cl      1  UNL1       -0.0820
     14 C           6.7627    1.3826   -2.1910 C.ar    1  UNL1        0.0466
     15 N           5.6591    0.7244   -1.7940 N.ar    1  UNL1       -0.2512
     16 C           1.8655   -2.5952   -1.3760 C.ar    1  UNL1       -0.0518
     17 C           0.7242   -3.3153   -1.0995 C.ar    1  UNL1       -0.0255
     18 C          -0.1971   -2.8728   -0.1526 C.ar    1  UNL1        0.1289
     19 F          -1.3013   -3.6441    0.0752 F       1  UNL1       -0.2051
     20 N          -0.4098    0.0572    2.0688 N.2     1  UNL1       -0.2521
     21 C          -0.5315    1.2060    1.5249 C.2     1  UNL1        0.1485
     22 N          -0.0754    2.4310    2.0028 N.pl3   1  UNL1       -0.3380
     23 S          -1.4295    1.1868   -0.0510 S.3     1  UNL1       -0.0746
     24 C          -2.7832   -0.0081    0.2758 C.3     1  UNL1        0.1054
     25 C          -4.0226    0.6402    0.7230 C.2     1  UNL1        0.2324
     26 O          -4.0889    0.9070    1.9657 O.2     1  UNL1       -0.2741
     27 N          -5.1006    0.9648   -0.1449 N.am    1  UNL1       -0.3002
     28 C          -6.3929    1.5883    0.0418 C.3     1  UNL1        0.0161
     29 C          -6.3943    1.9778   -1.3999 C.3     1  UNL1       -0.0213
     30 C          -5.4144    0.8370   -1.5508 C.3     1  UNL1        0.0161
     31 C          -2.7021   -1.3026   -0.3647 C.3     1  UNL1       -0.0220
     32 C          -2.3213   -1.1670    1.0565 C.3     1  UNL1        0.0134
     33 H          -1.4824   -1.9044    3.4905 H       1  UNL1        0.0256
     34 H          -1.0329   -3.1942    2.3643 H       1  UNL1        0.0256
     35 H           0.2698   -2.1904    3.0238 H       1  UNL1        0.0256
     36 H           1.4214   -0.0614    0.7195 H       1  UNL1        0.0628
     37 H           3.7005   -0.6211   -2.0538 H       1  UNL1        0.0653
     38 H           5.7074    1.3235    1.4456 H       1  UNL1        0.0640
     39 H           7.7748    2.5671    0.7658 H       1  UNL1        0.0633
     40 H           7.0341    1.3787   -3.2361 H       1  UNL1        0.0844
     41 H           2.5906   -2.9518   -2.1267 H       1  UNL1        0.0624
     42 H           0.5383   -4.2492   -1.6322 H       1  UNL1        0.0646
     43 H           0.6847    2.9354    1.5104 H       1  UNL1        0.1442
     44 H          -0.4817    2.8618    2.8535 H       1  UNL1        0.1442
     45 H          -6.3676    2.4983    0.6976 H       1  UNL1        0.0465
     46 H          -7.2168    0.9112    0.3402 H       1  UNL1        0.0465
     47 H          -6.0113    2.9717   -1.6627 H       1  UNL1        0.0295
     48 H          -7.3676    1.8057   -1.9046 H       1  UNL1        0.0295
     49 H          -4.6056    1.1132   -2.2534 H       1  UNL1        0.0465
     50 H          -5.9717   -0.0841   -1.8233 H       1  UNL1        0.0465
     51 H          -3.6318   -1.8569   -0.6299 H       1  UNL1        0.0287
     52 H          -1.9428   -1.3851   -1.1924 H       1  UNL1        0.0287
     53 H          -3.0478   -1.6110    1.7751 H       1  UNL1        0.0346
@<TRIPOS>BOND
     1     2     1    1
     2     2     3    1
     3     3     4   ar
     4     4     5   ar
     5     5     6    1
     6     6     7    2
     7     7     8    1
     8     7     9    1
     9     9    10   ar
    10    10    11   ar
    11    11    12   ar
    12    12    13    1
    13    12    14   ar
    14    14    15   ar
    15     5    16   ar
    16    16    17   ar
    17    17    18   ar
    18    18    19    1
    19     2    20    1
    20    20    21    2
    21    21    22    1
    22    21    23    1
    23    23    24    1
    24    24    25    1
    25    25    26    2
    26    25    27   am
    27    27    28    1
    28    28    29    1
    29    29    30    1
    30    24    31    1
    31    31    32    1
    32    32     2    1
    33    18     3   ar
    34    32    24    1
    35    15     9   ar
    36    30    27    1
    37     1    33    1
    38     1    34    1
    39     1    35    1
    40     4    36    1
    41     6    37    1
    42    10    38    1
    43    11    39    1
    44    14    40    1
    45    16    41    1
    46    17    42    1
    47    22    43    1
    48    22    44    1
    49    28    45    1
    50    28    46    1
    51    29    47    1
    52    29    48    1
    53    30    49    1
    54    30    50    1
    55    31    51    1
    56    31    52    1
    57    32    53    1
