
     RDKit          3D

 34 36  0  0  0  0  0  0  0  0999 V2000
   -0.9743   -0.7526   -1.8092 O   0  0  0  0  0  0  0  0  0  0  0  0
   -0.0259   -0.5852   -0.7285 C   0  0  0  0  0  0  0  0  0  0  0  0
    1.2330   -1.0552   -1.3473 C   0  0  0  0  0  0  0  0  0  0  0  0
    2.4404   -1.0426   -0.6077 N   0  0  0  0  0  0  0  0  0  0  0  0
    3.4014   -0.0849   -0.5312 C   0  0  0  0  0  0  0  0  0  0  0  0
    4.4178   -0.4574    0.3006 N   0  0  0  0  0  0  0  0  0  0  0  0
    4.0662   -1.6812    0.7460 C   0  0  0  0  0  0  0  0  0  0  0  0
    2.8931   -1.9989    0.1912 N   0  0  0  0  0  0  0  0  0  0  0  0
   -0.4895   -1.5696    0.3184 C   0  0  0  0  0  0  0  0  0  0  0  0
   -1.8486   -1.3030    0.7756 N   0  0  0  0  0  0  0  0  0  0  0  0
   -2.9784   -1.8079    0.2398 C   0  0  0  0  0  0  0  0  0  0  0  0
   -4.0283   -1.3222    0.9457 N   0  0  0  0  0  0  0  0  0  0  0  0
   -3.5071   -0.5290    1.8991 C   0  0  0  0  0  0  0  0  0  0  0  0
   -2.1523   -0.5140    1.7973 N   0  0  0  0  0  0  0  0  0  0  0  0
   -0.1741    0.8031   -0.3472 C   0  0  0  0  0  0  0  0  0  0  0  0
    0.4688    1.4828    0.6753 C   0  0  0  0  0  0  0  0  0  0  0  0
    1.2814    0.7787    1.4848 F   0  0  0  0  0  0  0  0  0  0  0  0
    0.3509    2.7978    1.0009 C   0  0  0  0  0  0  0  0  0  0  0  0
   -0.4916    3.5956    0.2653 C   0  0  0  0  0  0  0  0  0  0  0  0
   -0.6580    4.8950    0.5263 F   0  0  0  0  0  0  0  0  0  0  0  0
   -1.1959    3.0451   -0.7830 C   0  0  0  0  0  0  0  0  0  0  0  0
   -1.0086    1.7041   -1.0350 C   0  0  0  0  0  0  0  0  0  0  0  0
   -1.1965   -1.7171   -1.8743 H   0  0  0  0  0  0  0  0  0  0  0  0
    1.3547   -0.6304   -2.3890 H   0  0  0  0  0  0  0  0  0  0  0  0
    1.0427   -2.1509   -1.5947 H   0  0  0  0  0  0  0  0  0  0  0  0
    3.2870    0.8392   -1.1030 H   0  0  0  0  0  0  0  0  0  0  0  0
    4.6174   -2.3162    1.4318 H   0  0  0  0  0  0  0  0  0  0  0  0
   -0.5059   -2.5662   -0.2116 H   0  0  0  0  0  0  0  0  0  0  0  0
    0.1476   -1.5902    1.2086 H   0  0  0  0  0  0  0  0  0  0  0  0
   -3.0858   -2.4924   -0.6136 H   0  0  0  0  0  0  0  0  0  0  0  0
   -4.1029    0.0019    2.6214 H   0  0  0  0  0  0  0  0  0  0  0  0
    0.8800    3.2673    1.8083 H   0  0  0  0  0  0  0  0  0  0  0  0
   -1.8609    3.6377   -1.3759 H   0  0  0  0  0  0  0  0  0  0  0  0
   -1.5978    1.3184   -1.8852 H   0  0  0  0  0  0  0  0  0  0  0  0
  1  2  1  0
  2  3  1  0
  3  4  1  0
  4  5  1  0
  5  6  2  0
  6  7  1  0
  7  8  2  0
  2  9  1  0
  9 10  1  0
 10 11  1  0
 11 12  2  0
 12 13  1  0
 13 14  2  0
  2 15  1  0
 15 16  2  0
 16 17  1  0
 16 18  1  0
 18 19  2  0
 19 20  1  0
 19 21  1  0
 21 22  2  0
  8  4  1  0
 14 10  1  0
 22 15  1  0
  1 23  1  0
  3 24  1  0
  3 25  1  0
  5 26  1  0
  7 27  1  0
  9 28  1  0
  9 29  1  0
 11 30  1  0
 13 31  1  0
 18 32  1  0
 21 33  1  0
 22 34  1  0
M  END
$$$$
