
     RDKit          3D

 61 64  0  0  0  0  0  0  0  0999 V2000
    3.8405    2.2868   -1.1605 C   0  0  0  0  0  0  0  0  0  0  0  0
    5.2051    2.2204   -0.5138 C   0  0  0  0  0  0  0  0  0  0  0  0
    5.2033    0.9812    0.3973 C   0  0  1  0  0  0  0  0  0  0  0  0
    4.9591   -0.1309   -0.4006 O   0  0  0  0  0  0  0  0  0  0  0  0
    3.8915   -0.9923   -0.3622 C   0  0  0  0  0  0  0  0  0  0  0  0
    3.8914   -2.0320   -1.2864 C   0  0  0  0  0  0  0  0  0  0  0  0
    2.8528   -2.9429   -1.3133 C   0  0  0  0  0  0  0  0  0  0  0  0
    1.7972   -2.8165   -0.4054 C   0  0  0  0  0  0  0  0  0  0  0  0
    1.8195   -1.7830    0.4959 C   0  0  0  0  0  0  0  0  0  0  0  0
    0.7157   -1.6218    1.4835 C   0  0  0  0  0  0  0  0  0  0  0  0
   -0.3807   -0.8715    0.8760 N   0  0  0  0  0  0  0  0  0  0  0  0
   -0.4764    0.4389    0.8751 C   0  0  0  0  0  0  0  0  0  0  0  0
    0.4407    1.4562    1.4574 C   0  0  0  0  0  0  0  0  0  0  0  0
   -1.6704    0.7570    0.2014 C   0  0  0  0  0  0  0  0  0  0  0  0
   -2.0922    2.1077   -0.0305 C   0  0  0  0  0  0  0  0  0  0  0  0
   -1.2196    3.0467   -0.1400 O   0  0  0  0  0  0  0  0  0  0  0  0
   -3.4549    2.5443   -0.1539 C   0  0  0  0  0  0  0  0  0  0  0  0
   -3.7763    3.6099   -0.9917 C   0  0  0  0  0  0  0  0  0  0  0  0
   -5.0588    4.0590   -1.0658 C   0  0  0  0  0  0  0  0  0  0  0  0
   -6.0978    3.5231   -0.3526 C   0  0  0  0  0  0  0  0  0  0  0  0
   -7.7032    4.1754   -0.5233 Cl  0  0  0  0  0  0  0  0  0  0  0  0
   -5.8028    2.4648    0.4854 C   0  0  0  0  0  0  0  0  0  0  0  0
   -4.5030    2.0017    0.5673 C   0  0  0  0  0  0  0  0  0  0  0  0
   -2.2850   -0.4140   -0.2020 C   0  0  0  0  0  0  0  0  0  0  0  0
   -3.4360   -0.7195   -0.8900 C   0  0  0  0  0  0  0  0  0  0  0  0
   -3.7874   -2.0193   -1.1515 C   0  0  0  0  0  0  0  0  0  0  0  0
   -2.9640   -3.0323   -0.7130 C   0  0  0  0  0  0  0  0  0  0  0  0
   -3.2825   -4.3766   -0.9550 O   0  0  0  0  0  0  0  0  0  0  0  0
   -4.0755   -5.0075    0.0614 C   0  0  0  0  0  0  0  0  0  0  0  0
   -5.2475   -4.2852    0.1326 F   0  0  0  0  0  0  0  0  0  0  0  0
   -3.3707   -4.8149    1.2510 F   0  0  0  0  0  0  0  0  0  0  0  0
   -4.2657   -6.3310   -0.2023 F   0  0  0  0  0  0  0  0  0  0  0  0
   -1.8138   -2.7273   -0.0284 C   0  0  0  0  0  0  0  0  0  0  0  0
   -1.4463   -1.4418    0.2401 C   0  0  0  0  0  0  0  0  0  0  0  0
    2.8647   -0.8515    0.5368 C   0  0  0  0  0  0  0  0  0  0  0  0
    6.5028    0.8941    1.1078 C   0  0  0  0  0  0  0  0  0  0  0  0
    6.8557    1.8220    1.8641 O   0  0  0  0  0  0  0  0  0  0  0  0
    7.3125   -0.2067    0.9308 O   0  0  0  0  0  0  0  0  0  0  0  0
    3.8647    2.8849   -2.1077 H   0  0  0  0  0  0  0  0  0  0  0  0
    3.1120    2.7442   -0.4454 H   0  0  0  0  0  0  0  0  0  0  0  0
    3.5215    1.2413   -1.3541 H   0  0  0  0  0  0  0  0  0  0  0  0
    5.9514    1.9970   -1.3163 H   0  0  0  0  0  0  0  0  0  0  0  0
    5.4619    3.1241    0.0403 H   0  0  0  0  0  0  0  0  0  0  0  0
    4.4032    1.1997    1.1453 H   0  0  0  0  0  0  0  0  0  0  0  0
    4.6940   -2.1582   -2.0037 H   0  0  0  0  0  0  0  0  0  0  0  0
    2.8139   -3.7698   -2.0191 H   0  0  0  0  0  0  0  0  0  0  0  0
    0.9910   -3.5264   -0.4223 H   0  0  0  0  0  0  0  0  0  0  0  0
    0.3975   -2.6235    1.8224 H   0  0  0  0  0  0  0  0  0  0  0  0
    1.0722   -1.0853    2.3993 H   0  0  0  0  0  0  0  0  0  0  0  0
   -0.0879    2.3772    1.7790 H   0  0  0  0  0  0  0  0  0  0  0  0
    0.9776    1.0032    2.3284 H   0  0  0  0  0  0  0  0  0  0  0  0
    1.2291    1.7787    0.7466 H   0  0  0  0  0  0  0  0  0  0  0  0
   -2.9915    4.0842   -1.5899 H   0  0  0  0  0  0  0  0  0  0  0  0
   -5.2416    4.9036   -1.7469 H   0  0  0  0  0  0  0  0  0  0  0  0
   -6.6221    2.0459    1.0446 H   0  0  0  0  0  0  0  0  0  0  0  0
   -4.3153    1.1566    1.2481 H   0  0  0  0  0  0  0  0  0  0  0  0
   -4.0608    0.0565   -1.2526 H   0  0  0  0  0  0  0  0  0  0  0  0
   -4.6801   -2.3109   -1.6863 H   0  0  0  0  0  0  0  0  0  0  0  0
   -1.2096   -3.5342    0.3049 H   0  0  0  0  0  0  0  0  0  0  0  0
    2.8425   -0.0564    1.2729 H   0  0  0  0  0  0  0  0  0  0  0  0
    7.9349   -0.5031    1.6910 H   0  0  0  0  0  0  0  0  0  0  0  0
  1  2  1  0
  2  3  1  0
  3  4  1  0
  4  5  1  0
  5  6  2  0
  6  7  1  0
  7  8  2  0
  8  9  1  0
  9 10  1  0
 10 11  1  0
 11 12  1  0
 12 13  1  0
 12 14  2  0
 14 15  1  0
 15 16  2  0
 15 17  1  0
 17 18  2  0
 18 19  1  0
 19 20  2  0
 20 21  1  0
 20 22  1  0
 22 23  2  0
 14 24  1  0
 24 25  2  0
 25 26  1  0
 26 27  2  0
 27 28  1  0
 28 29  1  0
 29 30  1  0
 29 31  1  0
 29 32  1  0
 27 33  1  0
 33 34  2  0
  9 35  2  0
  3 36  1  0
 36 37  2  0
 36 38  1  0
 35  5  1  0
 34 11  1  0
 23 17  1  0
 34 24  1  0
  1 39  1  0
  1 40  1  0
  1 41  1  0
  2 42  1  0
  2 43  1  0
  3 44  1  1
  6 45  1  0
  7 46  1  0
  8 47  1  0
 10 48  1  0
 10 49  1  0
 13 50  1  0
 13 51  1  0
 13 52  1  0
 18 53  1  0
 19 54  1  0
 22 55  1  0
 23 56  1  0
 25 57  1  0
 26 58  1  0
 33 59  1  0
 35 60  1  0
 38 61  1  0
M  END
$$$$
