@<TRIPOS>MOLECULE
*****
 61 64 0 0 0
SMALL
GASTEIGER

@<TRIPOS>ATOM
      1 C           3.8405    2.2868   -1.1605 C.3     1  UNL1       -0.0614
      2 C           5.2051    2.2204   -0.5138 C.3     1  UNL1       -0.0080
      3 C           5.2033    0.9812    0.3973 C.3     1  UNL1        0.1956
      4 O           4.9591   -0.1309   -0.4006 O.3     1  UNL1       -0.4776
      5 C           3.8915   -0.9923   -0.3622 C.ar    1  UNL1        0.1220
      6 C           3.8914   -2.0320   -1.2864 C.ar    1  UNL1       -0.0199
      7 C           2.8528   -2.9429   -1.3133 C.ar    1  UNL1       -0.0580
      8 C           1.7972   -2.8165   -0.4054 C.ar    1  UNL1       -0.0566
      9 C           1.8195   -1.7830    0.4959 C.ar    1  UNL1       -0.0243
     10 C           0.7157   -1.6218    1.4835 C.3     1  UNL1        0.0487
     11 N          -0.3807   -0.8715    0.8760 N.ar    1  UNL1       -0.3389
     12 C          -0.4764    0.4389    0.8751 C.ar    1  UNL1        0.0279
     13 C           0.4407    1.4562    1.4574 C.3     1  UNL1       -0.0235
     14 C          -1.6704    0.7570    0.2014 C.ar    1  UNL1        0.0504
     15 C          -2.0922    2.1077   -0.0305 C.2     1  UNL1        0.1954
     16 O          -1.2196    3.0467   -0.1400 O.2     1  UNL1       -0.2866
     17 C          -3.4549    2.5443   -0.1539 C.ar    1  UNL1        0.0224
     18 C          -3.7763    3.6099   -0.9917 C.ar    1  UNL1       -0.0495
     19 C          -5.0588    4.0590   -1.0658 C.ar    1  UNL1       -0.0427
     20 C          -6.0978    3.5231   -0.3526 C.ar    1  UNL1        0.0410
     21 CL         -7.7032    4.1754   -0.5233 Cl      1  UNL1       -0.0835
     22 C          -5.8028    2.4648    0.4854 C.ar    1  UNL1       -0.0427
     23 C          -4.5030    2.0017    0.5673 C.ar    1  UNL1       -0.0495
     24 C          -2.2850   -0.4140   -0.2020 C.ar    1  UNL1        0.0112
     25 C          -3.4360   -0.7195   -0.8900 C.ar    1  UNL1       -0.0484
     26 C          -3.7874   -2.0193   -1.1515 C.ar    1  UNL1       -0.0189
     27 C          -2.9640   -3.0323   -0.7130 C.ar    1  UNL1        0.1320
     28 O          -3.2825   -4.3766   -0.9550 O.3     1  UNL1       -0.4057
     29 C          -4.0755   -5.0075    0.0614 C.3     1  UNL1        0.5752
     30 F          -5.2475   -4.2852    0.1326 F       1  UNL1       -0.1328
     31 F          -3.3707   -4.8149    1.2510 F       1  UNL1       -0.1328
     32 F          -4.2657   -6.3310   -0.2023 F       1  UNL1       -0.1328
     33 C          -1.8138   -2.7273   -0.0284 C.ar    1  UNL1        0.0045
     34 C          -1.4463   -1.4418    0.2401 C.ar    1  UNL1        0.0537
     35 C           2.8647   -0.8515    0.5368 C.ar    1  UNL1       -0.0150
     36 C           6.5028    0.8941    1.1078 C.2     1  UNL1        0.3459
     37 O           6.8557    1.8220    1.8641 O.2     1  UNL1       -0.2468
     38 O           7.3125   -0.2067    0.9308 O.3     1  UNL1       -0.4781
     39 H           3.8647    2.8849   -2.1077 H       1  UNL1        0.0231
     40 H           3.1120    2.7442   -0.4454 H       1  UNL1        0.0231
     41 H           3.5215    1.2413   -1.3541 H       1  UNL1        0.0231
     42 H           5.9514    1.9970   -1.3163 H       1  UNL1        0.0304
     43 H           5.4619    3.1241    0.0403 H       1  UNL1        0.0304
     44 H           4.4032    1.1997    1.1453 H       1  UNL1        0.0851
     45 H           4.6940   -2.1582   -2.0037 H       1  UNL1        0.0654
     46 H           2.8139   -3.7698   -2.0191 H       1  UNL1        0.0619
     47 H           0.9910   -3.5264   -0.4223 H       1  UNL1        0.0621
     48 H           0.3975   -2.6235    1.8224 H       1  UNL1        0.0541
     49 H           1.0722   -1.0853    2.3993 H       1  UNL1        0.0541
     50 H          -0.0879    2.3772    1.7790 H       1  UNL1        0.0292
     51 H           0.9776    1.0032    2.3284 H       1  UNL1        0.0292
     52 H           1.2291    1.7787    0.7466 H       1  UNL1        0.0292
     53 H          -2.9915    4.0842   -1.5899 H       1  UNL1        0.0625
     54 H          -5.2416    4.9036   -1.7469 H       1  UNL1        0.0632
     55 H          -6.6221    2.0459    1.0446 H       1  UNL1        0.0632
     56 H          -4.3153    1.1566    1.2481 H       1  UNL1        0.0625
     57 H          -4.0608    0.0565   -1.2526 H       1  UNL1        0.0625
     58 H          -4.6801   -2.3109   -1.6863 H       1  UNL1        0.0654
     59 H          -1.2096   -3.5342    0.3049 H       1  UNL1        0.0675
     60 H           2.8425   -0.0564    1.2729 H       1  UNL1        0.0657
     61 H           7.9349   -0.5031    1.6910 H       1  UNL1        0.2952
@<TRIPOS>BOND
     1     1     2    1
     2     2     3    1
     3     3     4    1
     4     4     5    1
     5     5     6   ar
     6     6     7   ar
     7     7     8   ar
     8     8     9   ar
     9     9    10    1
    10    10    11    1
    11    11    12   ar
    12    12    13    1
    13    12    14   ar
    14    14    15    1
    15    15    16    2
    16    15    17    1
    17    17    18   ar
    18    18    19   ar
    19    19    20   ar
    20    20    21    1
    21    20    22   ar
    22    22    23   ar
    23    14    24   ar
    24    24    25   ar
    25    25    26   ar
    26    26    27   ar
    27    27    28    1
    28    28    29    1
    29    29    30    1
    30    29    31    1
    31    29    32    1
    32    27    33   ar
    33    33    34   ar
    34     9    35   ar
    35     3    36    1
    36    36    37    2
    37    36    38    1
    38    35     5   ar
    39    34    11   ar
    40    23    17   ar
    41    34    24   ar
    42     1    39    1
    43     1    40    1
    44     1    41    1
    45     2    42    1
    46     2    43    1
    47     3    44    1
    48     6    45    1
    49     7    46    1
    50     8    47    1
    51    10    48    1
    52    10    49    1
    53    13    50    1
    54    13    51    1
    55    13    52    1
    56    18    53    1
    57    19    54    1
    58    22    55    1
    59    23    56    1
    60    25    57    1
    61    26    58    1
    62    33    59    1
    63    35    60    1
    64    38    61    1
