
     RDKit          3D

 32 32  0  0  0  0  0  0  0  0999 V2000
    1.7725   -1.4529    0.7103 C   0  0  0  0  0  0  0  0  0  0  0  0
    0.7107   -0.6576   -0.0316 C   0  0  2  0  0  0  0  0  0  0  0  0
    1.4009    0.0942   -1.0016 O   0  0  0  0  0  0  0  0  0  0  0  0
    2.5209    1.1309   -0.2908 P   0  0  0  0  0  0  0  0  0  0  0  0
    2.6684    2.5902   -1.1499 O   0  0  0  0  0  0  0  0  0  0  0  0
    4.0796    0.4235   -0.3199 O   0  0  0  0  0  0  0  0  0  0  0  0
    2.1538    1.5166    1.1265 O   0  0  0  0  0  0  0  0  0  0  0  0
    0.0598    0.2388    0.7928 O   0  0  0  0  0  0  0  0  0  0  0  0
   -0.8844    0.9068    0.0164 C   0  0  2  0  0  0  0  0  0  0  0  0
   -1.4490    2.1127    0.7343 C   0  0  0  0  0  0  0  0  0  0  0  0
   -2.3879    2.7235   -0.1165 O   0  0  0  0  0  0  0  0  0  0  0  0
   -2.0386   -0.0402   -0.2007 C   0  0  1  0  0  0  0  0  0  0  0  0
   -2.9149    0.4429   -1.1981 O   0  0  0  0  0  0  0  0  0  0  0  0
   -1.6459   -1.4485   -0.4560 C   0  0  2  0  0  0  0  0  0  0  0  0
   -2.1180   -2.3158    0.5386 O   0  0  0  0  0  0  0  0  0  0  0  0
   -0.1785   -1.6488   -0.7170 C   0  0  1  0  0  0  0  0  0  0  0  0
    0.0854   -1.6486   -2.1027 O   0  0  0  0  0  0  0  0  0  0  0  0
    2.1600   -2.1782   -0.0340 H   0  0  0  0  0  0  0  0  0  0  0  0
    1.2357   -2.0082    1.5224 H   0  0  0  0  0  0  0  0  0  0  0  0
    2.6022   -0.8476    1.0638 H   0  0  0  0  0  0  0  0  0  0  0  0
    3.4732    3.0442   -0.7432 H   0  0  0  0  0  0  0  0  0  0  0  0
    4.5207    0.5665   -1.1893 H   0  0  0  0  0  0  0  0  0  0  0  0
   -0.4570    1.1858   -0.9463 H   0  0  0  0  0  0  0  0  0  0  0  0
   -1.9573    1.8109    1.6632 H   0  0  0  0  0  0  0  0  0  0  0  0
   -0.6489    2.8718    0.9134 H   0  0  0  0  0  0  0  0  0  0  0  0
   -3.3206    2.4621    0.1674 H   0  0  0  0  0  0  0  0  0  0  0  0
   -2.6438   -0.0198    0.7518 H   0  0  0  0  0  0  0  0  0  0  0  0
   -3.3570   -0.3800   -1.5787 H   0  0  0  0  0  0  0  0  0  0  0  0
   -2.1647   -1.7978   -1.3900 H   0  0  0  0  0  0  0  0  0  0  0  0
   -1.4090   -2.4114    1.2125 H   0  0  0  0  0  0  0  0  0  0  0  0
    0.0214   -2.7062   -0.3956 H   0  0  0  0  0  0  0  0  0  0  0  0
    0.1100   -2.5598   -2.4863 H   0  0  0  0  0  0  0  0  0  0  0  0
  1  2  1  0
  2  3  1  6
  3  4  1  0
  4  5  1  0
  4  6  1  0
  4  7  2  0
  2  8  1  0
  8  9  1  0
  9 10  1  0
 10 11  1  0
  9 12  1  0
 12 13  1  0
 12 14  1  0
 14 15  1  0
 14 16  1  0
 16 17  1  0
 16  2  1  0
  1 18  1  0
  1 19  1  0
  1 20  1  0
  5 21  1  0
  6 22  1  0
  9 23  1  6
 10 24  1  0
 10 25  1  0
 11 26  1  0
 12 27  1  1
 13 28  1  0
 14 29  1  6
 15 30  1  0
 16 31  1  1
 17 32  1  0
M  END
$$$$
