@<TRIPOS>MOLECULE
*****
 208 214 0 0 0
SMALL
GASTEIGER

@<TRIPOS>ATOM
      1 C          -7.5153   -0.0501   -0.6633 C.3     1  UNL1       -0.0181
      2 S          -6.9442    1.1129    0.5735 S.3     1  UNL1       -0.1641
      3 C          -7.3748    2.8540    0.1663 C.3     1  UNL1       -0.0044
      4 C          -6.6457    3.3354   -1.0596 C.3     1  UNL1       -0.0170
      5 C          -6.9711    4.8063   -1.3074 C.3     1  UNL1        0.0999
      6 N          -6.2472    5.2447   -2.5023 N.am    1  UNL1       -0.3025
      7 C          -4.9043    5.6063   -2.5006 C.2     1  UNL1        0.2340
      8 O          -4.2769    5.5272   -1.3813 O.2     1  UNL1       -0.2738
      9 C          -4.1090    6.0668   -3.6923 C.3     1  UNL1        0.0996
     10 C          -4.9099    6.4348   -4.8803 C.3     1  UNL1       -0.0236
     11 C          -5.8006    7.6346   -4.5359 C.3     1  UNL1       -0.0446
     12 C          -4.9202    8.8183   -4.1393 C.3     1  UNL1       -0.0626
     13 C          -6.5965    8.0257   -5.7479 C.3     1  UNL1       -0.0626
     14 N          -2.9681    5.2882   -3.7702 N.am    1  UNL1       -0.3025
     15 C          -1.5711    5.7253   -3.8969 C.2     1  UNL1        0.2342
     16 O          -1.4189    6.9241   -4.0025 O.2     1  UNL1       -0.2738
     17 C          -0.5756    4.6800   -3.8580 C.3     1  UNL1        0.1023
     18 C          -0.7300    4.2545   -2.2968 C.3     1  UNL1       -0.0243
     19 C          -0.2444    5.5721   -1.7235 C.3     1  UNL1       -0.0350
     20 C           0.8342    6.0155   -2.7322 C.3     1  UNL1        0.0156
     21 N           0.8312    4.9439   -3.6920 N.am    1  UNL1       -0.2884
     22 C           1.8803    4.1446   -4.1789 C.2     1  UNL1        0.2374
     23 O           1.6269    3.3080   -5.0943 O.2     1  UNL1       -0.2735
     24 C           3.2477    4.1902   -3.6642 C.3     1  UNL1        0.1104
     25 N           3.4703    2.7752   -3.2283 N.am    1  UNL1       -0.3016
     26 C           2.9497    2.4381   -1.9571 C.2     1  UNL1        0.2343
     27 O           2.3868    3.4346   -1.3387 O.2     1  UNL1       -0.2738
     28 C           2.9194    1.1892   -1.2189 C.3     1  UNL1        0.1034
     29 C           2.4300   -0.0125   -1.9152 C.3     1  UNL1       -0.0007
     30 C           1.0861   -0.0568   -2.4479 C.ar    1  UNL1       -0.0451
     31 C           0.0148   -0.5073   -1.6946 C.ar    1  UNL1       -0.0585
     32 C          -1.2735   -0.5884   -2.2253 C.ar    1  UNL1       -0.0615
     33 C          -1.4927   -0.2059   -3.5449 C.ar    1  UNL1       -0.0617
     34 C          -0.4490    0.2474   -4.3148 C.ar    1  UNL1       -0.0615
     35 C           0.8169    0.3102   -3.7437 C.ar    1  UNL1       -0.0585
     36 N           2.2112    1.4765    0.0552 N.am    1  UNL1       -0.3022
     37 C           2.5270    0.9409    1.2817 C.2     1  UNL1        0.2340
     38 O           3.4440    0.0982    1.3995 O.2     1  UNL1       -0.2738
     39 C           1.7994    1.3326    2.5685 C.3     1  UNL1        0.0999
     40 C           2.7644    2.2512    3.2727 C.3     1  UNL1       -0.0177
     41 C           2.4310    2.8463    4.5658 C.3     1  UNL1        0.0259
     42 C           2.3459    1.9599    5.7316 C.2     1  UNL1        0.2106
     43 N           1.5669    2.3533    6.8467 N.am    1  UNL1       -0.3293
     44 O           2.9490    0.8666    5.7620 O.2     1  UNL1       -0.2760
     45 N           1.4649    0.1697    3.2910 N.am    1  UNL1       -0.3025
     46 C           0.3747    0.0935    4.2208 C.2     1  UNL1        0.2340
     47 O          -0.3012    1.1104    4.4807 O.2     1  UNL1       -0.2738
     48 C           0.0351   -1.1870    4.8919 C.3     1  UNL1        0.0999
     49 C          -1.3183   -0.9221    5.6038 C.3     1  UNL1       -0.0177
     50 C          -1.7279   -2.1110    6.3584 C.3     1  UNL1        0.0259
     51 C          -1.9734   -3.3354    5.6124 C.2     1  UNL1        0.2106
     52 N          -2.3641   -4.5190    6.2873 N.am    1  UNL1       -0.3293
     53 O          -1.8613   -3.4309    4.3371 O.2     1  UNL1       -0.2760
     54 N           0.9618   -1.6906    5.8529 N.am    1  UNL1       -0.3025
     55 C           1.7563   -2.8046    5.3633 C.2     1  UNL1        0.2342
     56 O           1.5643   -3.1550    4.1729 O.2     1  UNL1       -0.2738
     57 C           2.7286   -3.4977    6.2002 C.3     1  UNL1        0.1023
     58 C           3.6393   -2.5432    6.8837 C.3     1  UNL1       -0.0243
     59 C           4.9931   -3.2536    6.7694 C.3     1  UNL1       -0.0350
     60 C           4.9043   -3.9287    5.4357 C.3     1  UNL1        0.0156
     61 N           3.4965   -4.4136    5.3757 N.am    1  UNL1       -0.2884
     62 C           3.1426   -5.5316    4.6132 C.2     1  UNL1        0.2365
     63 O           4.1365   -6.1071    3.9801 O.2     1  UNL1       -0.2735
     64 C           1.8666   -6.1669    4.3962 C.3     1  UNL1        0.0996
     65 C           1.7185   -7.3735    5.3326 C.3     1  UNL1       -0.0259
     66 C           1.7829   -6.9293    6.7689 C.3     1  UNL1       -0.0498
     67 C           1.6033   -8.0829    7.7292 C.3     1  UNL1       -0.0406
     68 C           1.6760   -7.4812    9.1306 C.3     1  UNL1       -0.0069
     69 N           1.4887   -8.4516   10.1609 N.3     1  UNL1       -0.3300
     70 N           1.7797   -6.6554    2.9962 N.am    1  UNL1       -0.3025
     71 C           0.7355   -6.2518    2.1506 C.2     1  UNL1        0.2342
     72 O          -0.1709   -5.4763    2.5403 O.2     1  UNL1       -0.2738
     73 C           0.7055   -6.7562    0.7576 C.3     1  UNL1        0.1023
     74 C           1.8561   -6.2630   -0.0598 C.3     1  UNL1       -0.0243
     75 C           1.3166   -5.9114   -1.4011 C.3     1  UNL1       -0.0350
     76 C          -0.1565   -5.7356   -1.1806 C.3     1  UNL1        0.0156
     77 N          -0.4999   -6.4416    0.0281 N.am    1  UNL1       -0.2886
     78 C          -1.7957   -6.8257    0.4251 C.2     1  UNL1        0.2330
     79 O          -1.8779   -7.3742    1.5858 O.2     1  UNL1       -0.2739
     80 C          -3.0409   -6.6765   -0.3344 C.3     1  UNL1        0.0826
     81 N          -4.1840   -7.2012    0.4022 N.3     1  UNL1       -0.3199
     82 C          -3.3850   -5.2932   -0.7925 C.3     1  UNL1       -0.0263
     83 C          -4.7175   -5.3141   -1.5324 C.3     1  UNL1       -0.0168
     84 C          -5.1535   -3.9822   -2.0498 C.3     1  UNL1        0.1047
     85 N          -6.4611   -4.2157   -2.6882 N.pl3   1  UNL1       -0.1138
     86 C          -6.7668   -3.7489   -3.8431 C.cat   1  UNL1        0.3765
     87 N          -5.8661   -2.9625   -4.6061 N.pl3   1  UNL1       -0.2893
     88 N          -8.0317   -4.0225   -4.4013 N.pl3   1  UNL1       -0.2893
     89 C           4.3539    4.7845   -4.4014 C.3     1  UNL1        0.0372
     90 C           4.5502    4.1661   -5.7348 C.ar    1  UNL1       -0.0300
     91 C           3.7848    4.1858   -6.9053 C.ar    1  UNL1       -0.0573
     92 C           4.1520    3.5324   -8.0534 C.ar    1  UNL1       -0.0614
     93 C           5.3360    2.8065   -8.0891 C.ar    1  UNL1       -0.0612
     94 C           6.0840    2.7828   -6.9630 C.ar    1  UNL1       -0.0537
     95 C           5.7221    3.4433   -5.7880 C.ar    1  UNL1       -0.0138
     96 C           6.3980    3.5752   -4.5107 C.ar    1  UNL1       -0.0138
     97 C           7.5935    3.0523   -4.0729 C.ar    1  UNL1       -0.0537
     98 C           8.0657    3.3207   -2.7827 C.ar    1  UNL1       -0.0612
     99 C           7.3021    4.1162   -1.9756 C.ar    1  UNL1       -0.0614
    100 C           6.1038    4.6291   -2.4403 C.ar    1  UNL1       -0.0573
    101 C           5.6381    4.3713   -3.6965 C.ar    1  UNL1       -0.0300
    102 C          -8.3908    4.9824   -1.5160 C.2     1  UNL1        0.2308
    103 N          -9.4580    4.7273   -0.6196 N.am    1  UNL1       -0.3278
    104 O          -8.7718    5.4373   -2.6662 O.2     1  UNL1       -0.2740
    105 H          -8.0747    0.3761   -1.4933 H       1  UNL1        0.0340
    106 H          -6.5935   -0.5398   -1.1028 H       1  UNL1        0.0340
    107 H          -8.0855   -0.9219   -0.2199 H       1  UNL1        0.0340
    108 H          -8.4879    2.7926   -0.0292 H       1  UNL1        0.0377
    109 H          -7.1335    3.4218    1.0666 H       1  UNL1        0.0377
    110 H          -5.5595    3.2191   -0.8233 H       1  UNL1        0.0296
    111 H          -6.8444    2.7010   -1.9444 H       1  UNL1        0.0296
    112 H          -6.5115    5.3296   -0.4407 H       1  UNL1        0.0595
    113 H          -6.7900    5.2509   -3.4006 H       1  UNL1        0.1495
    114 H          -3.7713    7.1395   -3.3110 H       1  UNL1        0.0594
    115 H          -5.5400    5.6170   -5.2439 H       1  UNL1        0.0290
    116 H          -4.2002    6.8340   -5.6612 H       1  UNL1        0.0290
    117 H          -6.4474    7.4670   -3.6638 H       1  UNL1        0.0296
    118 H          -5.4601    9.7326   -4.4402 H       1  UNL1        0.0232
    119 H          -4.7268    8.8774   -3.0600 H       1  UNL1        0.0232
    120 H          -3.9668    8.8024   -4.7216 H       1  UNL1        0.0232
    121 H          -7.5646    8.5070   -5.4789 H       1  UNL1        0.0232
    122 H          -6.0022    8.8271   -6.2800 H       1  UNL1        0.0232
    123 H          -6.7077    7.1948   -6.4770 H       1  UNL1        0.0232
    124 H          -3.0624    4.2306   -3.7517 H       1  UNL1        0.1495
    125 H          -0.7577    3.7765   -4.4507 H       1  UNL1        0.0597
    126 H          -0.1462    3.3816   -2.1190 H       1  UNL1        0.0288
    127 H          -1.8168    4.2028   -2.1787 H       1  UNL1        0.0288
    128 H          -1.0969    6.2888   -1.7150 H       1  UNL1        0.0281
    129 H           0.1921    5.3959   -0.7207 H       1  UNL1        0.0281
    130 H           1.8128    6.0126   -2.2089 H       1  UNL1        0.0465
    131 H           0.5724    6.9551   -3.1740 H       1  UNL1        0.0465
    132 H           3.1629    4.7664   -2.6808 H       1  UNL1        0.0604
    133 H           3.9416    2.1115   -3.7722 H       1  UNL1        0.1495
    134 H           3.9644    0.9337   -0.8654 H       1  UNL1        0.0598
    135 H           3.2148   -0.2543   -2.7093 H       1  UNL1        0.0336
    136 H           2.5444   -0.9109   -1.2183 H       1  UNL1        0.0336
    137 H           0.1076   -0.8164   -0.6708 H       1  UNL1        0.0620
    138 H          -2.1266   -0.9450   -1.6525 H       1  UNL1        0.0618
    139 H          -2.4711   -0.2574   -3.9985 H       1  UNL1        0.0618
    140 H          -0.5842    0.5499   -5.3448 H       1  UNL1        0.0618
    141 H           1.6128    0.6769   -4.4156 H       1  UNL1        0.0620
    142 H           1.3859    2.1536    0.0207 H       1  UNL1        0.1495
    143 H           0.9028    1.9246    2.3928 H       1  UNL1        0.0595
    144 H           3.0392    3.1115    2.5662 H       1  UNL1        0.0292
    145 H           3.7718    1.7416    3.3900 H       1  UNL1        0.0292
    146 H           1.3990    3.3166    4.4600 H       1  UNL1        0.0359
    147 H           3.0968    3.7345    4.8179 H       1  UNL1        0.0359
    148 H           1.9109    3.1160    7.4515 H       1  UNL1        0.1449
    149 H           0.6680    1.8958    7.0644 H       1  UNL1        0.1449
    150 H           2.0143   -0.7391    3.1940 H       1  UNL1        0.1495
    151 H          -0.1768   -1.9017    4.0908 H       1  UNL1        0.0595
    152 H          -1.2420   -0.0066    6.2269 H       1  UNL1        0.0292
    153 H          -1.9980   -0.6466    4.7603 H       1  UNL1        0.0292
    154 H          -0.9138   -2.3585    7.1158 H       1  UNL1        0.0359
    155 H          -2.5998   -1.8322    7.0189 H       1  UNL1        0.0359
    156 H          -3.0773   -5.1458    5.8805 H       1  UNL1        0.1449
    157 H          -1.9328   -4.7534    7.1947 H       1  UNL1        0.1449
    158 H           1.0731   -1.3188    6.7964 H       1  UNL1        0.1495
    159 H           2.1210   -4.0790    6.9576 H       1  UNL1        0.0597
    160 H           3.7847   -1.5909    6.3363 H       1  UNL1        0.0288
    161 H           3.3676   -2.3797    7.9315 H       1  UNL1        0.0288
    162 H           5.0807   -3.9746    7.6033 H       1  UNL1        0.0281
    163 H           5.8150   -2.5321    6.8391 H       1  UNL1        0.0281
    164 H           5.0597   -3.2604    4.5856 H       1  UNL1        0.0465
    165 H           5.5421   -4.8181    5.4369 H       1  UNL1        0.0465
    166 H           0.9549   -5.5825    4.5641 H       1  UNL1        0.0594
    167 H           0.7379   -7.8248    5.1094 H       1  UNL1        0.0288
    168 H           2.5114   -8.1104    5.0905 H       1  UNL1        0.0288
    169 H           0.9949   -6.1656    6.9076 H       1  UNL1        0.0266
    170 H           2.7608   -6.4366    7.0049 H       1  UNL1        0.0266
    171 H           2.4211   -8.8173    7.5516 H       1  UNL1        0.0277
    172 H           0.6280   -8.5380    7.5451 H       1  UNL1        0.0277
    173 H           2.7232   -7.0692    9.2827 H       1  UNL1        0.0422
    174 H           0.9925   -6.6345    9.1699 H       1  UNL1        0.0422
    175 H           2.0558   -8.2701   11.0009 H       1  UNL1        0.1182
    176 H           1.6152   -9.3959    9.7947 H       1  UNL1        0.1182
    177 H           2.5052   -7.3032    2.6467 H       1  UNL1        0.1495
    178 H           0.8221   -7.8797    0.8516 H       1  UNL1        0.0597
    179 H           2.4032   -5.4037    0.3957 H       1  UNL1        0.0288
    180 H           2.6095   -7.0907   -0.2321 H       1  UNL1        0.0288
    181 H           1.5610   -6.6485   -2.2023 H       1  UNL1        0.0281
    182 H           1.8071   -4.9561   -1.7233 H       1  UNL1        0.0281
    183 H          -0.3418   -4.6342   -1.0808 H       1  UNL1        0.0465
    184 H          -0.7091   -6.1612   -2.0371 H       1  UNL1        0.0465
    185 H          -2.9129   -7.3077   -1.2696 H       1  UNL1        0.0554
    186 H          -4.0346   -7.2015    1.4350 H       1  UNL1        0.1189
    187 H          -4.4678   -8.1017   -0.0111 H       1  UNL1        0.1189
    188 H          -2.6582   -4.8854   -1.5390 H       1  UNL1        0.0286
    189 H          -3.5081   -4.6427    0.0903 H       1  UNL1        0.0286
    190 H          -4.6513   -6.0125   -2.4145 H       1  UNL1        0.0297
    191 H          -5.5166   -5.6853   -0.8696 H       1  UNL1        0.0297
    192 H          -4.5058   -3.6257   -2.8903 H       1  UNL1        0.0693
    193 H          -5.3145   -3.2281   -1.2835 H       1  UNL1        0.0693
    194 H          -5.7894   -1.9543   -4.3959 H       1  UNL1        0.2546
    195 H          -5.2974   -3.3757   -5.3592 H       1  UNL1        0.2546
    196 H          -8.7334   -4.6556   -3.9378 H       1  UNL1        0.2546
    197 H          -8.3582   -3.6173   -5.3142 H       1  UNL1        0.2546
    198 H           4.3520    5.8941   -4.4564 H       1  UNL1        0.0421
    199 H           2.8599    4.7596   -6.9300 H       1  UNL1        0.0621
    200 H           3.5481    3.5550   -8.9620 H       1  UNL1        0.0618
    201 H           5.6269    2.2885   -9.0013 H       1  UNL1        0.0618
    202 H           7.0074    2.2231   -6.9750 H       1  UNL1        0.0624
    203 H           8.1999    2.4208   -4.7118 H       1  UNL1        0.0624
    204 H           9.0074    2.8990   -2.4492 H       1  UNL1        0.0618
    205 H           7.6450    4.3323   -0.9795 H       1  UNL1        0.0618
    206 H           5.5449    5.2602   -1.7326 H       1  UNL1        0.0621
    207 H         -10.2595    4.1326   -0.9113 H       1  UNL1        0.1450
    208 H          -9.4307    5.1399    0.3252 H       1  UNL1        0.1450
@<TRIPOS>BOND
     1     1     2    1
     2     2     3    1
     3     3     4    1
     4     4     5    1
     5     5     6    1
     6     6     7   am
     7     7     8    2
     8     7     9    1
     9     9    10    1
    10    10    11    1
    11    11    12    1
    12    11    13    1
    13     9    14    1
    14    14    15   am
    15    15    16    2
    16    15    17    1
    17    17    18    1
    18    18    19    1
    19    19    20    1
    20    20    21    1
    21    21    22   am
    22    22    23    2
    23    22    24    1
    24    24    25    1
    25    25    26   am
    26    26    27    2
    27    26    28    1
    28    28    29    1
    29    29    30    1
    30    30    31   ar
    31    31    32   ar
    32    32    33   ar
    33    33    34   ar
    34    34    35   ar
    35    28    36    1
    36    36    37   am
    37    37    38    2
    38    37    39    1
    39    39    40    1
    40    40    41    1
    41    41    42    1
    42    42    43   am
    43    42    44    2
    44    39    45    1
    45    45    46   am
    46    46    47    2
    47    46    48    1
    48    48    49    1
    49    49    50    1
    50    50    51    1
    51    51    52   am
    52    51    53    2
    53    48    54    1
    54    54    55   am
    55    55    56    2
    56    55    57    1
    57    57    58    1
    58    58    59    1
    59    59    60    1
    60    60    61    1
    61    61    62   am
    62    62    63    2
    63    62    64    1
    64    64    65    1
    65    65    66    1
    66    66    67    1
    67    67    68    1
    68    68    69    1
    69    64    70    1
    70    70    71   am
    71    71    72    2
    72    71    73    1
    73    73    74    1
    74    74    75    1
    75    75    76    1
    76    76    77    1
    77    77    78   am
    78    78    79    2
    79    78    80    1
    80    80    81    1
    81    80    82    1
    82    82    83    1
    83    83    84    1
    84    84    85    1
    85    85    86    2
    86    86    87    1
    87    86    88    1
    88    24    89    1
    89    89    90    1
    90    90    91   ar
    91    91    92   ar
    92    92    93   ar
    93    93    94   ar
    94    94    95   ar
    95    95    96    1
    96    96    97   ar
    97    97    98   ar
    98    98    99   ar
    99    99   100   ar
   100   100   101   ar
   101     5   102    1
   102   102   103   am
   103   102   104    2
   104    21    17    1
   105    35    30   ar
   106    61    57    1
   107    77    73    1
   108   101    89    1
   109    95    90   ar
   110   101    96   ar
   111     1   105    1
   112     1   106    1
   113     1   107    1
   114     3   108    1
   115     3   109    1
   116     4   110    1
   117     4   111    1
   118     5   112    1
   119     6   113    1
   120     9   114    1
   121    10   115    1
   122    10   116    1
   123    11   117    1
   124    12   118    1
   125    12   119    1
   126    12   120    1
   127    13   121    1
   128    13   122    1
   129    13   123    1
   130    14   124    1
   131    17   125    1
   132    18   126    1
   133    18   127    1
   134    19   128    1
   135    19   129    1
   136    20   130    1
   137    20   131    1
   138    24   132    1
   139    25   133    1
   140    28   134    1
   141    29   135    1
   142    29   136    1
   143    31   137    1
   144    32   138    1
   145    33   139    1
   146    34   140    1
   147    35   141    1
   148    36   142    1
   149    39   143    1
   150    40   144    1
   151    40   145    1
   152    41   146    1
   153    41   147    1
   154    43   148    1
   155    43   149    1
   156    45   150    1
   157    48   151    1
   158    49   152    1
   159    49   153    1
   160    50   154    1
   161    50   155    1
   162    52   156    1
   163    52   157    1
   164    54   158    1
   165    57   159    1
   166    58   160    1
   167    58   161    1
   168    59   162    1
   169    59   163    1
   170    60   164    1
   171    60   165    1
   172    64   166    1
   173    65   167    1
   174    65   168    1
   175    66   169    1
   176    66   170    1
   177    67   171    1
   178    67   172    1
   179    68   173    1
   180    68   174    1
   181    69   175    1
   182    69   176    1
   183    70   177    1
   184    73   178    1
   185    74   179    1
   186    74   180    1
   187    75   181    1
   188    75   182    1
   189    76   183    1
   190    76   184    1
   191    80   185    1
   192    81   186    1
   193    81   187    1
   194    82   188    1
   195    82   189    1
   196    83   190    1
   197    83   191    1
   198    84   192    1
   199    84   193    1
   200    87   194    1
   201    87   195    1
   202    88   196    1
   203    88   197    1
   204    89   198    1
   205    91   199    1
   206    92   200    1
   207    93   201    1
   208    94   202    1
   209    97   203    1
   210    98   204    1
   211    99   205    1
   212   100   206    1
   213   103   207    1
   214   103   208    1
