
     RDKit          3D

208214  0  0  0  0  0  0  0  0999 V2000
   -7.5153   -0.0501   -0.6633 C   0  0  0  0  0  0  0  0  0  0  0  0
   -6.9442    1.1129    0.5735 S   0  0  0  0  0  0  0  0  0  0  0  0
   -7.3748    2.8540    0.1663 C   0  0  0  0  0  0  0  0  0  0  0  0
   -6.6457    3.3354   -1.0596 C   0  0  0  0  0  0  0  0  0  0  0  0
   -6.9711    4.8063   -1.3074 C   0  0  1  0  0  0  0  0  0  0  0  0
   -6.2472    5.2447   -2.5023 N   0  0  0  0  0  0  0  0  0  0  0  0
   -4.9043    5.6063   -2.5006 C   0  0  0  0  0  0  0  0  0  0  0  0
   -4.2769    5.5272   -1.3813 O   0  0  0  0  0  0  0  0  0  0  0  0
   -4.1090    6.0668   -3.6923 C   0  0  2  0  0  0  0  0  0  0  0  0
   -4.9099    6.4348   -4.8803 C   0  0  0  0  0  0  0  0  0  0  0  0
   -5.8006    7.6346   -4.5359 C   0  0  0  0  0  0  0  0  0  0  0  0
   -4.9202    8.8183   -4.1393 C   0  0  0  0  0  0  0  0  0  0  0  0
   -6.5965    8.0257   -5.7479 C   0  0  0  0  0  0  0  0  0  0  0  0
   -2.9681    5.2882   -3.7702 N   0  0  0  0  0  0  0  0  0  0  0  0
   -1.5711    5.7253   -3.8969 C   0  0  0  0  0  0  0  0  0  0  0  0
   -1.4189    6.9241   -4.0025 O   0  0  0  0  0  0  0  0  0  0  0  0
   -0.5756    4.6800   -3.8580 C   0  0  2  0  0  0  0  0  0  0  0  0
   -0.7300    4.2545   -2.2968 C   0  0  0  0  0  0  0  0  0  0  0  0
   -0.2444    5.5721   -1.7235 C   0  0  0  0  0  0  0  0  0  0  0  0
    0.8342    6.0155   -2.7322 C   0  0  0  0  0  0  0  0  0  0  0  0
    0.8312    4.9439   -3.6920 N   0  0  0  0  0  0  0  0  0  0  0  0
    1.8803    4.1446   -4.1789 C   0  0  0  0  0  0  0  0  0  0  0  0
    1.6269    3.3080   -5.0943 O   0  0  0  0  0  0  0  0  0  0  0  0
    3.2477    4.1902   -3.6642 C   0  0  1  0  0  0  0  0  0  0  0  0
    3.4703    2.7752   -3.2283 N   0  0  0  0  0  0  0  0  0  0  0  0
    2.9497    2.4381   -1.9571 C   0  0  0  0  0  0  0  0  0  0  0  0
    2.3868    3.4346   -1.3387 O   0  0  0  0  0  0  0  0  0  0  0  0
    2.9194    1.1892   -1.2189 C   0  0  2  0  0  0  0  0  0  0  0  0
    2.4300   -0.0125   -1.9152 C   0  0  0  0  0  0  0  0  0  0  0  0
    1.0861   -0.0568   -2.4479 C   0  0  0  0  0  0  0  0  0  0  0  0
    0.0148   -0.5073   -1.6946 C   0  0  0  0  0  0  0  0  0  0  0  0
   -1.2735   -0.5884   -2.2253 C   0  0  0  0  0  0  0  0  0  0  0  0
   -1.4927   -0.2059   -3.5449 C   0  0  0  0  0  0  0  0  0  0  0  0
   -0.4490    0.2474   -4.3148 C   0  0  0  0  0  0  0  0  0  0  0  0
    0.8169    0.3102   -3.7437 C   0  0  0  0  0  0  0  0  0  0  0  0
    2.2112    1.4765    0.0552 N   0  0  0  0  0  0  0  0  0  0  0  0
    2.5270    0.9409    1.2817 C   0  0  0  0  0  0  0  0  0  0  0  0
    3.4440    0.0982    1.3995 O   0  0  0  0  0  0  0  0  0  0  0  0
    1.7994    1.3326    2.5685 C   0  0  2  0  0  0  0  0  0  0  0  0
    2.7644    2.2512    3.2727 C   0  0  0  0  0  0  0  0  0  0  0  0
    2.4310    2.8463    4.5658 C   0  0  0  0  0  0  0  0  0  0  0  0
    2.3459    1.9599    5.7316 C   0  0  0  0  0  0  0  0  0  0  0  0
    1.5669    2.3533    6.8467 N   0  0  0  0  0  0  0  0  0  0  0  0
    2.9490    0.8666    5.7620 O   0  0  0  0  0  0  0  0  0  0  0  0
    1.4649    0.1697    3.2910 N   0  0  0  0  0  0  0  0  0  0  0  0
    0.3747    0.0935    4.2208 C   0  0  0  0  0  0  0  0  0  0  0  0
   -0.3012    1.1104    4.4807 O   0  0  0  0  0  0  0  0  0  0  0  0
    0.0351   -1.1870    4.8919 C   0  0  2  0  0  0  0  0  0  0  0  0
   -1.3183   -0.9221    5.6038 C   0  0  0  0  0  0  0  0  0  0  0  0
   -1.7279   -2.1110    6.3584 C   0  0  0  0  0  0  0  0  0  0  0  0
   -1.9734   -3.3354    5.6124 C   0  0  0  0  0  0  0  0  0  0  0  0
   -2.3641   -4.5190    6.2873 N   0  0  0  0  0  0  0  0  0  0  0  0
   -1.8613   -3.4309    4.3371 O   0  0  0  0  0  0  0  0  0  0  0  0
    0.9618   -1.6906    5.8529 N   0  0  0  0  0  0  0  0  0  0  0  0
    1.7563   -2.8046    5.3633 C   0  0  0  0  0  0  0  0  0  0  0  0
    1.5643   -3.1550    4.1729 O   0  0  0  0  0  0  0  0  0  0  0  0
    2.7286   -3.4977    6.2002 C   0  0  2  0  0  0  0  0  0  0  0  0
    3.6393   -2.5432    6.8837 C   0  0  0  0  0  0  0  0  0  0  0  0
    4.9931   -3.2536    6.7694 C   0  0  0  0  0  0  0  0  0  0  0  0
    4.9043   -3.9287    5.4357 C   0  0  0  0  0  0  0  0  0  0  0  0
    3.4965   -4.4136    5.3757 N   0  0  0  0  0  0  0  0  0  0  0  0
    3.1426   -5.5316    4.6132 C   0  0  0  0  0  0  0  0  0  0  0  0
    4.1365   -6.1071    3.9801 O   0  0  0  0  0  0  0  0  0  0  0  0
    1.8666   -6.1669    4.3962 C   0  0  2  0  0  0  0  0  0  0  0  0
    1.7185   -7.3735    5.3326 C   0  0  0  0  0  0  0  0  0  0  0  0
    1.7829   -6.9293    6.7689 C   0  0  0  0  0  0  0  0  0  0  0  0
    1.6033   -8.0829    7.7292 C   0  0  0  0  0  0  0  0  0  0  0  0
    1.6760   -7.4812    9.1306 C   0  0  0  0  0  0  0  0  0  0  0  0
    1.4887   -8.4516   10.1609 N   0  0  0  0  0  0  0  0  0  0  0  0
    1.7797   -6.6554    2.9962 N   0  0  0  0  0  0  0  0  0  0  0  0
    0.7355   -6.2518    2.1506 C   0  0  0  0  0  0  0  0  0  0  0  0
   -0.1709   -5.4763    2.5403 O   0  0  0  0  0  0  0  0  0  0  0  0
    0.7055   -6.7562    0.7576 C   0  0  2  0  0  0  0  0  0  0  0  0
    1.8561   -6.2630   -0.0598 C   0  0  0  0  0  0  0  0  0  0  0  0
    1.3166   -5.9114   -1.4011 C   0  0  0  0  0  0  0  0  0  0  0  0
   -0.1565   -5.7356   -1.1806 C   0  0  0  0  0  0  0  0  0  0  0  0
   -0.4999   -6.4416    0.0281 N   0  0  0  0  0  0  0  0  0  0  0  0
   -1.7957   -6.8257    0.4251 C   0  0  0  0  0  0  0  0  0  0  0  0
   -1.8779   -7.3742    1.5858 O   0  0  0  0  0  0  0  0  0  0  0  0
   -3.0409   -6.6765   -0.3344 C   0  0  1  0  0  0  0  0  0  0  0  0
   -4.1840   -7.2012    0.4022 N   0  0  0  0  0  0  0  0  0  0  0  0
   -3.3850   -5.2932   -0.7925 C   0  0  0  0  0  0  0  0  0  0  0  0
   -4.7175   -5.3141   -1.5324 C   0  0  0  0  0  0  0  0  0  0  0  0
   -5.1535   -3.9822   -2.0498 C   0  0  0  0  0  0  0  0  0  0  0  0
   -6.4611   -4.2157   -2.6882 N   0  0  0  0  0  0  0  0  0  0  0  0
   -6.7668   -3.7489   -3.8431 C   0  0  0  0  0  0  0  0  0  0  0  0
   -5.8661   -2.9625   -4.6061 N   0  0  0  0  0  0  0  0  0  0  0  0
   -8.0317   -4.0225   -4.4013 N   0  0  0  0  0  0  0  0  0  0  0  0
    4.3539    4.7845   -4.4014 C   0  0  0  0  0  0  0  0  0  0  0  0
    4.5502    4.1661   -5.7348 C   0  0  0  0  0  0  0  0  0  0  0  0
    3.7848    4.1858   -6.9053 C   0  0  0  0  0  0  0  0  0  0  0  0
    4.1520    3.5324   -8.0534 C   0  0  0  0  0  0  0  0  0  0  0  0
    5.3360    2.8065   -8.0891 C   0  0  0  0  0  0  0  0  0  0  0  0
    6.0840    2.7828   -6.9630 C   0  0  0  0  0  0  0  0  0  0  0  0
    5.7221    3.4433   -5.7880 C   0  0  0  0  0  0  0  0  0  0  0  0
    6.3980    3.5752   -4.5107 C   0  0  0  0  0  0  0  0  0  0  0  0
    7.5935    3.0523   -4.0729 C   0  0  0  0  0  0  0  0  0  0  0  0
    8.0657    3.3207   -2.7827 C   0  0  0  0  0  0  0  0  0  0  0  0
    7.3021    4.1162   -1.9756 C   0  0  0  0  0  0  0  0  0  0  0  0
    6.1038    4.6291   -2.4403 C   0  0  0  0  0  0  0  0  0  0  0  0
    5.6381    4.3713   -3.6965 C   0  0  0  0  0  0  0  0  0  0  0  0
   -8.3908    4.9824   -1.5160 C   0  0  0  0  0  0  0  0  0  0  0  0
   -9.4580    4.7273   -0.6196 N   0  0  0  0  0  0  0  0  0  0  0  0
   -8.7718    5.4373   -2.6662 O   0  0  0  0  0  0  0  0  0  0  0  0
   -8.0747    0.3761   -1.4933 H   0  0  0  0  0  0  0  0  0  0  0  0
   -6.5935   -0.5398   -1.1028 H   0  0  0  0  0  0  0  0  0  0  0  0
   -8.0855   -0.9219   -0.2199 H   0  0  0  0  0  0  0  0  0  0  0  0
   -8.4879    2.7926   -0.0292 H   0  0  0  0  0  0  0  0  0  0  0  0
   -7.1335    3.4218    1.0666 H   0  0  0  0  0  0  0  0  0  0  0  0
   -5.5595    3.2191   -0.8233 H   0  0  0  0  0  0  0  0  0  0  0  0
   -6.8444    2.7010   -1.9444 H   0  0  0  0  0  0  0  0  0  0  0  0
   -6.5115    5.3296   -0.4407 H   0  0  0  0  0  0  0  0  0  0  0  0
   -6.7900    5.2509   -3.4006 H   0  0  0  0  0  0  0  0  0  0  0  0
   -3.7713    7.1395   -3.3110 H   0  0  0  0  0  0  0  0  0  0  0  0
   -5.5400    5.6170   -5.2439 H   0  0  0  0  0  0  0  0  0  0  0  0
   -4.2002    6.8340   -5.6612 H   0  0  0  0  0  0  0  0  0  0  0  0
   -6.4474    7.4670   -3.6638 H   0  0  0  0  0  0  0  0  0  0  0  0
   -5.4601    9.7326   -4.4402 H   0  0  0  0  0  0  0  0  0  0  0  0
   -4.7268    8.8774   -3.0600 H   0  0  0  0  0  0  0  0  0  0  0  0
   -3.9668    8.8024   -4.7216 H   0  0  0  0  0  0  0  0  0  0  0  0
   -7.5646    8.5070   -5.4789 H   0  0  0  0  0  0  0  0  0  0  0  0
   -6.0022    8.8271   -6.2800 H   0  0  0  0  0  0  0  0  0  0  0  0
   -6.7077    7.1948   -6.4770 H   0  0  0  0  0  0  0  0  0  0  0  0
   -3.0624    4.2306   -3.7517 H   0  0  0  0  0  0  0  0  0  0  0  0
   -0.7577    3.7765   -4.4507 H   0  0  0  0  0  0  0  0  0  0  0  0
   -0.1462    3.3816   -2.1190 H   0  0  0  0  0  0  0  0  0  0  0  0
   -1.8168    4.2028   -2.1787 H   0  0  0  0  0  0  0  0  0  0  0  0
   -1.0969    6.2888   -1.7150 H   0  0  0  0  0  0  0  0  0  0  0  0
    0.1921    5.3959   -0.7207 H   0  0  0  0  0  0  0  0  0  0  0  0
    1.8128    6.0126   -2.2089 H   0  0  0  0  0  0  0  0  0  0  0  0
    0.5724    6.9551   -3.1740 H   0  0  0  0  0  0  0  0  0  0  0  0
    3.1629    4.7664   -2.6808 H   0  0  0  0  0  0  0  0  0  0  0  0
    3.9416    2.1115   -3.7722 H   0  0  0  0  0  0  0  0  0  0  0  0
    3.9644    0.9337   -0.8654 H   0  0  0  0  0  0  0  0  0  0  0  0
    3.2148   -0.2543   -2.7093 H   0  0  0  0  0  0  0  0  0  0  0  0
    2.5444   -0.9109   -1.2183 H   0  0  0  0  0  0  0  0  0  0  0  0
    0.1076   -0.8164   -0.6708 H   0  0  0  0  0  0  0  0  0  0  0  0
   -2.1266   -0.9450   -1.6525 H   0  0  0  0  0  0  0  0  0  0  0  0
   -2.4711   -0.2574   -3.9985 H   0  0  0  0  0  0  0  0  0  0  0  0
   -0.5842    0.5499   -5.3448 H   0  0  0  0  0  0  0  0  0  0  0  0
    1.6128    0.6769   -4.4156 H   0  0  0  0  0  0  0  0  0  0  0  0
    1.3859    2.1536    0.0207 H   0  0  0  0  0  0  0  0  0  0  0  0
    0.9028    1.9246    2.3928 H   0  0  0  0  0  0  0  0  0  0  0  0
    3.0392    3.1115    2.5662 H   0  0  0  0  0  0  0  0  0  0  0  0
    3.7718    1.7416    3.3900 H   0  0  0  0  0  0  0  0  0  0  0  0
    1.3990    3.3166    4.4600 H   0  0  0  0  0  0  0  0  0  0  0  0
    3.0968    3.7345    4.8179 H   0  0  0  0  0  0  0  0  0  0  0  0
    1.9109    3.1160    7.4515 H   0  0  0  0  0  0  0  0  0  0  0  0
    0.6680    1.8958    7.0644 H   0  0  0  0  0  0  0  0  0  0  0  0
    2.0143   -0.7391    3.1940 H   0  0  0  0  0  0  0  0  0  0  0  0
   -0.1768   -1.9017    4.0908 H   0  0  0  0  0  0  0  0  0  0  0  0
   -1.2420   -0.0066    6.2269 H   0  0  0  0  0  0  0  0  0  0  0  0
   -1.9980   -0.6466    4.7603 H   0  0  0  0  0  0  0  0  0  0  0  0
   -0.9138   -2.3585    7.1158 H   0  0  0  0  0  0  0  0  0  0  0  0
   -2.5998   -1.8322    7.0189 H   0  0  0  0  0  0  0  0  0  0  0  0
   -3.0773   -5.1458    5.8805 H   0  0  0  0  0  0  0  0  0  0  0  0
   -1.9328   -4.7534    7.1947 H   0  0  0  0  0  0  0  0  0  0  0  0
    1.0731   -1.3188    6.7964 H   0  0  0  0  0  0  0  0  0  0  0  0
    2.1210   -4.0790    6.9576 H   0  0  0  0  0  0  0  0  0  0  0  0
    3.7847   -1.5909    6.3363 H   0  0  0  0  0  0  0  0  0  0  0  0
    3.3676   -2.3797    7.9315 H   0  0  0  0  0  0  0  0  0  0  0  0
    5.0807   -3.9746    7.6033 H   0  0  0  0  0  0  0  0  0  0  0  0
    5.8150   -2.5321    6.8391 H   0  0  0  0  0  0  0  0  0  0  0  0
    5.0597   -3.2604    4.5856 H   0  0  0  0  0  0  0  0  0  0  0  0
    5.5421   -4.8181    5.4369 H   0  0  0  0  0  0  0  0  0  0  0  0
    0.9549   -5.5825    4.5641 H   0  0  0  0  0  0  0  0  0  0  0  0
    0.7379   -7.8248    5.1094 H   0  0  0  0  0  0  0  0  0  0  0  0
    2.5114   -8.1104    5.0905 H   0  0  0  0  0  0  0  0  0  0  0  0
    0.9949   -6.1656    6.9076 H   0  0  0  0  0  0  0  0  0  0  0  0
    2.7608   -6.4366    7.0049 H   0  0  0  0  0  0  0  0  0  0  0  0
    2.4211   -8.8173    7.5516 H   0  0  0  0  0  0  0  0  0  0  0  0
    0.6280   -8.5380    7.5451 H   0  0  0  0  0  0  0  0  0  0  0  0
    2.7232   -7.0692    9.2827 H   0  0  0  0  0  0  0  0  0  0  0  0
    0.9925   -6.6345    9.1699 H   0  0  0  0  0  0  0  0  0  0  0  0
    2.0558   -8.2701   11.0009 H   0  0  0  0  0  0  0  0  0  0  0  0
    1.6152   -9.3959    9.7947 H   0  0  0  0  0  0  0  0  0  0  0  0
    2.5052   -7.3032    2.6467 H   0  0  0  0  0  0  0  0  0  0  0  0
    0.8221   -7.8797    0.8516 H   0  0  0  0  0  0  0  0  0  0  0  0
    2.4032   -5.4037    0.3957 H   0  0  0  0  0  0  0  0  0  0  0  0
    2.6095   -7.0907   -0.2321 H   0  0  0  0  0  0  0  0  0  0  0  0
    1.5610   -6.6485   -2.2023 H   0  0  0  0  0  0  0  0  0  0  0  0
    1.8071   -4.9561   -1.7233 H   0  0  0  0  0  0  0  0  0  0  0  0
   -0.3418   -4.6342   -1.0808 H   0  0  0  0  0  0  0  0  0  0  0  0
   -0.7091   -6.1612   -2.0371 H   0  0  0  0  0  0  0  0  0  0  0  0
   -2.9129   -7.3077   -1.2696 H   0  0  0  0  0  0  0  0  0  0  0  0
   -4.0346   -7.2015    1.4350 H   0  0  0  0  0  0  0  0  0  0  0  0
   -4.4678   -8.1017   -0.0111 H   0  0  0  0  0  0  0  0  0  0  0  0
   -2.6582   -4.8854   -1.5390 H   0  0  0  0  0  0  0  0  0  0  0  0
   -3.5081   -4.6427    0.0903 H   0  0  0  0  0  0  0  0  0  0  0  0
   -4.6513   -6.0125   -2.4145 H   0  0  0  0  0  0  0  0  0  0  0  0
   -5.5166   -5.6853   -0.8696 H   0  0  0  0  0  0  0  0  0  0  0  0
   -4.5058   -3.6257   -2.8903 H   0  0  0  0  0  0  0  0  0  0  0  0
   -5.3145   -3.2281   -1.2835 H   0  0  0  0  0  0  0  0  0  0  0  0
   -5.7894   -1.9543   -4.3959 H   0  0  0  0  0  0  0  0  0  0  0  0
   -5.2974   -3.3757   -5.3592 H   0  0  0  0  0  0  0  0  0  0  0  0
   -8.7334   -4.6556   -3.9378 H   0  0  0  0  0  0  0  0  0  0  0  0
   -8.3582   -3.6173   -5.3142 H   0  0  0  0  0  0  0  0  0  0  0  0
    4.3520    5.8941   -4.4564 H   0  0  0  0  0  0  0  0  0  0  0  0
    2.8599    4.7596   -6.9300 H   0  0  0  0  0  0  0  0  0  0  0  0
    3.5481    3.5550   -8.9620 H   0  0  0  0  0  0  0  0  0  0  0  0
    5.6269    2.2885   -9.0013 H   0  0  0  0  0  0  0  0  0  0  0  0
    7.0074    2.2231   -6.9750 H   0  0  0  0  0  0  0  0  0  0  0  0
    8.1999    2.4208   -4.7118 H   0  0  0  0  0  0  0  0  0  0  0  0
    9.0074    2.8990   -2.4492 H   0  0  0  0  0  0  0  0  0  0  0  0
    7.6450    4.3323   -0.9795 H   0  0  0  0  0  0  0  0  0  0  0  0
    5.5449    5.2602   -1.7326 H   0  0  0  0  0  0  0  0  0  0  0  0
  -10.2595    4.1326   -0.9113 H   0  0  0  0  0  0  0  0  0  0  0  0
   -9.4307    5.1399    0.3252 H   0  0  0  0  0  0  0  0  0  0  0  0
  1  2  1  0
  2  3  1  0
  3  4  1  0
  4  5  1  0
  5  6  1  0
  6  7  1  0
  7  8  2  0
  7  9  1  0
  9 10  1  0
 10 11  1  0
 11 12  1  0
 11 13  1  0
  9 14  1  0
 14 15  1  0
 15 16  2  0
 15 17  1  0
 17 18  1  0
 18 19  1  0
 19 20  1  0
 20 21  1  0
 21 22  1  0
 22 23  2  0
 22 24  1  0
 24 25  1  0
 25 26  1  0
 26 27  2  0
 26 28  1  0
 28 29  1  0
 29 30  1  0
 30 31  2  0
 31 32  1  0
 32 33  2  0
 33 34  1  0
 34 35  2  0
 28 36  1  0
 36 37  1  0
 37 38  2  0
 37 39  1  0
 39 40  1  0
 40 41  1  0
 41 42  1  0
 42 43  1  0
 42 44  2  0
 39 45  1  0
 45 46  1  0
 46 47  2  0
 46 48  1  0
 48 49  1  0
 49 50  1  0
 50 51  1  0
 51 52  1  0
 51 53  2  0
 48 54  1  0
 54 55  1  0
 55 56  2  0
 55 57  1  0
 57 58  1  0
 58 59  1  0
 59 60  1  0
 60 61  1  0
 61 62  1  0
 62 63  2  0
 62 64  1  0
 64 65  1  0
 65 66  1  0
 66 67  1  0
 67 68  1  0
 68 69  1  0
 64 70  1  0
 70 71  1  0
 71 72  2  0
 71 73  1  0
 73 74  1  0
 74 75  1  0
 75 76  1  0
 76 77  1  0
 77 78  1  0
 78 79  2  0
 78 80  1  0
 80 81  1  0
 80 82  1  0
 82 83  1  0
 83 84  1  0
 84 85  1  0
 85 86  2  3
 86 87  1  0
 86 88  1  0
 24 89  1  0
 89 90  1  0
 90 91  2  0
 91 92  1  0
 92 93  2  0
 93 94  1  0
 94 95  2  0
 95 96  1  0
 96 97  2  0
 97 98  1  0
 98 99  2  0
 99100  1  0
100101  2  0
  5102  1  0
102103  1  0
102104  2  0
 21 17  1  0
 35 30  1  0
 61 57  1  0
 77 73  1  0
101 89  1  0
 95 90  1  0
101 96  1  0
  1105  1  0
  1106  1  0
  1107  1  0
  3108  1  0
  3109  1  0
  4110  1  0
  4111  1  0
  5112  1  1
  6113  1  0
  9114  1  1
 10115  1  0
 10116  1  0
 11117  1  0
 12118  1  0
 12119  1  0
 12120  1  0
 13121  1  0
 13122  1  0
 13123  1  0
 14124  1  0
 17125  1  6
 18126  1  0
 18127  1  0
 19128  1  0
 19129  1  0
 20130  1  0
 20131  1  0
 24132  1  1
 25133  1  0
 28134  1  1
 29135  1  0
 29136  1  0
 31137  1  0
 32138  1  0
 33139  1  0
 34140  1  0
 35141  1  0
 36142  1  0
 39143  1  6
 40144  1  0
 40145  1  0
 41146  1  0
 41147  1  0
 43148  1  0
 43149  1  0
 45150  1  0
 48151  1  6
 49152  1  0
 49153  1  0
 50154  1  0
 50155  1  0
 52156  1  0
 52157  1  0
 54158  1  0
 57159  1  1
 58160  1  0
 58161  1  0
 59162  1  0
 59163  1  0
 60164  1  0
 60165  1  0
 64166  1  1
 65167  1  0
 65168  1  0
 66169  1  0
 66170  1  0
 67171  1  0
 67172  1  0
 68173  1  0
 68174  1  0
 69175  1  0
 69176  1  0
 70177  1  0
 73178  1  1
 74179  1  0
 74180  1  0
 75181  1  0
 75182  1  0
 76183  1  0
 76184  1  0
 80185  1  6
 81186  1  0
 81187  1  0
 82188  1  0
 82189  1  0
 83190  1  0
 83191  1  0
 84192  1  0
 84193  1  0
 87194  1  0
 87195  1  0
 88196  1  0
 88197  1  0
 89198  1  0
 91199  1  0
 92200  1  0
 93201  1  0
 94202  1  0
 97203  1  0
 98204  1  0
 99205  1  0
100206  1  0
103207  1  0
103208  1  0
M  END
$$$$
