@<TRIPOS>MOLECULE
*****
 52 56 0 0 0
SMALL
GASTEIGER

@<TRIPOS>ATOM
      1 C           6.6323    2.0357   -0.3262 C.3     1  UNL1       -0.0126
      2 N           5.3049    1.7180   -0.7536 N.3     1  UNL1       -0.3024
      3 C           4.3484    1.6664    0.3072 C.3     1  UNL1        0.0144
      4 C           3.0637    0.9981   -0.0697 C.3     1  UNL1        0.0263
      5 N           3.3662   -0.3125   -0.6020 N.pl3   1  UNL1       -0.3127
      6 C           2.3605   -1.2978   -0.8208 C.ar    1  UNL1        0.1219
      7 C           1.0238   -1.0355   -0.5267 C.ar    1  UNL1       -0.0125
      8 C           0.0387   -1.9639   -0.7276 C.ar    1  UNL1        0.0051
      9 C          -1.3666   -1.7425   -0.4389 C.ar    1  UNL1        0.0731
     10 C          -1.7878   -0.5408    0.0700 C.ar    1  UNL1       -0.0114
     11 C          -3.1303   -0.2860    0.3615 C.ar    1  UNL1        0.0579
     12 C          -4.0226   -1.3211    0.1073 C.ar    1  UNL1        0.0422
     13 C          -3.5912   -2.5058   -0.3967 C.ar    1  UNL1        0.0394
     14 N          -2.2903   -2.6892   -0.6557 N.ar    1  UNL1       -0.2542
     15 C          -5.3710   -1.1249    0.3790 C.ar    1  UNL1        0.0815
     16 N          -6.4383   -1.9176    0.2407 N.ar    1  UNL1       -0.2761
     17 N          -7.5065   -1.2529    0.6457 N.ar    1  UNL1       -0.1810
     18 C          -7.1722   -0.0230    1.0547 C.ar    1  UNL1        0.0621
     19 C          -5.7928    0.0817    0.8907 C.ar    1  UNL1        0.0846
     20 C          -4.9008    1.0937    1.1362 C.ar    1  UNL1        0.2627
     21 O          -5.2752    2.2002    1.6035 O.2     1  UNL1       -0.2669
     22 N          -3.5796    0.8676    0.8573 N.ar    1  UNL1       -0.2987
     23 C          -2.6903    1.9578    1.1328 C.3     1  UNL1        0.1218
     24 C          -2.5300    2.8907   -0.0470 C.3     1  UNL1        0.4074
     25 F          -2.0339    2.2770   -1.1583 F       1  UNL1       -0.1687
     26 F          -3.7358    3.5463   -0.3114 F       1  UNL1       -0.1687
     27 F          -1.6337    3.9168    0.2688 F       1  UNL1       -0.1687
     28 C           0.3777   -3.2233   -1.2464 C.ar    1  UNL1       -0.0343
     29 C           1.6995   -3.4482   -1.5243 C.ar    1  UNL1        0.0303
     30 N           2.6415   -2.5143   -1.3150 N.ar    1  UNL1       -0.2403
     31 C           4.7497   -0.6024   -0.9137 C.3     1  UNL1        0.0263
     32 C           5.2864    0.6101   -1.6572 C.3     1  UNL1        0.0144
     33 H           7.3047    1.2050   -0.6284 H       1  UNL1        0.0391
     34 H           6.9655    2.9632   -0.8370 H       1  UNL1        0.0391
     35 H           6.7068    2.1035    0.7783 H       1  UNL1        0.0391
     36 H           4.1809    2.6876    0.7050 H       1  UNL1        0.0442
     37 H           4.8119    1.0948    1.1534 H       1  UNL1        0.0442
     38 H           2.4517    0.9106    0.8679 H       1  UNL1        0.0477
     39 H           2.5144    1.6369   -0.7894 H       1  UNL1        0.0477
     40 H           0.7959   -0.0549   -0.1281 H       1  UNL1        0.0658
     41 H          -1.1020    0.2440    0.2629 H       1  UNL1        0.0660
     42 H          -4.2934   -3.2966   -0.5879 H       1  UNL1        0.0837
     43 H          -6.3650   -2.8958   -0.1346 H       1  UNL1        0.1889
     44 H          -7.8436    0.7306    1.4341 H       1  UNL1        0.0856
     45 H          -1.6929    1.6289    1.4533 H       1  UNL1        0.0582
     46 H          -3.1328    2.6021    1.9670 H       1  UNL1        0.0582
     47 H          -0.4076   -3.9714   -1.4097 H       1  UNL1        0.0639
     48 H           1.9581   -4.4283   -1.9275 H       1  UNL1        0.0830
     49 H           4.8441   -1.4883   -1.5996 H       1  UNL1        0.0477
     50 H           5.3511   -0.8278   -0.0063 H       1  UNL1        0.0477
     51 H           6.3114    0.3360   -2.0037 H       1  UNL1        0.0442
     52 H           4.5964    0.7609   -2.5288 H       1  UNL1        0.0442
@<TRIPOS>BOND
     1     1     2    1
     2     2     3    1
     3     3     4    1
     4     4     5    1
     5     5     6    1
     6     6     7   ar
     7     7     8   ar
     8     8     9    1
     9     9    10   ar
    10    10    11   ar
    11    11    12   ar
    12    12    13   ar
    13    13    14   ar
    14    12    15   ar
    15    15    16   ar
    16    16    17   ar
    17    17    18   ar
    18    18    19   ar
    19    19    20   ar
    20    20    21    2
    21    20    22   ar
    22    22    23    1
    23    23    24    1
    24    24    25    1
    25    24    26    1
    26    24    27    1
    27     8    28   ar
    28    28    29   ar
    29    29    30   ar
    30     5    31    1
    31    31    32    1
    32    32     2    1
    33    30     6   ar
    34    14     9   ar
    35    19    15   ar
    36    22    11   ar
    37     1    33    1
    38     1    34    1
    39     1    35    1
    40     3    36    1
    41     3    37    1
    42     4    38    1
    43     4    39    1
    44     7    40    1
    45    10    41    1
    46    13    42    1
    47    16    43    1
    48    18    44    1
    49    23    45    1
    50    23    46    1
    51    28    47    1
    52    29    48    1
    53    31    49    1
    54    31    50    1
    55    32    51    1
    56    32    52    1
