@<TRIPOS>MOLECULE
*****
 31 33 0 0 0
SMALL
GASTEIGER

@<TRIPOS>ATOM
      1 O          -1.6253   -2.8653    1.2189 O.2     1  UNL1       -0.2830
      2 C          -1.2417   -1.7607    0.7815 C.ar    1  UNL1        0.2379
      3 C           0.1153   -1.4365    0.6426 C.ar    1  UNL1        0.2082
      4 O           0.9925   -2.4251    1.0238 O.3     1  UNL1       -0.5007
      5 C           0.5359   -0.2436    0.1702 C.ar    1  UNL1        0.1806
      6 C           1.9220    0.1150    0.0175 C.ar    1  UNL1        0.0213
      7 C           3.0155   -0.6475    0.3080 C.ar    1  UNL1       -0.0475
      8 C           4.3366   -0.2181    0.1280 C.ar    1  UNL1       -0.0195
      9 C           4.5631    1.0440   -0.3700 C.ar    1  UNL1        0.1169
     10 O           5.8258    1.5461   -0.5780 O.3     1  UNL1       -0.5068
     11 C           3.4828    1.8376   -0.6727 C.ar    1  UNL1       -0.0195
     12 C           2.2089    1.3986   -0.4894 C.ar    1  UNL1       -0.0475
     13 O          -0.4088    0.6405   -0.1693 O.2     1  UNL1       -0.4507
     14 C          -1.6861    0.4002   -0.0640 C.ar    1  UNL1        0.1465
     15 C          -2.5970    1.3932   -0.4466 C.ar    1  UNL1        0.0231
     16 C          -3.9414    1.1754   -0.3497 C.ar    1  UNL1        0.1239
     17 O          -4.8783    2.1423   -0.7218 O.3     1  UNL1       -0.5065
     18 C          -4.4191   -0.0308    0.1285 C.ar    1  UNL1        0.0223
     19 C          -3.5155   -0.9883    0.4972 C.ar    1  UNL1        0.1348
     20 O          -3.9493   -2.2176    0.9840 O.3     1  UNL1       -0.5058
     21 C          -2.1493   -0.8035    0.4130 C.ar    1  UNL1        0.1092
     22 H           0.8156   -3.3699    0.6748 H       1  UNL1        0.2924
     23 H           2.9041   -1.6172    0.6901 H       1  UNL1        0.0626
     24 H           5.1628   -0.8714    0.3778 H       1  UNL1        0.0654
     25 H           6.6242    1.2795   -0.0498 H       1  UNL1        0.2921
     26 H           3.6381    2.8503   -1.0721 H       1  UNL1        0.0654
     27 H           1.3890    2.0736   -0.7478 H       1  UNL1        0.0626
     28 H          -2.2060    2.3261   -0.8166 H       1  UNL1        0.0691
     29 H          -5.5373    1.8609   -1.4561 H       1  UNL1        0.2921
     30 H          -5.4808   -0.1958    0.2023 H       1  UNL1        0.0691
     31 H          -3.8965   -2.3921    1.9882 H       1  UNL1        0.2922
@<TRIPOS>BOND
     1     1     2    2
     2     2     3   ar
     3     3     4    1
     4     3     5   ar
     5     5     6    1
     6     6     7   ar
     7     7     8   ar
     8     8     9   ar
     9     9    10    1
    10     9    11   ar
    11    11    12   ar
    12     5    13   ar
    13    13    14   ar
    14    14    15   ar
    15    15    16   ar
    16    16    17    1
    17    16    18   ar
    18    18    19   ar
    19    19    20    1
    20    19    21   ar
    21    21     2   ar
    22    12     6   ar
    23    21    14   ar
    24     4    22    1
    25     7    23    1
    26     8    24    1
    27    10    25    1
    28    11    26    1
    29    12    27    1
    30    15    28    1
    31    17    29    1
    32    18    30    1
    33    20    31    1
