
     RDKit          3D

 61 63  0  0  0  0  0  0  0  0999 V2000
    5.4228    1.1485    1.2770 C   0  0  0  0  0  0  0  0  0  0  0  0
    5.9324    0.1534    0.3083 C   0  0  0  0  0  0  0  0  0  0  0  0
    5.4592    0.2132   -1.0840 C   0  0  0  0  0  0  0  0  0  0  0  0
    3.8145   -0.0679   -1.4955 S   0  0  0  0  0  6  0  0  0  0  0  0
    3.5089   -1.5258   -1.0521 O   0  0  0  0  0  0  0  0  0  0  0  0
    3.6279   -0.1626   -3.0204 O   0  0  0  0  0  0  0  0  0  0  0  0
    2.5991    0.8832   -0.8967 N   0  0  0  0  0  0  0  0  0  0  0  0
    2.3253    0.9569    0.4684 C   0  0  0  0  0  0  0  0  0  0  0  0
    0.8017    0.9154    0.7641 C   0  0  0  0  0  0  0  0  0  0  0  0
    0.2436   -0.0385   -0.1111 N   0  0  0  0  0  0  0  0  0  0  0  0
   -0.5728   -1.0484    0.4234 C   0  0  0  0  0  0  0  0  0  0  0  0
   -1.7457   -0.5269    1.2018 C   0  0  0  0  0  0  0  0  0  0  0  0
   -2.6535    0.2970    0.4302 N   0  0  0  0  0  0  0  0  0  0  0  0
   -3.8096    0.8871    0.9756 C   0  0  0  0  0  0  0  0  0  0  0  0
   -3.9875    0.6293    2.2189 O   0  0  0  0  0  0  0  0  0  0  0  0
   -4.7755    1.7245    0.2855 C   0  0  0  0  0  0  0  0  0  0  0  0
   -5.8310    2.1882    1.0320 C   0  0  0  0  0  0  0  0  0  0  0  0
   -5.9777    1.8823    2.3661 F   0  0  0  0  0  0  0  0  0  0  0  0
   -6.8028    2.9849    0.4908 C   0  0  0  0  0  0  0  0  0  0  0  0
   -6.7149    3.3279   -0.8394 C   0  0  0  0  0  0  0  0  0  0  0  0
   -5.6750    2.8852   -1.6219 C   0  0  0  0  0  0  0  0  0  0  0  0
   -4.7022    2.0749   -1.0374 C   0  0  0  0  0  0  0  0  0  0  0  0
   -3.6685    1.6355   -1.8175 F   0  0  0  0  0  0  0  0  0  0  0  0
    0.2786   -1.8227    1.4451 C   0  0  0  0  0  0  0  0  0  0  0  0
   -0.3452   -3.1773    1.6687 C   0  0  0  0  0  0  0  0  0  0  0  0
    0.0878   -4.0708    0.5118 C   0  0  0  0  0  0  0  0  0  0  0  0
   -0.7289   -5.1547    0.3853 F   0  0  0  0  0  0  0  0  0  0  0  0
    1.3995   -4.4050    0.7448 F   0  0  0  0  0  0  0  0  0  0  0  0
    0.0652   -3.1710   -0.7203 C   0  0  0  0  0  0  0  0  0  0  0  0
   -0.9689   -2.0731   -0.6057 C   0  0  0  0  0  0  0  0  0  0  0  0
    0.3177    0.2003   -1.4905 C   0  0  0  0  0  0  0  0  0  0  0  0
    1.4899    1.1332   -1.7795 C   0  0  0  0  0  0  0  0  0  0  0  0
    4.9889    2.0403    0.7871 H   0  0  0  0  0  0  0  0  0  0  0  0
    6.3185    1.5583    1.8554 H   0  0  0  0  0  0  0  0  0  0  0  0
    4.7301    0.7036    2.0085 H   0  0  0  0  0  0  0  0  0  0  0  0
    5.8065   -0.8726    0.7647 H   0  0  0  0  0  0  0  0  0  0  0  0
    7.0671    0.2498    0.2602 H   0  0  0  0  0  0  0  0  0  0  0  0
    6.0782   -0.5716   -1.6527 H   0  0  0  0  0  0  0  0  0  0  0  0
    5.8776    1.1708   -1.5263 H   0  0  0  0  0  0  0  0  0  0  0  0
    2.7103    0.0793    1.0258 H   0  0  0  0  0  0  0  0  0  0  0  0
    2.6928    1.8651    1.0073 H   0  0  0  0  0  0  0  0  0  0  0  0
    0.6693    0.6089    1.8055 H   0  0  0  0  0  0  0  0  0  0  0  0
    0.4768    1.9650    0.5798 H   0  0  0  0  0  0  0  0  0  0  0  0
   -2.2803   -1.2820    1.8060 H   0  0  0  0  0  0  0  0  0  0  0  0
   -1.3115    0.1765    1.9742 H   0  0  0  0  0  0  0  0  0  0  0  0
   -2.4176    0.4353   -0.5592 H   0  0  0  0  0  0  0  0  0  0  0  0
   -7.6463    3.3489    1.1093 H   0  0  0  0  0  0  0  0  0  0  0  0
   -7.4971    3.9591   -1.2414 H   0  0  0  0  0  0  0  0  0  0  0  0
   -5.6039    3.1576   -2.6808 H   0  0  0  0  0  0  0  0  0  0  0  0
    1.3203   -1.8818    1.0906 H   0  0  0  0  0  0  0  0  0  0  0  0
    0.2080   -1.2664    2.4238 H   0  0  0  0  0  0  0  0  0  0  0  0
   -1.4276   -3.0799    1.7236 H   0  0  0  0  0  0  0  0  0  0  0  0
    0.0980   -3.5531    2.6275 H   0  0  0  0  0  0  0  0  0  0  0  0
   -0.1919   -3.8162   -1.6015 H   0  0  0  0  0  0  0  0  0  0  0  0
    1.0623   -2.7258   -0.8770 H   0  0  0  0  0  0  0  0  0  0  0  0
   -1.1666   -1.6882   -1.6033 H   0  0  0  0  0  0  0  0  0  0  0  0
   -1.9232   -2.5795   -0.2820 H   0  0  0  0  0  0  0  0  0  0  0  0
   -0.5568    0.7255   -1.9534 H   0  0  0  0  0  0  0  0  0  0  0  0
    0.5606   -0.7353   -2.0347 H   0  0  0  0  0  0  0  0  0  0  0  0
    1.8026    0.9517   -2.8152 H   0  0  0  0  0  0  0  0  0  0  0  0
    1.1404    2.1802   -1.7013 H   0  0  0  0  0  0  0  0  0  0  0  0
  1  2  1  0
  2  3  1  0
  3  4  1  0
  4  5  2  0
  4  6  2  0
  4  7  1  0
  7  8  1  0
  8  9  1  0
  9 10  1  0
 10 11  1  0
 11 12  1  0
 12 13  1  0
 13 14  1  0
 14 15  2  0
 14 16  1  0
 16 17  2  0
 17 18  1  0
 17 19  1  0
 19 20  2  0
 20 21  1  0
 21 22  2  0
 22 23  1  0
 11 24  1  0
 24 25  1  0
 25 26  1  0
 26 27  1  0
 26 28  1  0
 26 29  1  0
 29 30  1  0
 10 31  1  0
 31 32  1  0
 32  7  1  0
 30 11  1  0
 22 16  1  0
  1 33  1  0
  1 34  1  0
  1 35  1  0
  2 36  1  0
  2 37  1  0
  3 38  1  0
  3 39  1  0
  8 40  1  0
  8 41  1  0
  9 42  1  0
  9 43  1  0
 12 44  1  0
 12 45  1  0
 13 46  1  0
 19 47  1  0
 20 48  1  0
 21 49  1  0
 24 50  1  0
 24 51  1  0
 25 52  1  0
 25 53  1  0
 29 54  1  0
 29 55  1  0
 30 56  1  0
 30 57  1  0
 31 58  1  0
 31 59  1  0
 32 60  1  0
 32 61  1  0
M  END
$$$$
