@<TRIPOS>MOLECULE
*****
 61 63 0 0 0
SMALL
GASTEIGER

@<TRIPOS>ATOM
      1 C           5.4228    1.1485    1.2770 C.3     1  UNL1       -0.0638
      2 C           5.9324    0.1534    0.3083 C.3     1  UNL1       -0.0350
      3 C           5.4592    0.2132   -1.0840 C.3     1  UNL1        0.0817
      4 S           3.8145   -0.0679   -1.4955 S.O2    1  UNL1        0.0319
      5 O           3.5089   -1.5258   -1.0521 O.2     1  UNL1       -0.1580
      6 O           3.6279   -0.1626   -3.0204 O.2     1  UNL1       -0.1580
      7 N           2.5991    0.8832   -0.8967 N.3     1  UNL1       -0.1787
      8 C           2.3253    0.9569    0.4684 C.3     1  UNL1        0.0329
      9 C           0.8017    0.9154    0.7641 C.3     1  UNL1        0.0139
     10 N           0.2436   -0.0385   -0.1111 N.3     1  UNL1       -0.2927
     11 C          -0.5728   -1.0484    0.4234 C.3     1  UNL1        0.0378
     12 C          -1.7457   -0.5269    1.2018 C.3     1  UNL1        0.0304
     13 N          -2.6535    0.2970    0.4302 N.am    1  UNL1       -0.3094
     14 C          -3.8096    0.8871    0.9756 C.2     1  UNL1        0.2497
     15 O          -3.9875    0.6293    2.2189 O.2     1  UNL1       -0.2700
     16 C          -4.7755    1.7245    0.2855 C.ar    1  UNL1        0.1068
     17 C          -5.8310    2.1882    1.0320 C.ar    1  UNL1        0.1383
     18 F          -5.9777    1.8823    2.3661 F       1  UNL1       -0.2046
     19 C          -6.8028    2.9849    0.4908 C.ar    1  UNL1       -0.0255
     20 C          -6.7149    3.3279   -0.8394 C.ar    1  UNL1       -0.0563
     21 C          -5.6750    2.8852   -1.6219 C.ar    1  UNL1       -0.0255
     22 C          -4.7022    2.0749   -1.0374 C.ar    1  UNL1        0.1383
     23 F          -3.6685    1.6355   -1.8175 F       1  UNL1       -0.2046
     24 C           0.2786   -1.8227    1.4451 C.3     1  UNL1       -0.0276
     25 C          -0.3452   -3.1773    1.6687 C.3     1  UNL1        0.0125
     26 C           0.0878   -4.0708    0.5118 C.3     1  UNL1        0.2491
     27 F          -0.7289   -5.1547    0.3853 F       1  UNL1       -0.2057
     28 F           1.3995   -4.4050    0.7448 F       1  UNL1       -0.2057
     29 C           0.0652   -3.1710   -0.7203 C.3     1  UNL1        0.0125
     30 C          -0.9689   -2.0731   -0.6057 C.3     1  UNL1       -0.0276
     31 C           0.3177    0.2003   -1.4905 C.3     1  UNL1        0.0139
     32 C           1.4899    1.1332   -1.7795 C.3     1  UNL1        0.0329
     33 H           4.9889    2.0403    0.7871 H       1  UNL1        0.0230
     34 H           6.3185    1.5583    1.8554 H       1  UNL1        0.0230
     35 H           4.7301    0.7036    2.0085 H       1  UNL1        0.0230
     36 H           5.8065   -0.8726    0.7647 H       1  UNL1        0.0279
     37 H           7.0671    0.2498    0.2602 H       1  UNL1        0.0279
     38 H           6.0782   -0.5716   -1.6527 H       1  UNL1        0.0515
     39 H           5.8776    1.1708   -1.5263 H       1  UNL1        0.0515
     40 H           2.7103    0.0793    1.0258 H       1  UNL1        0.0456
     41 H           2.6928    1.8651    1.0073 H       1  UNL1        0.0456
     42 H           0.6693    0.6089    1.8055 H       1  UNL1        0.0440
     43 H           0.4768    1.9650    0.5798 H       1  UNL1        0.0440
     44 H          -2.2803   -1.2820    1.8060 H       1  UNL1        0.0480
     45 H          -1.3115    0.1765    1.9742 H       1  UNL1        0.0480
     46 H          -2.4176    0.4353   -0.5592 H       1  UNL1        0.1491
     47 H          -7.6463    3.3489    1.1093 H       1  UNL1        0.0646
     48 H          -7.4971    3.9591   -1.2414 H       1  UNL1        0.0619
     49 H          -5.6039    3.1576   -2.6808 H       1  UNL1        0.0646
     50 H           1.3203   -1.8818    1.0906 H       1  UNL1        0.0285
     51 H           0.2080   -1.2664    2.4238 H       1  UNL1        0.0285
     52 H          -1.4276   -3.0799    1.7236 H       1  UNL1        0.0323
     53 H           0.0980   -3.5531    2.6275 H       1  UNL1        0.0323
     54 H          -0.1919   -3.8162   -1.6015 H       1  UNL1        0.0323
     55 H           1.0623   -2.7258   -0.8770 H       1  UNL1        0.0323
     56 H          -1.1666   -1.6882   -1.6033 H       1  UNL1        0.0285
     57 H          -1.9232   -2.5795   -0.2820 H       1  UNL1        0.0285
     58 H          -0.5568    0.7255   -1.9534 H       1  UNL1        0.0440
     59 H           0.5606   -0.7353   -2.0347 H       1  UNL1        0.0440
     60 H           1.8026    0.9517   -2.8152 H       1  UNL1        0.0456
     61 H           1.1404    2.1802   -1.7013 H       1  UNL1        0.0456
@<TRIPOS>BOND
     1     1     2    1
     2     2     3    1
     3     3     4    1
     4     4     5    2
     5     4     6    2
     6     4     7    1
     7     7     8    1
     8     8     9    1
     9     9    10    1
    10    10    11    1
    11    11    12    1
    12    12    13    1
    13    13    14   am
    14    14    15    2
    15    14    16    1
    16    16    17   ar
    17    17    18    1
    18    17    19   ar
    19    19    20   ar
    20    20    21   ar
    21    21    22   ar
    22    22    23    1
    23    11    24    1
    24    24    25    1
    25    25    26    1
    26    26    27    1
    27    26    28    1
    28    26    29    1
    29    29    30    1
    30    10    31    1
    31    31    32    1
    32    32     7    1
    33    30    11    1
    34    22    16   ar
    35     1    33    1
    36     1    34    1
    37     1    35    1
    38     2    36    1
    39     2    37    1
    40     3    38    1
    41     3    39    1
    42     8    40    1
    43     8    41    1
    44     9    42    1
    45     9    43    1
    46    12    44    1
    47    12    45    1
    48    13    46    1
    49    19    47    1
    50    20    48    1
    51    21    49    1
    52    24    50    1
    53    24    51    1
    54    25    52    1
    55    25    53    1
    56    29    54    1
    57    29    55    1
    58    30    56    1
    59    30    57    1
    60    31    58    1
    61    31    59    1
    62    32    60    1
    63    32    61    1
