@<TRIPOS>MOLECULE
*****
 63 67 0 0 0
SMALL
GASTEIGER

@<TRIPOS>ATOM
      1 C          -7.3276    3.6228   -1.7025 C.3     1  UNL1       -0.0045
      2 C          -6.6786    2.4251   -1.1251 C.ar    1  UNL1        0.1287
      3 N          -5.3460    2.3051   -1.1545 N.ar    1  UNL1       -0.2172
      4 C          -4.6894    1.2299   -0.6413 C.ar    1  UNL1        0.1304
      5 N          -3.2567    1.1896   -0.7189 N.pl3   1  UNL1       -0.3199
      6 C          -2.5938    2.3029   -1.3426 C.3     1  UNL1        0.0870
      7 C          -1.1449    2.1721   -1.3741 C.2     1  UNL1        0.2304
      8 O          -0.4157    3.0923   -1.9021 O.2     1  UNL1       -0.2741
      9 N          -0.4404    1.0885   -0.8596 N.am    1  UNL1       -0.3087
     10 C           1.0204    0.9926   -0.9099 C.3     1  UNL1        0.0486
     11 C           1.6186    0.6164    0.4313 C.3     1  UNL1        0.0189
     12 N           2.5768   -0.2011   -0.2903 N.3     1  UNL1       -0.2958
     13 C           2.8944   -1.4635    0.3227 C.3     1  UNL1        0.0107
     14 C           3.9031   -2.1580   -0.5793 C.3     1  UNL1       -0.0344
     15 C           5.1418   -1.3098   -0.7680 C.3     1  UNL1       -0.0179
     16 C           5.7389   -1.0520    0.5994 C.3     1  UNL1        0.0985
     17 O           5.9650   -2.2715    1.2545 O.3     1  UNL1       -0.3834
     18 C           6.9659   -0.2765    0.4837 C.ar    1  UNL1        0.0405
     19 C           7.3154    1.0236    0.4701 C.ar    1  UNL1        0.0406
     20 N           8.5895    1.3067    0.3405 N.ar    1  UNL1       -0.2553
     21 C           9.4855    0.6070    0.2332 C.ar    1  UNL1        0.0650
     22 S           8.5834   -1.0654    0.2985 S.2     1  UNL1       -0.0775
     23 C           4.7229   -0.2710    1.4006 C.3     1  UNL1       -0.0179
     24 C           3.5494   -1.1870    1.6772 C.3     1  UNL1       -0.0344
     25 C           1.5589   -0.3273   -1.3466 C.3     1  UNL1        0.0189
     26 C          -5.4546    0.2489   -0.0793 C.ar    1  UNL1        0.0407
     27 C          -4.8528   -0.8642    0.4574 C.ar    1  UNL1       -0.0376
     28 C          -5.6178   -1.8878    1.0415 C.ar    1  UNL1        0.0556
     29 C          -4.9005   -3.0439    1.5925 C.3     1  UNL1        0.4174
     30 F          -4.5950   -2.7634    2.9244 F       1  UNL1       -0.1659
     31 F          -5.5994   -4.2199    1.4656 F       1  UNL1       -0.1659
     32 F          -3.6687   -3.1987    0.9497 F       1  UNL1       -0.1659
     33 C          -6.9771   -1.7375    1.0570 C.ar    1  UNL1       -0.0481
     34 C          -7.6206   -0.6398    0.5312 C.ar    1  UNL1       -0.0350
     35 C          -6.8522    0.3489   -0.0350 C.ar    1  UNL1        0.0763
     36 N          -7.4147    1.4415   -0.5637 N.ar    1  UNL1       -0.2322
     37 H          -8.1278    3.9419   -1.0302 H       1  UNL1        0.0308
     38 H          -7.6994    3.4335   -2.7424 H       1  UNL1        0.0308
     39 H          -6.5934    4.4511   -1.7639 H       1  UNL1        0.0308
     40 H          -2.7636    0.3812   -0.3330 H       1  UNL1        0.1480
     41 H          -2.9355    3.2797   -0.9112 H       1  UNL1        0.0557
     42 H          -2.9481    2.3333   -2.4057 H       1  UNL1        0.0557
     43 H          -0.9019    0.2913   -0.4138 H       1  UNL1        0.1491
     44 H           1.5203    1.8532   -1.3914 H       1  UNL1        0.0523
     45 H           0.8626    0.0102    0.9941 H       1  UNL1        0.0445
     46 H           2.0624    1.4531    0.9993 H       1  UNL1        0.0445
     47 H           2.0277   -2.1447    0.4180 H       1  UNL1        0.0462
     48 H           4.2215   -3.1080   -0.1098 H       1  UNL1        0.0281
     49 H           3.3815   -2.3841   -1.5197 H       1  UNL1        0.0281
     50 H           5.8273   -1.8679   -1.4220 H       1  UNL1        0.0297
     51 H           4.8279   -0.3438   -1.1867 H       1  UNL1        0.0297
     52 H           6.8119   -2.1643    1.7859 H       1  UNL1        0.2106
     53 H           6.5539    1.8231    0.5649 H       1  UNL1        0.0839
     54 H          10.6034    0.5231    0.1136 H       1  UNL1        0.0907
     55 H           5.1394    0.1651    2.3192 H       1  UNL1        0.0297
     56 H           4.3290    0.5341    0.7266 H       1  UNL1        0.0297
     57 H           3.9098   -2.1660    2.0998 H       1  UNL1        0.0281
     58 H           2.7867   -0.7228    2.3297 H       1  UNL1        0.0281
     59 H           0.9065   -1.1807   -1.0871 H       1  UNL1        0.0445
     60 H           2.0662   -0.3724   -2.3126 H       1  UNL1        0.0445
     61 H          -3.7748   -0.9973    0.4523 H       1  UNL1        0.0631
     62 H          -7.5795   -2.5106    1.4999 H       1  UNL1        0.0624
     63 H          -8.6972   -0.5872    0.5780 H       1  UNL1        0.0639
@<TRIPOS>BOND
     1     1     2    1
     2     2     3   ar
     3     3     4   ar
     4     4     5    1
     5     5     6    1
     6     6     7    1
     7     7     8    2
     8     7     9   am
     9     9    10    1
    10    10    11    1
    11    11    12    1
    12    12    13    1
    13    13    14    1
    14    14    15    1
    15    15    16    1
    16    16    17    1
    17    16    18    1
    18    18    19   ar
    19    19    20   ar
    20    20    21   ar
    21    21    22   ar
    22    16    23    1
    23    23    24    1
    24    12    25    1
    25     4    26   ar
    26    26    27   ar
    27    27    28   ar
    28    28    29    1
    29    29    30    1
    30    29    31    1
    31    29    32    1
    32    28    33   ar
    33    33    34   ar
    34    34    35   ar
    35    35    36   ar
    36    36     2   ar
    37    25    10    1
    38    35    26   ar
    39    24    13    1
    40    22    18   ar
    41     1    37    1
    42     1    38    1
    43     1    39    1
    44     5    40    1
    45     6    41    1
    46     6    42    1
    47     9    43    1
    48    10    44    1
    49    11    45    1
    50    11    46    1
    51    13    47    1
    52    14    48    1
    53    14    49    1
    54    15    50    1
    55    15    51    1
    56    17    52    1
    57    19    53    1
    58    21    54    1
    59    23    55    1
    60    23    56    1
    61    24    57    1
    62    24    58    1
    63    25    59    1
    64    25    60    1
    65    27    61    1
    66    33    62    1
    67    34    63    1
