
     RDKit          3D

 63 67  0  0  0  0  0  0  0  0999 V2000
   -7.3276    3.6228   -1.7025 C   0  0  0  0  0  0  0  0  0  0  0  0
   -6.6786    2.4251   -1.1251 C   0  0  0  0  0  0  0  0  0  0  0  0
   -5.3460    2.3051   -1.1545 N   0  0  0  0  0  0  0  0  0  0  0  0
   -4.6894    1.2299   -0.6413 C   0  0  0  0  0  0  0  0  0  0  0  0
   -3.2567    1.1896   -0.7189 N   0  0  0  0  0  0  0  0  0  0  0  0
   -2.5938    2.3029   -1.3426 C   0  0  0  0  0  0  0  0  0  0  0  0
   -1.1449    2.1721   -1.3741 C   0  0  0  0  0  0  0  0  0  0  0  0
   -0.4157    3.0923   -1.9021 O   0  0  0  0  0  0  0  0  0  0  0  0
   -0.4404    1.0885   -0.8596 N   0  0  0  0  0  0  0  0  0  0  0  0
    1.0204    0.9926   -0.9099 C   0  0  0  0  0  0  0  0  0  0  0  0
    1.6186    0.6164    0.4313 C   0  0  0  0  0  0  0  0  0  0  0  0
    2.5768   -0.2011   -0.2903 N   0  0  0  0  0  0  0  0  0  0  0  0
    2.8944   -1.4635    0.3227 C   0  0  1  0  0  0  0  0  0  0  0  0
    3.9031   -2.1580   -0.5793 C   0  0  0  0  0  0  0  0  0  0  0  0
    5.1418   -1.3098   -0.7680 C   0  0  0  0  0  0  0  0  0  0  0  0
    5.7389   -1.0520    0.5994 C   0  0  1  0  0  0  0  0  0  0  0  0
    5.9650   -2.2715    1.2545 O   0  0  0  0  0  0  0  0  0  0  0  0
    6.9659   -0.2765    0.4837 C   0  0  0  0  0  0  0  0  0  0  0  0
    7.3154    1.0236    0.4701 C   0  0  0  0  0  0  0  0  0  0  0  0
    8.5895    1.3067    0.3405 N   0  0  0  0  0  0  0  0  0  0  0  0
    9.4855    0.6070    0.2332 C   0  0  0  0  0  0  0  0  0  0  0  0
    8.5834   -1.0654    0.2985 S   0  0  0  0  0  0  0  0  0  0  0  0
    4.7229   -0.2710    1.4006 C   0  0  0  0  0  0  0  0  0  0  0  0
    3.5494   -1.1870    1.6772 C   0  0  0  0  0  0  0  0  0  0  0  0
    1.5589   -0.3273   -1.3466 C   0  0  0  0  0  0  0  0  0  0  0  0
   -5.4546    0.2489   -0.0793 C   0  0  0  0  0  0  0  0  0  0  0  0
   -4.8528   -0.8642    0.4574 C   0  0  0  0  0  0  0  0  0  0  0  0
   -5.6178   -1.8878    1.0415 C   0  0  0  0  0  0  0  0  0  0  0  0
   -4.9005   -3.0439    1.5925 C   0  0  0  0  0  0  0  0  0  0  0  0
   -4.5950   -2.7634    2.9244 F   0  0  0  0  0  0  0  0  0  0  0  0
   -5.5994   -4.2199    1.4656 F   0  0  0  0  0  0  0  0  0  0  0  0
   -3.6687   -3.1987    0.9497 F   0  0  0  0  0  0  0  0  0  0  0  0
   -6.9771   -1.7375    1.0570 C   0  0  0  0  0  0  0  0  0  0  0  0
   -7.6206   -0.6398    0.5312 C   0  0  0  0  0  0  0  0  0  0  0  0
   -6.8522    0.3489   -0.0350 C   0  0  0  0  0  0  0  0  0  0  0  0
   -7.4147    1.4415   -0.5637 N   0  0  0  0  0  0  0  0  0  0  0  0
   -8.1278    3.9419   -1.0302 H   0  0  0  0  0  0  0  0  0  0  0  0
   -7.6994    3.4335   -2.7424 H   0  0  0  0  0  0  0  0  0  0  0  0
   -6.5934    4.4511   -1.7639 H   0  0  0  0  0  0  0  0  0  0  0  0
   -2.7636    0.3812   -0.3330 H   0  0  0  0  0  0  0  0  0  0  0  0
   -2.9355    3.2797   -0.9112 H   0  0  0  0  0  0  0  0  0  0  0  0
   -2.9481    2.3333   -2.4057 H   0  0  0  0  0  0  0  0  0  0  0  0
   -0.9019    0.2913   -0.4138 H   0  0  0  0  0  0  0  0  0  0  0  0
    1.5203    1.8532   -1.3914 H   0  0  0  0  0  0  0  0  0  0  0  0
    0.8626    0.0102    0.9941 H   0  0  0  0  0  0  0  0  0  0  0  0
    2.0624    1.4531    0.9993 H   0  0  0  0  0  0  0  0  0  0  0  0
    2.0277   -2.1447    0.4180 H   0  0  0  0  0  0  0  0  0  0  0  0
    4.2215   -3.1080   -0.1098 H   0  0  0  0  0  0  0  0  0  0  0  0
    3.3815   -2.3841   -1.5197 H   0  0  0  0  0  0  0  0  0  0  0  0
    5.8273   -1.8679   -1.4220 H   0  0  0  0  0  0  0  0  0  0  0  0
    4.8279   -0.3438   -1.1867 H   0  0  0  0  0  0  0  0  0  0  0  0
    6.8119   -2.1643    1.7859 H   0  0  0  0  0  0  0  0  0  0  0  0
    6.5539    1.8231    0.5649 H   0  0  0  0  0  0  0  0  0  0  0  0
   10.6034    0.5231    0.1136 H   0  0  0  0  0  0  0  0  0  0  0  0
    5.1394    0.1651    2.3192 H   0  0  0  0  0  0  0  0  0  0  0  0
    4.3290    0.5341    0.7266 H   0  0  0  0  0  0  0  0  0  0  0  0
    3.9098   -2.1660    2.0998 H   0  0  0  0  0  0  0  0  0  0  0  0
    2.7867   -0.7228    2.3297 H   0  0  0  0  0  0  0  0  0  0  0  0
    0.9065   -1.1807   -1.0871 H   0  0  0  0  0  0  0  0  0  0  0  0
    2.0662   -0.3724   -2.3126 H   0  0  0  0  0  0  0  0  0  0  0  0
   -3.7748   -0.9973    0.4523 H   0  0  0  0  0  0  0  0  0  0  0  0
   -7.5795   -2.5106    1.4999 H   0  0  0  0  0  0  0  0  0  0  0  0
   -8.6972   -0.5872    0.5780 H   0  0  0  0  0  0  0  0  0  0  0  0
  1  2  1  0
  2  3  2  0
  3  4  1  0
  4  5  1  0
  5  6  1  0
  6  7  1  0
  7  8  2  0
  7  9  1  0
  9 10  1  0
 10 11  1  0
 11 12  1  0
 12 13  1  0
 13 14  1  0
 14 15  1  0
 15 16  1  0
 16 17  1  1
 16 18  1  0
 18 19  2  0
 19 20  1  0
 20 21  2  0
 21 22  1  0
 16 23  1  0
 23 24  1  0
 12 25  1  0
  4 26  2  0
 26 27  1  0
 27 28  2  0
 28 29  1  0
 29 30  1  0
 29 31  1  0
 29 32  1  0
 28 33  1  0
 33 34  2  0
 34 35  1  0
 35 36  2  0
 36  2  1  0
 25 10  1  0
 35 26  1  0
 24 13  1  0
 22 18  1  0
  1 37  1  0
  1 38  1  0
  1 39  1  0
  5 40  1  0
  6 41  1  0
  6 42  1  0
  9 43  1  0
 10 44  1  0
 11 45  1  0
 11 46  1  0
 13 47  1  1
 14 48  1  0
 14 49  1  0
 15 50  1  0
 15 51  1  0
 17 52  1  0
 19 53  1  0
 21 54  1  0
 23 55  1  0
 23 56  1  0
 24 57  1  0
 24 58  1  0
 25 59  1  0
 25 60  1  0
 27 61  1  0
 33 62  1  0
 34 63  1  0
M  END
$$$$
