
     RDKit          3D

 35 36  0  0  0  0  0  0  0  0999 V2000
    7.4398    0.6019   -1.1607 O   0  0  0  0  0  0  0  0  0  0  0  0
    6.1025    0.4400   -0.8623 C   0  0  0  0  0  0  0  0  0  0  0  0
    5.3131   -0.6775   -1.1356 C   0  0  0  0  0  0  0  0  0  0  0  0
    3.9825   -0.6956   -0.7759 C   0  0  0  0  0  0  0  0  0  0  0  0
    3.4384    0.4019   -0.1429 C   0  0  0  0  0  0  0  0  0  0  0  0
    2.0279    0.3660    0.2311 C   0  0  0  0  0  0  0  0  0  0  0  0
    1.2470   -0.6128    0.0165 N   0  0  0  0  0  0  0  0  0  0  0  0
   -0.0777   -0.6419    0.3698 O   0  0  0  0  0  0  0  0  0  0  0  0
   -1.0877   -0.5219   -0.5825 C   0  0  0  0  0  0  0  0  0  0  0  0
   -0.9904   -0.3754   -1.8479 O   0  0  0  0  0  0  0  0  0  0  0  0
   -2.4476   -0.5759   -0.0124 C   0  0  0  0  0  0  0  0  0  0  0  0
   -2.6599    0.5591    0.9982 C   0  0  0  0  0  0  0  0  0  0  0  0
   -3.8250    0.1001    1.8305 C   0  0  0  0  0  0  0  0  0  0  0  0
   -4.9674   -0.4322    1.0472 C   0  0  0  0  0  0  0  0  0  0  0  0
   -4.8636   -0.4183   -0.4313 C   0  0  0  0  0  0  0  0  0  0  0  0
   -3.5189   -0.3367   -1.0448 C   0  0  0  0  0  0  0  0  0  0  0  0
    4.1655    1.5343    0.1542 C   0  0  0  0  0  0  0  0  0  0  0  0
    5.4931    1.5050   -0.2256 C   0  0  0  0  0  0  0  0  0  0  0  0
    8.0933    0.9446   -0.4460 H   0  0  0  0  0  0  0  0  0  0  0  0
    5.8431   -1.4920   -1.6402 H   0  0  0  0  0  0  0  0  0  0  0  0
    3.4066   -1.5848   -1.0078 H   0  0  0  0  0  0  0  0  0  0  0  0
    1.5485    1.1967    0.7289 H   0  0  0  0  0  0  0  0  0  0  0  0
   -2.6688   -1.5543    0.4641 H   0  0  0  0  0  0  0  0  0  0  0  0
   -1.7598    0.6608    1.6230 H   0  0  0  0  0  0  0  0  0  0  0  0
   -2.9638    1.4853    0.4672 H   0  0  0  0  0  0  0  0  0  0  0  0
   -4.1044    0.9892    2.4636 H   0  0  0  0  0  0  0  0  0  0  0  0
   -3.4244   -0.6361    2.5600 H   0  0  0  0  0  0  0  0  0  0  0  0
   -5.1899   -1.4658    1.4294 H   0  0  0  0  0  0  0  0  0  0  0  0
   -5.8756    0.1554    1.3383 H   0  0  0  0  0  0  0  0  0  0  0  0
   -5.4756    0.4273   -0.8653 H   0  0  0  0  0  0  0  0  0  0  0  0
   -5.3521   -1.3360   -0.8350 H   0  0  0  0  0  0  0  0  0  0  0  0
   -3.2964    0.6760   -1.4899 H   0  0  0  0  0  0  0  0  0  0  0  0
   -3.3381   -1.0567   -1.8893 H   0  0  0  0  0  0  0  0  0  0  0  0
    3.7300    2.3930    0.6521 H   0  0  0  0  0  0  0  0  0  0  0  0
    6.0558    2.4200    0.0213 H   0  0  0  0  0  0  0  0  0  0  0  0
  1  2  1  0
  2  3  2  0
  3  4  1  0
  4  5  2  0
  5  6  1  0
  6  7  2  0
  7  8  1  0
  8  9  1  0
  9 10  2  0
  9 11  1  0
 11 12  1  0
 12 13  1  0
 13 14  1  0
 14 15  1  0
 15 16  1  0
  5 17  1  0
 17 18  2  0
 18  2  1  0
 16 11  1  0
  1 19  1  0
  3 20  1  0
  4 21  1  0
  6 22  1  0
 11 23  1  0
 12 24  1  0
 12 25  1  0
 13 26  1  0
 13 27  1  0
 14 28  1  0
 14 29  1  0
 15 30  1  0
 15 31  1  0
 16 32  1  0
 16 33  1  0
 17 34  1  0
 18 35  1  0
M  END
$$$$
