@<TRIPOS>MOLECULE
*****
 22 23 0 0 0
SMALL
GASTEIGER

@<TRIPOS>ATOM
      1 CL         -4.6631    1.3329   -0.9539 Cl      1  UNL1       -0.0835
      2 C          -3.1091    0.7732   -0.3421 C.ar    1  UNL1        0.0410
      3 C          -2.7067   -0.5477   -0.5025 C.ar    1  UNL1       -0.0431
      4 C          -1.4790   -0.9869   -0.0183 C.ar    1  UNL1       -0.0555
      5 C          -0.6274   -0.1374    0.6304 C.ar    1  UNL1       -0.0276
      6 C           0.6783   -0.6344    1.1372 C.3     1  UNL1        0.0492
      7 N           1.7308   -0.4943    0.1406 N.ar    1  UNL1       -0.3325
      8 C           2.5380    0.5482   -0.0413 C.ar    1  UNL1        0.0244
      9 C           3.3739    0.2520   -1.0867 C.ar    1  UNL1        0.0454
     10 N           3.0641   -0.9741   -1.5315 N.ar    1  UNL1       -0.2441
     11 C           2.0550   -1.4172   -0.7683 C.ar    1  UNL1        0.0962
     12 C          -1.0285    1.1902    0.7932 C.ar    1  UNL1       -0.0555
     13 C          -2.2509    1.6323    0.3124 C.ar    1  UNL1       -0.0431
     14 H          -3.3951   -1.2075   -1.0195 H       1  UNL1        0.0632
     15 H          -1.2129   -2.0354   -0.1718 H       1  UNL1        0.0621
     16 H           0.5921   -1.6992    1.4928 H       1  UNL1        0.0541
     17 H           0.9854   -0.0421    2.0316 H       1  UNL1        0.0541
     18 H           2.5528    1.4898    0.5300 H       1  UNL1        0.0825
     19 H           4.1633    0.8546   -1.5243 H       1  UNL1        0.0845
     20 H           1.5738   -2.4070   -0.8895 H       1  UNL1        0.1029
     21 H          -0.3307    1.8340    1.3105 H       1  UNL1        0.0621
     22 H          -2.5042    2.6762    0.4709 H       1  UNL1        0.0632
@<TRIPOS>BOND
     1     1     2    1
     2     2     3   ar
     3     3     4   ar
     4     4     5   ar
     5     5     6    1
     6     6     7    1
     7     7     8   ar
     8     8     9   ar
     9     9    10   ar
    10    10    11   ar
    11     5    12   ar
    12    12    13   ar
    13    13     2   ar
    14    11     7   ar
    15     3    14    1
    16     4    15    1
    17     6    16    1
    18     6    17    1
    19     8    18    1
    20     9    19    1
    21    11    20    1
    22    12    21    1
    23    13    22    1
