
     RDKit          3D

 22 23  0  0  0  0  0  0  0  0999 V2000
   -4.6631    1.3329   -0.9539 Cl  0  0  0  0  0  0  0  0  0  0  0  0
   -3.1091    0.7732   -0.3421 C   0  0  0  0  0  0  0  0  0  0  0  0
   -2.7067   -0.5477   -0.5025 C   0  0  0  0  0  0  0  0  0  0  0  0
   -1.4790   -0.9869   -0.0183 C   0  0  0  0  0  0  0  0  0  0  0  0
   -0.6274   -0.1374    0.6304 C   0  0  0  0  0  0  0  0  0  0  0  0
    0.6783   -0.6344    1.1372 C   0  0  0  0  0  0  0  0  0  0  0  0
    1.7308   -0.4943    0.1406 N   0  0  0  0  0  0  0  0  0  0  0  0
    2.5380    0.5482   -0.0413 C   0  0  0  0  0  0  0  0  0  0  0  0
    3.3739    0.2520   -1.0867 C   0  0  0  0  0  0  0  0  0  0  0  0
    3.0641   -0.9741   -1.5315 N   0  0  0  0  0  0  0  0  0  0  0  0
    2.0550   -1.4172   -0.7683 C   0  0  0  0  0  0  0  0  0  0  0  0
   -1.0285    1.1902    0.7932 C   0  0  0  0  0  0  0  0  0  0  0  0
   -2.2509    1.6323    0.3124 C   0  0  0  0  0  0  0  0  0  0  0  0
   -3.3951   -1.2075   -1.0195 H   0  0  0  0  0  0  0  0  0  0  0  0
   -1.2129   -2.0354   -0.1718 H   0  0  0  0  0  0  0  0  0  0  0  0
    0.5921   -1.6992    1.4928 H   0  0  0  0  0  0  0  0  0  0  0  0
    0.9854   -0.0421    2.0316 H   0  0  0  0  0  0  0  0  0  0  0  0
    2.5528    1.4898    0.5300 H   0  0  0  0  0  0  0  0  0  0  0  0
    4.1633    0.8546   -1.5243 H   0  0  0  0  0  0  0  0  0  0  0  0
    1.5738   -2.4070   -0.8895 H   0  0  0  0  0  0  0  0  0  0  0  0
   -0.3307    1.8340    1.3105 H   0  0  0  0  0  0  0  0  0  0  0  0
   -2.5042    2.6762    0.4709 H   0  0  0  0  0  0  0  0  0  0  0  0
  1  2  1  0
  2  3  2  0
  3  4  1  0
  4  5  2  0
  5  6  1  0
  6  7  1  0
  7  8  1  0
  8  9  2  0
  9 10  1  0
 10 11  2  0
  5 12  1  0
 12 13  2  0
 13  2  1  0
 11  7  1  0
  3 14  1  0
  4 15  1  0
  6 16  1  0
  6 17  1  0
  8 18  1  0
  9 19  1  0
 11 20  1  0
 12 21  1  0
 13 22  1  0
M  END
$$$$
