@<TRIPOS>MOLECULE
*****
 53 56 0 0 0
SMALL
GASTEIGER

@<TRIPOS>ATOM
      1 N           6.0201    3.9032   -0.0446 N.am    1  UNL1       -0.3253
      2 C           6.5431    2.8475    0.7475 C.2     1  UNL1        0.2431
      3 O           7.2567    3.1425    1.7289 O.2     1  UNL1       -0.2704
      4 C           6.2508    1.4544    0.4184 C.ar    1  UNL1        0.0580
      5 C           6.7670    0.4227    1.1990 C.ar    1  UNL1        0.0399
      6 N           6.4897   -0.8543    0.8843 N.ar    1  UNL1       -0.2589
      7 C           5.7225   -1.1646   -0.1707 C.ar    1  UNL1        0.0692
      8 C           5.1738   -0.2319   -0.9906 C.ar    1  UNL1        0.1397
      9 O           4.3980   -0.4041   -2.0629 O.3     1  UNL1       -0.4858
     10 C           3.8258   -1.3865   -2.7892 C.3     1  UNL1        0.1148
     11 C           2.8622   -2.2051   -2.0054 C.ar    1  UNL1       -0.0087
     12 C           3.2206   -3.3842   -1.4258 C.ar    1  UNL1       -0.0552
     13 C           2.3207   -4.1299   -0.6927 C.ar    1  UNL1       -0.0596
     14 C           1.0397   -3.6818   -0.5410 C.ar    1  UNL1       -0.0404
     15 C           0.6559   -2.5061   -1.1107 C.ar    1  UNL1        0.0340
     16 N          -0.6658   -1.9623   -0.9985 N.am    1  UNL1       -0.2815
     17 C          -0.9846   -1.0928    0.0593 C.2     1  UNL1        0.2483
     18 O          -0.0538   -0.8272    0.8858 O.2     1  UNL1       -0.2699
     19 C          -2.3007   -0.4977    0.2454 C.ar    1  UNL1        0.0371
     20 C          -3.3511   -0.7619   -0.6083 C.ar    1  UNL1       -0.0491
     21 C          -4.6101   -0.1760   -0.4105 C.ar    1  UNL1       -0.0533
     22 C          -4.7852    0.6737    0.6564 C.ar    1  UNL1       -0.0178
     23 C          -6.0690    1.2933    0.8922 C.ar    1  UNL1       -0.0179
     24 C          -6.9136    1.6185   -0.1349 C.ar    1  UNL1       -0.0540
     25 C          -8.1380    2.2064    0.0369 C.ar    1  UNL1       -0.0612
     26 C          -8.5819    2.5059    1.3280 C.ar    1  UNL1       -0.0617
     27 C          -7.7477    2.1871    2.3751 C.ar    1  UNL1       -0.0612
     28 C          -6.5190    1.5955    2.1817 C.ar    1  UNL1       -0.0540
     29 C          -3.7320    0.9343    1.5065 C.ar    1  UNL1       -0.0533
     30 C          -2.4890    0.3650    1.3235 C.ar    1  UNL1       -0.0491
     31 C           1.5513   -1.7616   -1.8414 C.ar    1  UNL1       -0.0341
     32 C           5.4717    1.1052   -0.6508 C.ar    1  UNL1       -0.0048
     33 H           5.3932    4.6109    0.4350 H       1  UNL1        0.1453
     34 H           6.2076    4.0256   -1.0445 H       1  UNL1        0.1453
     35 H           7.3824    0.6574    2.0461 H       1  UNL1        0.0837
     36 H           5.5583   -2.1986   -0.3539 H       1  UNL1        0.0867
     37 H           3.2059   -0.9473   -3.6364 H       1  UNL1        0.0748
     38 H           4.5356   -2.1164   -3.2601 H       1  UNL1        0.0748
     39 H           4.2471   -3.7708   -1.5396 H       1  UNL1        0.0621
     40 H           2.6678   -5.0618   -0.2548 H       1  UNL1        0.0618
     41 H           0.3258   -4.2575    0.0312 H       1  UNL1        0.0636
     42 H          -1.3820   -2.2181   -1.7061 H       1  UNL1        0.1551
     43 H          -3.2249   -1.4258   -1.4472 H       1  UNL1        0.0625
     44 H          -5.4032   -0.4175   -1.1118 H       1  UNL1        0.0624
     45 H          -6.5773    1.3882   -1.1605 H       1  UNL1        0.0624
     46 H          -8.8149    2.4684   -0.7622 H       1  UNL1        0.0618
     47 H          -9.5394    2.9687    1.5074 H       1  UNL1        0.0618
     48 H          -8.1029    2.4261    3.3880 H       1  UNL1        0.0618
     49 H          -5.8610    1.3431    3.0010 H       1  UNL1        0.0624
     50 H          -3.9180    1.6086    2.3307 H       1  UNL1        0.0624
     51 H          -1.6967    0.5947    2.0085 H       1  UNL1        0.0625
     52 H           1.3013   -0.8205   -2.3163 H       1  UNL1        0.0640
     53 H           5.0672    1.9156   -1.2626 H       1  UNL1        0.0663
@<TRIPOS>BOND
     1     1     2   am
     2     2     3    2
     3     2     4    1
     4     4     5   ar
     5     5     6   ar
     6     6     7   ar
     7     7     8   ar
     8     8     9    1
     9     9    10    1
    10    10    11    1
    11    11    12   ar
    12    12    13   ar
    13    13    14   ar
    14    14    15   ar
    15    15    16    1
    16    16    17   am
    17    17    18    2
    18    17    19    1
    19    19    20   ar
    20    20    21   ar
    21    21    22   ar
    22    22    23    1
    23    23    24   ar
    24    24    25   ar
    25    25    26   ar
    26    26    27   ar
    27    27    28   ar
    28    22    29   ar
    29    29    30   ar
    30    15    31   ar
    31     8    32   ar
    32    32     4   ar
    33    31    11   ar
    34    30    19   ar
    35    28    23   ar
    36     1    33    1
    37     1    34    1
    38     5    35    1
    39     7    36    1
    40    10    37    1
    41    10    38    1
    42    12    39    1
    43    13    40    1
    44    14    41    1
    45    16    42    1
    46    20    43    1
    47    21    44    1
    48    24    45    1
    49    25    46    1
    50    26    47    1
    51    27    48    1
    52    28    49    1
    53    29    50    1
    54    30    51    1
    55    31    52    1
    56    32    53    1
