
     RDKit          3D

 53 56  0  0  0  0  0  0  0  0999 V2000
    6.0201    3.9032   -0.0446 N   0  0  0  0  0  0  0  0  0  0  0  0
    6.5431    2.8475    0.7475 C   0  0  0  0  0  0  0  0  0  0  0  0
    7.2567    3.1425    1.7289 O   0  0  0  0  0  0  0  0  0  0  0  0
    6.2508    1.4544    0.4184 C   0  0  0  0  0  0  0  0  0  0  0  0
    6.7670    0.4227    1.1990 C   0  0  0  0  0  0  0  0  0  0  0  0
    6.4897   -0.8543    0.8843 N   0  0  0  0  0  0  0  0  0  0  0  0
    5.7225   -1.1646   -0.1707 C   0  0  0  0  0  0  0  0  0  0  0  0
    5.1738   -0.2319   -0.9906 C   0  0  0  0  0  0  0  0  0  0  0  0
    4.3980   -0.4041   -2.0629 O   0  0  0  0  0  0  0  0  0  0  0  0
    3.8258   -1.3865   -2.7892 C   0  0  0  0  0  0  0  0  0  0  0  0
    2.8622   -2.2051   -2.0054 C   0  0  0  0  0  0  0  0  0  0  0  0
    3.2206   -3.3842   -1.4258 C   0  0  0  0  0  0  0  0  0  0  0  0
    2.3207   -4.1299   -0.6927 C   0  0  0  0  0  0  0  0  0  0  0  0
    1.0397   -3.6818   -0.5410 C   0  0  0  0  0  0  0  0  0  0  0  0
    0.6559   -2.5061   -1.1107 C   0  0  0  0  0  0  0  0  0  0  0  0
   -0.6658   -1.9623   -0.9985 N   0  0  0  0  0  0  0  0  0  0  0  0
   -0.9846   -1.0928    0.0593 C   0  0  0  0  0  0  0  0  0  0  0  0
   -0.0538   -0.8272    0.8858 O   0  0  0  0  0  0  0  0  0  0  0  0
   -2.3007   -0.4977    0.2454 C   0  0  0  0  0  0  0  0  0  0  0  0
   -3.3511   -0.7619   -0.6083 C   0  0  0  0  0  0  0  0  0  0  0  0
   -4.6101   -0.1760   -0.4105 C   0  0  0  0  0  0  0  0  0  0  0  0
   -4.7852    0.6737    0.6564 C   0  0  0  0  0  0  0  0  0  0  0  0
   -6.0690    1.2933    0.8922 C   0  0  0  0  0  0  0  0  0  0  0  0
   -6.9136    1.6185   -0.1349 C   0  0  0  0  0  0  0  0  0  0  0  0
   -8.1380    2.2064    0.0369 C   0  0  0  0  0  0  0  0  0  0  0  0
   -8.5819    2.5059    1.3280 C   0  0  0  0  0  0  0  0  0  0  0  0
   -7.7477    2.1871    2.3751 C   0  0  0  0  0  0  0  0  0  0  0  0
   -6.5190    1.5955    2.1817 C   0  0  0  0  0  0  0  0  0  0  0  0
   -3.7320    0.9343    1.5065 C   0  0  0  0  0  0  0  0  0  0  0  0
   -2.4890    0.3650    1.3235 C   0  0  0  0  0  0  0  0  0  0  0  0
    1.5513   -1.7616   -1.8414 C   0  0  0  0  0  0  0  0  0  0  0  0
    5.4717    1.1052   -0.6508 C   0  0  0  0  0  0  0  0  0  0  0  0
    5.3932    4.6109    0.4350 H   0  0  0  0  0  0  0  0  0  0  0  0
    6.2076    4.0256   -1.0445 H   0  0  0  0  0  0  0  0  0  0  0  0
    7.3824    0.6574    2.0461 H   0  0  0  0  0  0  0  0  0  0  0  0
    5.5583   -2.1986   -0.3539 H   0  0  0  0  0  0  0  0  0  0  0  0
    3.2059   -0.9473   -3.6364 H   0  0  0  0  0  0  0  0  0  0  0  0
    4.5356   -2.1164   -3.2601 H   0  0  0  0  0  0  0  0  0  0  0  0
    4.2471   -3.7708   -1.5396 H   0  0  0  0  0  0  0  0  0  0  0  0
    2.6678   -5.0618   -0.2548 H   0  0  0  0  0  0  0  0  0  0  0  0
    0.3258   -4.2575    0.0312 H   0  0  0  0  0  0  0  0  0  0  0  0
   -1.3820   -2.2181   -1.7061 H   0  0  0  0  0  0  0  0  0  0  0  0
   -3.2249   -1.4258   -1.4472 H   0  0  0  0  0  0  0  0  0  0  0  0
   -5.4032   -0.4175   -1.1118 H   0  0  0  0  0  0  0  0  0  0  0  0
   -6.5773    1.3882   -1.1605 H   0  0  0  0  0  0  0  0  0  0  0  0
   -8.8149    2.4684   -0.7622 H   0  0  0  0  0  0  0  0  0  0  0  0
   -9.5394    2.9687    1.5074 H   0  0  0  0  0  0  0  0  0  0  0  0
   -8.1029    2.4261    3.3880 H   0  0  0  0  0  0  0  0  0  0  0  0
   -5.8610    1.3431    3.0010 H   0  0  0  0  0  0  0  0  0  0  0  0
   -3.9180    1.6086    2.3307 H   0  0  0  0  0  0  0  0  0  0  0  0
   -1.6967    0.5947    2.0085 H   0  0  0  0  0  0  0  0  0  0  0  0
    1.3013   -0.8205   -2.3163 H   0  0  0  0  0  0  0  0  0  0  0  0
    5.0672    1.9156   -1.2626 H   0  0  0  0  0  0  0  0  0  0  0  0
  1  2  1  0
  2  3  2  0
  2  4  1  0
  4  5  2  0
  5  6  1  0
  6  7  2  0
  7  8  1  0
  8  9  1  0
  9 10  1  0
 10 11  1  0
 11 12  2  0
 12 13  1  0
 13 14  2  0
 14 15  1  0
 15 16  1  0
 16 17  1  0
 17 18  2  0
 17 19  1  0
 19 20  2  0
 20 21  1  0
 21 22  2  0
 22 23  1  0
 23 24  2  0
 24 25  1  0
 25 26  2  0
 26 27  1  0
 27 28  2  0
 22 29  1  0
 29 30  2  0
 15 31  2  0
  8 32  2  0
 32  4  1  0
 31 11  1  0
 30 19  1  0
 28 23  1  0
  1 33  1  0
  1 34  1  0
  5 35  1  0
  7 36  1  0
 10 37  1  0
 10 38  1  0
 12 39  1  0
 13 40  1  0
 14 41  1  0
 16 42  1  0
 20 43  1  0
 21 44  1  0
 24 45  1  0
 25 46  1  0
 26 47  1  0
 27 48  1  0
 28 49  1  0
 29 50  1  0
 30 51  1  0
 31 52  1  0
 32 53  1  0
M  END
$$$$
