@<TRIPOS>MOLECULE
*****
 43 44 0 0 0
SMALL
GASTEIGER

@<TRIPOS>ATOM
      1 C          -0.7009   -0.9399    0.4003 C.3     1  UNL1        0.1527
      2 N           0.2617   -0.0866   -0.2198 N.am    1  UNL1       -0.2632
      3 C           1.4282    0.5453    0.3443 C.2     1  UNL1        0.4015
      4 O           1.7132    0.3733    1.5497 O.2     1  UNL1       -0.2264
      5 O           2.1062    1.2960   -0.5820 O.3     1  UNL1       -0.4456
      6 C           3.2802    2.0040   -0.2573 C.3     1  UNL1        0.1191
      7 C           4.3667    1.1457    0.2145 C.ar    1  UNL1       -0.0103
      8 C           5.1263    0.6181   -0.8311 C.ar    1  UNL1       -0.0554
      9 C           6.2155   -0.2169   -0.6022 C.ar    1  UNL1       -0.0614
     10 C           6.5894   -0.5577    0.6702 C.ar    1  UNL1       -0.0617
     11 C           5.8392   -0.0363    1.6993 C.ar    1  UNL1       -0.0614
     12 C           4.7697    0.7840    1.4738 C.ar    1  UNL1       -0.0554
     13 C          -2.0822   -0.4149    0.3794 C.ar    1  UNL1       -0.0155
     14 C          -2.9364   -0.4270    1.4571 C.ar    1  UNL1       -0.0554
     15 C          -4.2249    0.0632    1.4358 C.ar    1  UNL1       -0.0466
     16 C          -4.7007    0.6111    0.2399 C.ar    1  UNL1        0.0647
     17 C          -3.8949    0.6546   -0.8805 C.ar    1  UNL1       -0.0466
     18 C          -2.5972    0.1398   -0.7910 C.ar    1  UNL1       -0.0554
     19 C          -6.0533    1.1632    0.0961 C.2     1  UNL1        0.3081
     20 N          -6.7125    1.7435    1.1945 N.pl3   1  UNL1       -0.2466
     21 N          -6.7568    1.1817   -0.9875 N.2     1  UNL1       -0.0994
     22 P          -0.6609   -2.6020   -0.3222 P.3     1  UNL1        0.3523
     23 O          -0.9898   -2.5757   -1.9757 O.3     1  UNL1       -0.3226
     24 O           0.8727   -3.2597   -0.0324 O.3     1  UNL1       -0.3226
     25 O          -1.7020   -3.4696    0.3357 O.2     1  UNL1       -0.2565
     26 H          -0.4243   -1.0775    1.4741 H       1  UNL1        0.0677
     27 H          -0.0554   -0.0015   -1.2133 H       1  UNL1        0.1532
     28 H           3.0413    2.7060    0.5929 H       1  UNL1        0.0749
     29 H           3.5906    2.6201   -1.1090 H       1  UNL1        0.0749
     30 H           4.9485    0.8007   -1.8881 H       1  UNL1        0.0621
     31 H           6.8123   -0.6321   -1.4060 H       1  UNL1        0.0618
     32 H           7.4280   -1.2008    0.8462 H       1  UNL1        0.0618
     33 H           6.1086   -0.2860    2.7096 H       1  UNL1        0.0618
     34 H           4.1797    1.2062    2.2579 H       1  UNL1        0.0621
     35 H          -2.5723   -0.8556    2.4026 H       1  UNL1        0.0621
     36 H          -4.8850    0.0466    2.2921 H       1  UNL1        0.0626
     37 H          -4.2594    1.0775   -1.8069 H       1  UNL1        0.0626
     38 H          -2.0237    0.2080   -1.7091 H       1  UNL1        0.0621
     39 H          -7.0467    0.9152    1.7193 H       1  UNL1        0.2884
     40 H          -6.8683    2.7212    1.4780 H       1  UNL1        0.2884
     41 H          -6.4499    0.8028   -1.9071 H       1  UNL1        0.3633
     42 H          -1.1340   -3.5237   -2.2367 H       1  UNL1        0.2198
     43 H           1.0537   -3.2643    0.9361 H       1  UNL1        0.2198
@<TRIPOS>BOND
     1     1     2    1
     2     2     3   am
     3     3     4    2
     4     3     5    1
     5     5     6    1
     6     6     7    1
     7     7     8   ar
     8     8     9   ar
     9     9    10   ar
    10    10    11   ar
    11    11    12   ar
    12     1    13    1
    13    13    14   ar
    14    14    15   ar
    15    15    16   ar
    16    16    17   ar
    17    17    18   ar
    18    16    19    1
    19    19    20    1
    20    19    21    2
    21     1    22    1
    22    22    23    1
    23    22    24    1
    24    22    25    2
    25    12     7   ar
    26    18    13   ar
    27     1    26    1
    28     2    27    1
    29     6    28    1
    30     6    29    1
    31     8    30    1
    32     9    31    1
    33    10    32    1
    34    11    33    1
    35    12    34    1
    36    14    35    1
    37    15    36    1
    38    17    37    1
    39    18    38    1
    40    20    39    1
    41    20    40    1
    42    21    41    1
    43    23    42    1
    44    24    43    1
