@<TRIPOS>MOLECULE
*****
 64 68 0 0 0
SMALL
GASTEIGER

@<TRIPOS>ATOM
      1 C          -3.7485    3.1940    0.7209 C.3     1  UNL1       -0.0306
      2 C          -3.3872    2.8306   -0.7259 C.3     1  UNL1        0.0897
      3 O          -3.1788    1.4451   -0.7550 O.3     1  UNL1       -0.4637
      4 C          -2.8251    0.7962   -1.9308 C.2     1  UNL1        0.3271
      5 O          -2.7041    1.5143   -2.9542 O.2     1  UNL1       -0.2488
      6 C          -2.6068   -0.6743   -1.9464 C.3     1  UNL1        0.1210
      7 N          -2.8608   -1.1758   -0.6090 N.ar    1  UNL1       -0.3250
      8 C          -4.1336   -1.5113   -0.2334 C.ar    1  UNL1        0.0526
      9 C          -5.3433   -1.4682   -0.8718 C.ar    1  UNL1       -0.0311
     10 C          -6.5253   -1.8698   -0.2738 C.ar    1  UNL1        0.0176
     11 C          -6.5201   -2.3388    1.0196 C.ar    1  UNL1        0.2739
     12 N          -7.7015   -2.7655    1.6868 N.pl3   1  UNL1        0.0796
     13 O          -8.7821   -2.7191    1.0783 O.2     1  UNL1        0.0414
     14 O          -7.6727   -3.2212    2.9657 O.co2   1  UNL1       -0.5760
     15 C          -5.2900   -2.3828    1.6690 C.ar    1  UNL1        0.0268
     16 C          -4.1160   -1.9794    1.0627 C.ar    1  UNL1        0.0324
     17 C          -2.7946   -1.9136    1.4482 C.ar    1  UNL1        0.1017
     18 N          -2.1696   -2.2477    2.5857 N.ar    1  UNL1       -0.2331
     19 C          -0.8388   -2.1163    2.7438 C.ar    1  UNL1        0.1189
     20 N          -0.1213   -1.6377    1.7351 N.ar    1  UNL1       -0.2186
     21 C          -0.6678   -1.2649    0.5266 C.ar    1  UNL1        0.1489
     22 N           0.1859   -0.7535   -0.4557 N.pl3   1  UNL1       -0.3110
     23 C           0.2847    0.6295   -0.7581 C.3     1  UNL1        0.0264
     24 C           1.7450    1.0966   -0.6338 C.3     1  UNL1        0.0147
     25 N           2.6344    0.1440   -1.2061 N.3     1  UNL1       -0.2990
     26 C           4.0051    0.6050   -1.1844 C.3     1  UNL1        0.0030
     27 C           4.4956    0.6580    0.2074 C.3     1  UNL1       -0.0148
     28 C           5.8933    1.1006    0.3694 C.ar    1  UNL1       -0.0433
     29 C           6.8807    0.1306    0.3527 C.ar    1  UNL1       -0.0556
     30 C           8.2244    0.4526    0.5030 C.ar    1  UNL1       -0.0233
     31 C           8.6123    1.7621    0.6745 C.ar    1  UNL1        0.1584
     32 F           9.9370    2.0834    0.8247 F       1  UNL1       -0.2025
     33 C           7.6253    2.7332    0.6911 C.ar    1  UNL1        0.1587
     34 F           8.0049    4.0220    0.8597 F       1  UNL1       -0.2025
     35 C           6.2925    2.3939    0.5399 C.ar    1  UNL1       -0.0204
     36 C           2.4777   -1.2042   -0.7781 C.3     1  UNL1        0.0147
     37 C           1.0681   -1.6568   -1.2043 C.3     1  UNL1        0.0264
     38 C          -2.0206   -1.4108    0.3982 C.ar    1  UNL1        0.1096
     39 H          -3.3592    4.2236    0.8906 H       1  UNL1        0.0262
     40 H          -4.8160    3.0788    0.9270 H       1  UNL1        0.0262
     41 H          -3.1389    2.5057    1.3761 H       1  UNL1        0.0262
     42 H          -2.4869    3.4116   -1.0364 H       1  UNL1        0.0694
     43 H          -4.2040    3.1667   -1.3956 H       1  UNL1        0.0694
     44 H          -1.5983   -0.8589   -2.3108 H       1  UNL1        0.0608
     45 H          -3.3293   -1.1596   -2.6541 H       1  UNL1        0.0608
     46 H          -5.4063   -1.1096   -1.8868 H       1  UNL1        0.0640
     47 H          -7.4655   -1.8290   -0.7889 H       1  UNL1        0.0686
     48 H          -5.2630   -2.7495    2.6893 H       1  UNL1        0.0692
     49 H          -0.3445   -2.3954    3.6821 H       1  UNL1        0.1048
     50 H          -0.3393    1.2291   -0.0968 H       1  UNL1        0.0477
     51 H          -0.0008    0.8212   -1.8045 H       1  UNL1        0.0477
     52 H           1.9112    1.2444    0.4457 H       1  UNL1        0.0442
     53 H           1.8040    2.0498   -1.1517 H       1  UNL1        0.0442
     54 H           4.0285    1.5694   -1.7265 H       1  UNL1        0.0430
     55 H           4.5849   -0.1111   -1.8342 H       1  UNL1        0.0430
     56 H           4.4023   -0.3491    0.6617 H       1  UNL1        0.0326
     57 H           3.8741    1.4044    0.7651 H       1  UNL1        0.0326
     58 H           6.6380   -0.9048    0.2226 H       1  UNL1        0.0621
     59 H           9.0122   -0.2946    0.4932 H       1  UNL1        0.0647
     60 H           5.5509    3.1737    0.5575 H       1  UNL1        0.0650
     61 H           3.2388   -1.8319   -1.2620 H       1  UNL1        0.0442
     62 H           2.4989   -1.3408    0.3224 H       1  UNL1        0.0442
     63 H           0.9180   -1.5199   -2.2890 H       1  UNL1        0.0477
     64 H           0.9320   -2.7041   -0.9382 H       1  UNL1        0.0477
@<TRIPOS>UNITY_ATOM_ATTR
12 1
charge 1
14 1
charge -1
@<TRIPOS>BOND
     1     1     2    1
     2     2     3    1
     3     3     4    1
     4     4     5    2
     5     4     6    1
     6     6     7    1
     7     7     8   ar
     8     8     9   ar
     9     9    10   ar
    10    10    11   ar
    11    11    12    1
    12    12    13    2
    13    12    14    1
    14    11    15   ar
    15    15    16   ar
    16    16    17   ar
    17    17    18   ar
    18    18    19   ar
    19    19    20   ar
    20    20    21   ar
    21    21    22    1
    22    22    23    1
    23    23    24    1
    24    24    25    1
    25    25    26    1
    26    26    27    1
    27    27    28    1
    28    28    29   ar
    29    29    30   ar
    30    30    31   ar
    31    31    32    1
    32    31    33   ar
    33    33    34    1
    34    33    35   ar
    35    25    36    1
    36    36    37    1
    37    21    38   ar
    38    38     7   ar
    39    16     8   ar
    40    38    17   ar
    41    37    22    1
    42    35    28   ar
    43     1    39    1
    44     1    40    1
    45     1    41    1
    46     2    42    1
    47     2    43    1
    48     6    44    1
    49     6    45    1
    50     9    46    1
    51    10    47    1
    52    15    48    1
    53    19    49    1
    54    23    50    1
    55    23    51    1
    56    24    52    1
    57    24    53    1
    58    26    54    1
    59    26    55    1
    60    27    56    1
    61    27    57    1
    62    29    58    1
    63    30    59    1
    64    35    60    1
    65    36    61    1
    66    36    62    1
    67    37    63    1
    68    37    64    1
