
     RDKit          3D

 64 68  0  0  0  0  0  0  0  0999 V2000
   -3.7485    3.1940    0.7209 C   0  0  0  0  0  0  0  0  0  0  0  0
   -3.3872    2.8306   -0.7259 C   0  0  0  0  0  0  0  0  0  0  0  0
   -3.1788    1.4451   -0.7550 O   0  0  0  0  0  0  0  0  0  0  0  0
   -2.8251    0.7962   -1.9308 C   0  0  0  0  0  0  0  0  0  0  0  0
   -2.7041    1.5143   -2.9542 O   0  0  0  0  0  0  0  0  0  0  0  0
   -2.6068   -0.6743   -1.9464 C   0  0  0  0  0  0  0  0  0  0  0  0
   -2.8608   -1.1758   -0.6090 N   0  0  0  0  0  0  0  0  0  0  0  0
   -4.1336   -1.5113   -0.2334 C   0  0  0  0  0  0  0  0  0  0  0  0
   -5.3433   -1.4682   -0.8718 C   0  0  0  0  0  0  0  0  0  0  0  0
   -6.5253   -1.8698   -0.2738 C   0  0  0  0  0  0  0  0  0  0  0  0
   -6.5201   -2.3388    1.0196 C   0  0  0  0  0  0  0  0  0  0  0  0
   -7.7015   -2.7655    1.6868 N   0  0  0  0  0  4  0  0  0  0  0  0
   -8.7821   -2.7191    1.0783 O   0  0  0  0  0  0  0  0  0  0  0  0
   -7.6727   -3.2212    2.9657 O   0  0  0  0  0  1  0  0  0  0  0  0
   -5.2900   -2.3828    1.6690 C   0  0  0  0  0  0  0  0  0  0  0  0
   -4.1160   -1.9794    1.0627 C   0  0  0  0  0  0  0  0  0  0  0  0
   -2.7946   -1.9136    1.4482 C   0  0  0  0  0  0  0  0  0  0  0  0
   -2.1696   -2.2477    2.5857 N   0  0  0  0  0  0  0  0  0  0  0  0
   -0.8388   -2.1163    2.7438 C   0  0  0  0  0  0  0  0  0  0  0  0
   -0.1213   -1.6377    1.7351 N   0  0  0  0  0  0  0  0  0  0  0  0
   -0.6678   -1.2649    0.5266 C   0  0  0  0  0  0  0  0  0  0  0  0
    0.1859   -0.7535   -0.4557 N   0  0  0  0  0  0  0  0  0  0  0  0
    0.2847    0.6295   -0.7581 C   0  0  0  0  0  0  0  0  0  0  0  0
    1.7450    1.0966   -0.6338 C   0  0  0  0  0  0  0  0  0  0  0  0
    2.6344    0.1440   -1.2061 N   0  0  0  0  0  0  0  0  0  0  0  0
    4.0051    0.6050   -1.1844 C   0  0  0  0  0  0  0  0  0  0  0  0
    4.4956    0.6580    0.2074 C   0  0  0  0  0  0  0  0  0  0  0  0
    5.8933    1.1006    0.3694 C   0  0  0  0  0  0  0  0  0  0  0  0
    6.8807    0.1306    0.3527 C   0  0  0  0  0  0  0  0  0  0  0  0
    8.2244    0.4526    0.5030 C   0  0  0  0  0  0  0  0  0  0  0  0
    8.6123    1.7621    0.6745 C   0  0  0  0  0  0  0  0  0  0  0  0
    9.9370    2.0834    0.8247 F   0  0  0  0  0  0  0  0  0  0  0  0
    7.6253    2.7332    0.6911 C   0  0  0  0  0  0  0  0  0  0  0  0
    8.0049    4.0220    0.8597 F   0  0  0  0  0  0  0  0  0  0  0  0
    6.2925    2.3939    0.5399 C   0  0  0  0  0  0  0  0  0  0  0  0
    2.4777   -1.2042   -0.7781 C   0  0  0  0  0  0  0  0  0  0  0  0
    1.0681   -1.6568   -1.2043 C   0  0  0  0  0  0  0  0  0  0  0  0
   -2.0206   -1.4108    0.3982 C   0  0  0  0  0  0  0  0  0  0  0  0
   -3.3592    4.2236    0.8906 H   0  0  0  0  0  0  0  0  0  0  0  0
   -4.8160    3.0788    0.9270 H   0  0  0  0  0  0  0  0  0  0  0  0
   -3.1389    2.5057    1.3761 H   0  0  0  0  0  0  0  0  0  0  0  0
   -2.4869    3.4116   -1.0364 H   0  0  0  0  0  0  0  0  0  0  0  0
   -4.2040    3.1667   -1.3956 H   0  0  0  0  0  0  0  0  0  0  0  0
   -1.5983   -0.8589   -2.3108 H   0  0  0  0  0  0  0  0  0  0  0  0
   -3.3293   -1.1596   -2.6541 H   0  0  0  0  0  0  0  0  0  0  0  0
   -5.4063   -1.1096   -1.8868 H   0  0  0  0  0  0  0  0  0  0  0  0
   -7.4655   -1.8290   -0.7889 H   0  0  0  0  0  0  0  0  0  0  0  0
   -5.2630   -2.7495    2.6893 H   0  0  0  0  0  0  0  0  0  0  0  0
   -0.3445   -2.3954    3.6821 H   0  0  0  0  0  0  0  0  0  0  0  0
   -0.3393    1.2291   -0.0968 H   0  0  0  0  0  0  0  0  0  0  0  0
   -0.0008    0.8212   -1.8045 H   0  0  0  0  0  0  0  0  0  0  0  0
    1.9112    1.2444    0.4457 H   0  0  0  0  0  0  0  0  0  0  0  0
    1.8040    2.0498   -1.1517 H   0  0  0  0  0  0  0  0  0  0  0  0
    4.0285    1.5694   -1.7265 H   0  0  0  0  0  0  0  0  0  0  0  0
    4.5849   -0.1111   -1.8342 H   0  0  0  0  0  0  0  0  0  0  0  0
    4.4023   -0.3491    0.6617 H   0  0  0  0  0  0  0  0  0  0  0  0
    3.8741    1.4044    0.7651 H   0  0  0  0  0  0  0  0  0  0  0  0
    6.6380   -0.9048    0.2226 H   0  0  0  0  0  0  0  0  0  0  0  0
    9.0122   -0.2946    0.4932 H   0  0  0  0  0  0  0  0  0  0  0  0
    5.5509    3.1737    0.5575 H   0  0  0  0  0  0  0  0  0  0  0  0
    3.2388   -1.8319   -1.2620 H   0  0  0  0  0  0  0  0  0  0  0  0
    2.4989   -1.3408    0.3224 H   0  0  0  0  0  0  0  0  0  0  0  0
    0.9180   -1.5199   -2.2890 H   0  0  0  0  0  0  0  0  0  0  0  0
    0.9320   -2.7041   -0.9382 H   0  0  0  0  0  0  0  0  0  0  0  0
  1  2  1  0
  2  3  1  0
  3  4  1  0
  4  5  2  0
  4  6  1  0
  6  7  1  0
  7  8  1  0
  8  9  2  0
  9 10  1  0
 10 11  2  0
 11 12  1  0
 12 13  2  0
 12 14  1  0
 11 15  1  0
 15 16  2  0
 16 17  1  0
 17 18  2  0
 18 19  1  0
 19 20  2  0
 20 21  1  0
 21 22  1  0
 22 23  1  0
 23 24  1  0
 24 25  1  0
 25 26  1  0
 26 27  1  0
 27 28  1  0
 28 29  2  0
 29 30  1  0
 30 31  2  0
 31 32  1  0
 31 33  1  0
 33 34  1  0
 33 35  2  0
 25 36  1  0
 36 37  1  0
 21 38  2  0
 38  7  1  0
 16  8  1  0
 38 17  1  0
 37 22  1  0
 35 28  1  0
  1 39  1  0
  1 40  1  0
  1 41  1  0
  2 42  1  0
  2 43  1  0
  6 44  1  0
  6 45  1  0
  9 46  1  0
 10 47  1  0
 15 48  1  0
 19 49  1  0
 23 50  1  0
 23 51  1  0
 24 52  1  0
 24 53  1  0
 26 54  1  0
 26 55  1  0
 27 56  1  0
 27 57  1  0
 29 58  1  0
 30 59  1  0
 35 60  1  0
 36 61  1  0
 36 62  1  0
 37 63  1  0
 37 64  1  0
M  CHG  2  12   1  14  -1
M  END
$$$$
