
     RDKit          3D

 27 29  0  0  0  0  0  0  0  0999 V2000
   -2.9805   -0.7636    2.3265 O   0  0  0  0  0  0  0  0  0  0  0  0
   -2.8190   -0.3136    1.1968 C   0  0  0  0  0  0  0  0  0  0  0  0
   -3.8934    0.1594    0.3925 N   0  0  0  0  0  0  0  0  0  0  0  0
   -3.5789    1.2169   -0.5558 C   0  0  0  0  0  0  0  0  0  0  0  0
   -2.4893    0.6962   -1.4477 C   0  0  0  0  0  0  0  0  0  0  0  0
   -1.3340    0.2615   -0.6513 C   0  0  0  0  0  0  0  0  0  0  0  0
    0.0080    0.2283   -0.9315 N   0  0  0  0  0  0  0  0  0  0  0  0
    0.7004   -0.2710    0.0931 C   0  0  0  0  0  0  0  0  0  0  0  0
    2.1560   -0.4637    0.1684 C   0  0  0  0  0  0  0  0  0  0  0  0
    2.7375   -0.9937    1.2971 C   0  0  0  0  0  0  0  0  0  0  0  0
    4.0933   -1.1866    1.3993 C   0  0  0  0  0  0  0  0  0  0  0  0
    4.8662   -0.8421    0.3555 N   0  0  0  0  0  0  0  0  0  0  0  0
    4.3259   -0.3214   -0.7617 C   0  0  0  0  0  0  0  0  0  0  0  0
    2.9694   -0.1143   -0.8982 C   0  0  0  0  0  0  0  0  0  0  0  0
   -0.2200   -0.5692    1.0644 C   0  0  0  0  0  0  0  0  0  0  0  0
   -1.4830   -0.2415    0.6107 C   0  0  0  0  0  0  0  0  0  0  0  0
   -4.8423   -0.1954    0.4504 H   0  0  0  0  0  0  0  0  0  0  0  0
   -3.2121    2.1177   -0.0067 H   0  0  0  0  0  0  0  0  0  0  0  0
   -4.4585    1.4685   -1.1856 H   0  0  0  0  0  0  0  0  0  0  0  0
   -2.1535    1.4538   -2.1909 H   0  0  0  0  0  0  0  0  0  0  0  0
   -2.9402   -0.1890   -1.9896 H   0  0  0  0  0  0  0  0  0  0  0  0
    0.4162    0.5628   -1.8521 H   0  0  0  0  0  0  0  0  0  0  0  0
    2.0804   -1.2598    2.1195 H   0  0  0  0  0  0  0  0  0  0  0  0
    4.5359   -1.6132    2.3146 H   0  0  0  0  0  0  0  0  0  0  0  0
    4.9961   -0.0588   -1.5792 H   0  0  0  0  0  0  0  0  0  0  0  0
    2.5583    0.3012   -1.7952 H   0  0  0  0  0  0  0  0  0  0  0  0
   -0.0389   -0.9987    2.0567 H   0  0  0  0  0  0  0  0  0  0  0  0
  1  2  2  0
  2  3  1  0
  3  4  1  0
  4  5  1  0
  5  6  1  0
  6  7  1  0
  7  8  1  0
  8  9  1  0
  9 10  2  0
 10 11  1  0
 11 12  2  0
 12 13  1  0
 13 14  2  0
  8 15  2  0
 15 16  1  0
 16  2  1  0
 16  6  2  0
 14  9  1  0
  3 17  1  0
  4 18  1  0
  4 19  1  0
  5 20  1  0
  5 21  1  0
  7 22  1  0
 10 23  1  0
 11 24  1  0
 13 25  1  0
 14 26  1  0
 15 27  1  0
M  END
$$$$
