@<TRIPOS>MOLECULE
*****
 27 29 0 0 0
SMALL
GASTEIGER

@<TRIPOS>ATOM
      1 O          -2.9805   -0.7636    2.3265 O.2     1  UNL1       -0.2701
      2 C          -2.8190   -0.3136    1.1968 C.2     1  UNL1        0.2458
      3 N          -3.8934    0.1594    0.3925 N.am    1  UNL1       -0.3109
      4 C          -3.5789    1.2169   -0.5558 C.3     1  UNL1        0.0172
      5 C          -2.4893    0.6962   -1.4477 C.3     1  UNL1        0.0038
      6 C          -1.3340    0.2615   -0.6513 C.ar    1  UNL1        0.0301
      7 N           0.0080    0.2283   -0.9315 N.ar    1  UNL1       -0.3573
      8 C           0.7004   -0.2710    0.0931 C.ar    1  UNL1        0.0475
      9 C           2.1560   -0.4637    0.1684 C.ar    1  UNL1        0.0012
     10 C           2.7375   -0.9937    1.2971 C.ar    1  UNL1       -0.0345
     11 C           4.0933   -1.1866    1.3993 C.ar    1  UNL1        0.0282
     12 N           4.8662   -0.8421    0.3555 N.ar    1  UNL1       -0.2632
     13 C           4.3259   -0.3214   -0.7617 C.ar    1  UNL1        0.0282
     14 C           2.9694   -0.1143   -0.8982 C.ar    1  UNL1       -0.0345
     15 C          -0.2200   -0.5692    1.0644 C.ar    1  UNL1       -0.0240
     16 C          -1.4830   -0.2415    0.6107 C.ar    1  UNL1        0.0578
     17 H          -4.8423   -0.1954    0.4504 H       1  UNL1        0.1490
     18 H          -3.2121    2.1177   -0.0067 H       1  UNL1        0.0466
     19 H          -4.4585    1.4685   -1.1856 H       1  UNL1        0.0466
     20 H          -2.1535    1.4538   -2.1909 H       1  UNL1        0.0343
     21 H          -2.9402   -0.1890   -1.9896 H       1  UNL1        0.0343
     22 H           0.4162    0.5628   -1.8521 H       1  UNL1        0.1656
     23 H           2.0804   -1.2598    2.1195 H       1  UNL1        0.0639
     24 H           4.5359   -1.6132    2.3146 H       1  UNL1        0.0830
     25 H           4.9961   -0.0588   -1.5792 H       1  UNL1        0.0830
     26 H           2.5583    0.3012   -1.7952 H       1  UNL1        0.0639
     27 H          -0.0389   -0.9987    2.0567 H       1  UNL1        0.0646
@<TRIPOS>BOND
     1     1     2    2
     2     2     3   am
     3     3     4    1
     4     4     5    1
     5     5     6    1
     6     6     7   ar
     7     7     8   ar
     8     8     9    1
     9     9    10   ar
    10    10    11   ar
    11    11    12   ar
    12    12    13   ar
    13    13    14   ar
    14     8    15   ar
    15    15    16   ar
    16    16     2    1
    17    16     6   ar
    18    14     9   ar
    19     3    17    1
    20     4    18    1
    21     4    19    1
    22     5    20    1
    23     5    21    1
    24     7    22    1
    25    10    23    1
    26    11    24    1
    27    13    25    1
    28    14    26    1
    29    15    27    1
