@<TRIPOS>MOLECULE
*****
 58 62 0 0 0
SMALL
GASTEIGER

@<TRIPOS>ATOM
      1 C           4.3797    1.6009   -2.7181 C.3     1  UNL1        0.0788
      2 O           4.6588    0.9415   -1.4968 O.3     1  UNL1       -0.4944
      3 C           3.6282    0.8664   -0.5397 C.ar    1  UNL1        0.1309
      4 C           2.3890    1.4176   -0.7859 C.ar    1  UNL1       -0.0190
      5 C           1.3753    1.3409    0.1617 C.ar    1  UNL1       -0.0550
      6 C           1.5532    0.7214    1.3744 C.ar    1  UNL1       -0.0446
      7 C           0.4817    0.6533    2.3609 C.3     1  UNL1       -0.0068
      8 C          -0.4242   -0.5106    2.3014 C.3     1  UNL1        0.0537
      9 C           0.2834   -1.8413    2.4597 C.3     1  UNL1        0.0666
     10 O           1.0995   -1.9733    1.3424 O.3     1  UNL1       -0.3764
     11 C           0.3176   -2.3116    0.2655 C.3     1  UNL1        0.0635
     12 C          -0.7707   -1.3193   -0.0646 C.3     1  UNL1        0.0388
     13 N          -1.2473   -0.6326    1.1213 N.am    1  UNL1       -0.2897
     14 C          -2.5594   -0.0993    1.1117 C.2     1  UNL1        0.2491
     15 O          -3.0425    0.5083    2.0991 O.2     1  UNL1       -0.2699
     16 C          -3.4035   -0.2462   -0.0651 C.ar    1  UNL1        0.0642
     17 C          -4.1753   -1.4125   -0.2365 C.ar    1  UNL1       -0.0446
     18 C          -4.9496   -1.5373   -1.3693 C.ar    1  UNL1       -0.0496
     19 C          -5.7593   -2.7837   -1.5281 C.3     1  UNL1       -0.0397
     20 C          -4.9579   -0.5285   -2.3099 C.ar    1  UNL1       -0.0567
     21 C          -4.1958    0.6130   -2.1305 C.ar    1  UNL1       -0.0336
     22 C          -3.4200    0.7487   -1.0046 C.ar    1  UNL1        0.0982
     23 N          -2.6508    1.9538   -0.8242 N.ar    1  UNL1       -0.1496
     24 N          -1.9946    2.6339   -1.7233 N.ar    1  UNL1       -0.1556
     25 C          -1.4119    3.7115   -1.1727 C.ar    1  UNL1        0.0697
     26 C          -1.7472    3.6714    0.1641 C.ar    1  UNL1        0.0697
     27 N          -2.5038    2.5802    0.3271 N.ar    1  UNL1       -0.1556
     28 C           2.8046    0.1743    1.6024 C.ar    1  UNL1       -0.0442
     29 C           3.8223    0.2426    0.6696 C.ar    1  UNL1        0.0643
     30 C           5.1423   -0.3524    0.9493 C.ar    1  UNL1        0.2053
     31 N           6.2027   -0.3524    0.1321 N.ar    1  UNL1       -0.1941
     32 C           7.2312   -0.9899    0.7292 C.ar    1  UNL1        0.2147
     33 O           6.7932   -1.3684    1.8918 O.2     1  UNL1       -0.3411
     34 N           5.5373   -1.0010    2.0587 N.ar    1  UNL1       -0.0563
     35 H           3.9595    2.6188   -2.5302 H       1  UNL1        0.0660
     36 H           5.2622    1.7362   -3.3428 H       1  UNL1        0.0660
     37 H           3.6082    1.0676   -3.3093 H       1  UNL1        0.0660
     38 H           2.2131    1.9187   -1.7419 H       1  UNL1        0.0654
     39 H           0.4193    1.7820   -0.0684 H       1  UNL1        0.0621
     40 H          -0.1406    1.5756    2.4070 H       1  UNL1        0.0332
     41 H           0.9803    0.6227    3.3756 H       1  UNL1        0.0332
     42 H          -1.1027   -0.4429    3.2007 H       1  UNL1        0.0526
     43 H           0.8106   -1.9462    3.4060 H       1  UNL1        0.0578
     44 H          -0.4959   -2.6263    2.3983 H       1  UNL1        0.0578
     45 H           0.9764   -2.3828   -0.6345 H       1  UNL1        0.0575
     46 H          -0.0757   -3.3377    0.4355 H       1  UNL1        0.0575
     47 H          -1.6292   -1.9170   -0.4744 H       1  UNL1        0.0487
     48 H          -0.4935   -0.6037   -0.8278 H       1  UNL1        0.0487
     49 H          -4.1404   -2.1752    0.5208 H       1  UNL1        0.0628
     50 H          -6.5773   -2.5598   -2.2190 H       1  UNL1        0.0278
     51 H          -5.0605   -3.5603   -1.8972 H       1  UNL1        0.0278
     52 H          -6.1838   -3.0300   -0.5402 H       1  UNL1        0.0278
     53 H          -5.5789   -0.6757   -3.1758 H       1  UNL1        0.0621
     54 H          -4.2068    1.4136   -2.8842 H       1  UNL1        0.0640
     55 H          -0.8057    4.4777   -1.6112 H       1  UNL1        0.0864
     56 H          -1.4501    4.3945    0.9402 H       1  UNL1        0.0864
     57 H           3.0219   -0.3378    2.5504 H       1  UNL1        0.0628
     58 H           8.2031   -1.1311    0.2879 H       1  UNL1        0.1283
@<TRIPOS>BOND
     1     1     2    1
     2     2     3    1
     3     3     4   ar
     4     4     5   ar
     5     5     6   ar
     6     6     7    1
     7     7     8    1
     8     8     9    1
     9     9    10    1
    10    10    11    1
    11    11    12    1
    12    12    13    1
    13    13    14   am
    14    14    15    2
    15    14    16    1
    16    16    17   ar
    17    17    18   ar
    18    18    19    1
    19    18    20   ar
    20    20    21   ar
    21    21    22   ar
    22    22    23    1
    23    23    24   ar
    24    24    25   ar
    25    25    26   ar
    26    26    27   ar
    27     6    28   ar
    28    28    29   ar
    29    29    30    1
    30    30    31   ar
    31    31    32   ar
    32    32    33   ar
    33    33    34   ar
    34    29     3   ar
    35    34    30   ar
    36    13     8    1
    37    22    16   ar
    38    27    23   ar
    39     1    35    1
    40     1    36    1
    41     1    37    1
    42     4    38    1
    43     5    39    1
    44     7    40    1
    45     7    41    1
    46     8    42    1
    47     9    43    1
    48     9    44    1
    49    11    45    1
    50    11    46    1
    51    12    47    1
    52    12    48    1
    53    17    49    1
    54    19    50    1
    55    19    51    1
    56    19    52    1
    57    20    53    1
    58    21    54    1
    59    25    55    1
    60    26    56    1
    61    28    57    1
    62    32    58    1
