
     RDKit          3D

 58 62  0  0  0  0  0  0  0  0999 V2000
    4.3797    1.6009   -2.7181 C   0  0  0  0  0  0  0  0  0  0  0  0
    4.6588    0.9415   -1.4968 O   0  0  0  0  0  0  0  0  0  0  0  0
    3.6282    0.8664   -0.5397 C   0  0  0  0  0  0  0  0  0  0  0  0
    2.3890    1.4176   -0.7859 C   0  0  0  0  0  0  0  0  0  0  0  0
    1.3753    1.3409    0.1617 C   0  0  0  0  0  0  0  0  0  0  0  0
    1.5532    0.7214    1.3744 C   0  0  0  0  0  0  0  0  0  0  0  0
    0.4817    0.6533    2.3609 C   0  0  0  0  0  0  0  0  0  0  0  0
   -0.4242   -0.5106    2.3014 C   0  0  2  0  0  0  0  0  0  0  0  0
    0.2834   -1.8413    2.4597 C   0  0  0  0  0  0  0  0  0  0  0  0
    1.0995   -1.9733    1.3424 O   0  0  0  0  0  0  0  0  0  0  0  0
    0.3176   -2.3116    0.2655 C   0  0  0  0  0  0  0  0  0  0  0  0
   -0.7707   -1.3193   -0.0646 C   0  0  0  0  0  0  0  0  0  0  0  0
   -1.2473   -0.6326    1.1213 N   0  0  0  0  0  0  0  0  0  0  0  0
   -2.5594   -0.0993    1.1117 C   0  0  0  0  0  0  0  0  0  0  0  0
   -3.0425    0.5083    2.0991 O   0  0  0  0  0  0  0  0  0  0  0  0
   -3.4035   -0.2462   -0.0651 C   0  0  0  0  0  0  0  0  0  0  0  0
   -4.1753   -1.4125   -0.2365 C   0  0  0  0  0  0  0  0  0  0  0  0
   -4.9496   -1.5373   -1.3693 C   0  0  0  0  0  0  0  0  0  0  0  0
   -5.7593   -2.7837   -1.5281 C   0  0  0  0  0  0  0  0  0  0  0  0
   -4.9579   -0.5285   -2.3099 C   0  0  0  0  0  0  0  0  0  0  0  0
   -4.1958    0.6130   -2.1305 C   0  0  0  0  0  0  0  0  0  0  0  0
   -3.4200    0.7487   -1.0046 C   0  0  0  0  0  0  0  0  0  0  0  0
   -2.6508    1.9538   -0.8242 N   0  0  0  0  0  0  0  0  0  0  0  0
   -1.9946    2.6339   -1.7233 N   0  0  0  0  0  0  0  0  0  0  0  0
   -1.4119    3.7115   -1.1727 C   0  0  0  0  0  0  0  0  0  0  0  0
   -1.7472    3.6714    0.1641 C   0  0  0  0  0  0  0  0  0  0  0  0
   -2.5038    2.5802    0.3271 N   0  0  0  0  0  0  0  0  0  0  0  0
    2.8046    0.1743    1.6024 C   0  0  0  0  0  0  0  0  0  0  0  0
    3.8223    0.2426    0.6696 C   0  0  0  0  0  0  0  0  0  0  0  0
    5.1423   -0.3524    0.9493 C   0  0  0  0  0  0  0  0  0  0  0  0
    6.2027   -0.3524    0.1321 N   0  0  0  0  0  0  0  0  0  0  0  0
    7.2312   -0.9899    0.7292 C   0  0  0  0  0  0  0  0  0  0  0  0
    6.7932   -1.3684    1.8918 O   0  0  0  0  0  0  0  0  0  0  0  0
    5.5373   -1.0010    2.0587 N   0  0  0  0  0  0  0  0  0  0  0  0
    3.9595    2.6188   -2.5302 H   0  0  0  0  0  0  0  0  0  0  0  0
    5.2622    1.7362   -3.3428 H   0  0  0  0  0  0  0  0  0  0  0  0
    3.6082    1.0676   -3.3093 H   0  0  0  0  0  0  0  0  0  0  0  0
    2.2131    1.9187   -1.7419 H   0  0  0  0  0  0  0  0  0  0  0  0
    0.4193    1.7820   -0.0684 H   0  0  0  0  0  0  0  0  0  0  0  0
   -0.1406    1.5756    2.4070 H   0  0  0  0  0  0  0  0  0  0  0  0
    0.9803    0.6227    3.3756 H   0  0  0  0  0  0  0  0  0  0  0  0
   -1.1027   -0.4429    3.2007 H   0  0  0  0  0  0  0  0  0  0  0  0
    0.8106   -1.9462    3.4060 H   0  0  0  0  0  0  0  0  0  0  0  0
   -0.4959   -2.6263    2.3983 H   0  0  0  0  0  0  0  0  0  0  0  0
    0.9764   -2.3828   -0.6345 H   0  0  0  0  0  0  0  0  0  0  0  0
   -0.0757   -3.3377    0.4355 H   0  0  0  0  0  0  0  0  0  0  0  0
   -1.6292   -1.9170   -0.4744 H   0  0  0  0  0  0  0  0  0  0  0  0
   -0.4935   -0.6037   -0.8278 H   0  0  0  0  0  0  0  0  0  0  0  0
   -4.1404   -2.1752    0.5208 H   0  0  0  0  0  0  0  0  0  0  0  0
   -6.5773   -2.5598   -2.2190 H   0  0  0  0  0  0  0  0  0  0  0  0
   -5.0605   -3.5603   -1.8972 H   0  0  0  0  0  0  0  0  0  0  0  0
   -6.1838   -3.0300   -0.5402 H   0  0  0  0  0  0  0  0  0  0  0  0
   -5.5789   -0.6757   -3.1758 H   0  0  0  0  0  0  0  0  0  0  0  0
   -4.2068    1.4136   -2.8842 H   0  0  0  0  0  0  0  0  0  0  0  0
   -0.8057    4.4777   -1.6112 H   0  0  0  0  0  0  0  0  0  0  0  0
   -1.4501    4.3945    0.9402 H   0  0  0  0  0  0  0  0  0  0  0  0
    3.0219   -0.3378    2.5504 H   0  0  0  0  0  0  0  0  0  0  0  0
    8.2031   -1.1311    0.2879 H   0  0  0  0  0  0  0  0  0  0  0  0
  1  2  1  0
  2  3  1  0
  3  4  2  0
  4  5  1  0
  5  6  2  0
  6  7  1  0
  7  8  1  0
  8  9  1  0
  9 10  1  0
 10 11  1  0
 11 12  1  0
 12 13  1  0
 13 14  1  0
 14 15  2  0
 14 16  1  0
 16 17  2  0
 17 18  1  0
 18 19  1  0
 18 20  2  0
 20 21  1  0
 21 22  2  0
 22 23  1  0
 23 24  1  0
 24 25  2  0
 25 26  1  0
 26 27  2  0
  6 28  1  0
 28 29  2  0
 29 30  1  0
 30 31  1  0
 31 32  2  0
 32 33  1  0
 33 34  1  0
 29  3  1  0
 34 30  2  0
 13  8  1  0
 22 16  1  0
 27 23  1  0
  1 35  1  0
  1 36  1  0
  1 37  1  0
  4 38  1  0
  5 39  1  0
  7 40  1  0
  7 41  1  0
  8 42  1  1
  9 43  1  0
  9 44  1  0
 11 45  1  0
 11 46  1  0
 12 47  1  0
 12 48  1  0
 17 49  1  0
 19 50  1  0
 19 51  1  0
 19 52  1  0
 20 53  1  0
 21 54  1  0
 25 55  1  0
 26 56  1  0
 28 57  1  0
 32 58  1  0
M  END
$$$$
