@<TRIPOS>MOLECULE
*****
 74 79 0 0 0
SMALL
GASTEIGER

@<TRIPOS>ATOM
      1 C          -4.2077    6.1613   -3.4296 C.3     1  UNL1       -0.0151
      2 N          -3.5936    5.0505   -2.7570 N.3     1  UNL1       -0.3089
      3 C          -4.2359    4.6909   -1.5186 C.3     1  UNL1        0.0820
      4 C          -5.6479    4.2073   -1.7686 C.3     1  UNL1       -0.0411
      5 C          -3.5203    3.5981   -0.8343 C.2     1  UNL1        0.2350
      6 O          -2.4444    3.1716   -1.3770 O.2     1  UNL1       -0.2737
      7 N          -3.9402    2.9849    0.3758 N.am    1  UNL1       -0.2691
      8 C          -3.1485    1.9057    0.9402 C.ar    1  UNL1        0.1263
      9 C          -3.5908    1.1833    2.0068 C.ar    1  UNL1       -0.0208
     10 C          -2.7998    0.1499    2.4867 C.ar    1  UNL1       -0.0466
     11 C          -1.5874   -0.1560    1.9112 C.ar    1  UNL1        0.0349
     12 C          -0.8344   -1.3064    2.3736 C.ar    1  UNL1        0.0837
     13 C          -0.6259   -2.4428    1.5609 C.ar    1  UNL1        0.1006
     14 C          -1.1200   -2.5465    0.1942 C.ar    1  UNL1        0.0387
     15 C          -0.2978   -2.8641   -0.8548 C.ar    1  UNL1        0.0403
     16 N          -0.8107   -2.9248   -2.1241 N.ar    1  UNL1       -0.2399
     17 C          -2.0905   -2.6885   -2.4067 C.ar    1  UNL1        0.1259
     18 C          -2.6789   -2.7342   -3.7812 C.3     1  UNL1       -0.0046
     19 N          -2.9217   -2.3722   -1.3787 N.ar    1  UNL1       -0.2399
     20 C          -2.4556   -2.3033   -0.1245 C.ar    1  UNL1        0.0403
     21 N           0.0689   -3.2729    2.3346 N.ar    1  UNL1       -0.2271
     22 C           0.3073   -2.7582    3.5474 C.ar    1  UNL1        0.1390
     23 C           0.9664   -3.2350    4.6835 C.ar    1  UNL1       -0.0158
     24 C           1.0736   -2.5088    5.8404 C.ar    1  UNL1       -0.0456
     25 C           1.7815   -3.0493    7.0535 C.3     1  UNL1       -0.0395
     26 C           0.4926   -1.2630    5.8368 C.ar    1  UNL1       -0.0421
     27 C          -0.1536   -0.8186    4.6973 C.ar    1  UNL1        0.0120
     28 N          -0.2575   -1.5317    3.5654 N.ar    1  UNL1       -0.2986
     29 C          -1.1697    0.5948    0.8442 C.ar    1  UNL1        0.1250
     30 C           0.0633    0.3368    0.1970 C.1     1  UNL1       -0.0404
     31 C           1.2306    0.0904   -0.3941 C.1     1  UNL1       -0.0595
     32 C           2.4057   -0.1488   -0.9641 C.ar    1  UNL1        0.0260
     33 C           2.5402   -0.5742   -2.2844 C.ar    1  UNL1       -0.0443
     34 C           3.7562   -0.8282   -2.8629 C.ar    1  UNL1       -0.0364
     35 C           4.9463   -0.6718   -2.1450 C.ar    1  UNL1        0.0518
     36 C           4.8448   -0.2572   -0.8522 C.ar    1  UNL1       -0.0001
     37 C           5.9926   -0.0818   -0.0977 C.ar    1  UNL1       -0.0475
     38 C           7.2119   -0.3287   -0.6713 C.ar    1  UNL1        0.0036
     39 C           7.2702   -0.7438   -1.9753 C.ar    1  UNL1        0.2515
     40 O           8.4075   -0.9656   -2.4747 O.2     1  UNL1       -0.2677
     41 N           6.1301   -0.9124   -2.7038 N.ar    1  UNL1       -0.3112
     42 C           6.2421   -1.3609   -4.0616 C.3     1  UNL1        0.0153
     43 C           3.6363   -0.0017   -0.2711 C.ar    1  UNL1       -0.0372
     44 N          -1.9605    1.6179    0.3696 N.ar    1  UNL1       -0.2229
     45 H          -3.9542    7.1002   -2.8517 H       1  UNL1        0.0388
     46 H          -3.6905    6.2714   -4.4286 H       1  UNL1        0.0388
     47 H          -5.2758    6.0817   -3.6198 H       1  UNL1        0.0388
     48 H          -3.6238    4.1986   -3.3948 H       1  UNL1        0.1223
     49 H          -4.3397    5.5943   -0.8661 H       1  UNL1        0.0554
     50 H          -6.2602    4.9426   -2.3163 H       1  UNL1        0.0249
     51 H          -6.1302    3.8735   -0.8243 H       1  UNL1        0.0249
     52 H          -5.5860    3.2930   -2.4251 H       1  UNL1        0.0249
     53 H          -4.8040    3.3246    0.8283 H       1  UNL1        0.1563
     54 H          -4.5275    1.4105    2.4671 H       1  UNL1        0.0652
     55 H          -3.1262   -0.4357    3.3297 H       1  UNL1        0.0626
     56 H           0.7524   -3.0645   -0.6763 H       1  UNL1        0.0837
     57 H          -3.1754   -3.7201   -3.9786 H       1  UNL1        0.0308
     58 H          -1.9230   -2.5771   -4.5395 H       1  UNL1        0.0308
     59 H          -3.4674   -1.9488   -3.8950 H       1  UNL1        0.0308
     60 H          -3.1310   -2.0561    0.6770 H       1  UNL1        0.0837
     61 H           1.4206   -4.2205    4.6743 H       1  UNL1        0.0657
     62 H           2.1732   -2.2194    7.6301 H       1  UNL1        0.0278
     63 H           2.5006   -3.8317    6.7588 H       1  UNL1        0.0278
     64 H           1.0423   -3.5965    7.7157 H       1  UNL1        0.0278
     65 H           0.5732   -0.6825    6.7519 H       1  UNL1        0.0635
     66 H          -0.6119    0.1629    4.6981 H       1  UNL1        0.0813
     67 H           1.6275   -0.7019   -2.8617 H       1  UNL1        0.0630
     68 H           3.8106   -1.1614   -3.9002 H       1  UNL1        0.0639
     69 H           5.9478    0.2424    0.9248 H       1  UNL1        0.0626
     70 H           8.1330   -0.1935   -0.0861 H       1  UNL1        0.0672
     71 H           5.7066   -2.3610   -4.1246 H       1  UNL1        0.0457
     72 H           7.2994   -1.4883   -4.3842 H       1  UNL1        0.0457
     73 H           5.7440   -0.6532   -4.7576 H       1  UNL1        0.0457
     74 H           3.6210    0.3245    0.7690 H       1  UNL1        0.0636
@<TRIPOS>BOND
     1     1     2    1
     2     2     3    1
     3     3     4    1
     4     3     5    1
     5     5     6    2
     6     5     7   am
     7     7     8    1
     8     8     9   ar
     9     9    10   ar
    10    10    11   ar
    11    11    12    1
    12    12    13   ar
    13    13    14    1
    14    14    15   ar
    15    15    16   ar
    16    16    17   ar
    17    17    18    1
    18    17    19   ar
    19    19    20   ar
    20    13    21   ar
    21    21    22   ar
    22    22    23   ar
    23    23    24   ar
    24    24    25    1
    25    24    26   ar
    26    26    27   ar
    27    27    28   ar
    28    11    29   ar
    29    29    30    1
    30    30    31    3
    31    31    32    1
    32    32    33   ar
    33    33    34   ar
    34    34    35   ar
    35    35    36   ar
    36    36    37   ar
    37    37    38   ar
    38    38    39   ar
    39    39    40    2
    40    39    41   ar
    41    41    42    1
    42    36    43   ar
    43    29    44   ar
    44    44     8   ar
    45    28    12   ar
    46    43    32   ar
    47    20    14   ar
    48    28    22   ar
    49    41    35   ar
    50     1    45    1
    51     1    46    1
    52     1    47    1
    53     2    48    1
    54     3    49    1
    55     4    50    1
    56     4    51    1
    57     4    52    1
    58     7    53    1
    59     9    54    1
    60    10    55    1
    61    15    56    1
    62    18    57    1
    63    18    58    1
    64    18    59    1
    65    20    60    1
    66    23    61    1
    67    25    62    1
    68    25    63    1
    69    25    64    1
    70    26    65    1
    71    27    66    1
    72    33    67    1
    73    34    68    1
    74    37    69    1
    75    38    70    1
    76    42    71    1
    77    42    72    1
    78    42    73    1
    79    43    74    1
