@<TRIPOS>MOLECULE
*****
 41 45 0 0 0
SMALL
GASTEIGER

@<TRIPOS>ATOM
      1 O           1.4409   -1.4008   -3.7165 O.2     1  UNL1       -0.2656
      2 C           0.9338   -0.9845   -2.6456 C.ar    1  UNL1        0.2748
      3 N          -0.4057   -0.9063   -2.5691 N.ar    1  UNL1       -0.3203
      4 C          -1.0336   -0.4734   -1.4653 C.ar    1  UNL1        0.0519
      5 C          -2.4061   -0.3810   -1.3534 C.ar    1  UNL1       -0.0299
      6 C          -3.0061    0.0738   -0.1877 C.ar    1  UNL1       -0.0159
      7 C          -4.4556    0.1692   -0.0775 C.ar    1  UNL1       -0.0178
      8 C          -5.1001   -0.0084    1.1293 C.ar    1  UNL1       -0.0540
      9 C          -6.4743    0.0807    1.2471 C.ar    1  UNL1       -0.0612
     10 C          -7.2598    0.3544    0.1462 C.ar    1  UNL1       -0.0617
     11 C          -6.6245    0.5346   -1.0703 C.ar    1  UNL1       -0.0612
     12 C          -5.2509    0.4429   -1.1750 C.ar    1  UNL1       -0.0540
     13 C          -2.1721    0.4285    0.8516 C.ar    1  UNL1       -0.0533
     14 C          -0.7980    0.3529    0.7850 C.ar    1  UNL1       -0.0499
     15 C          -0.2378   -0.1071   -0.3989 C.ar    1  UNL1        0.0260
     16 C           1.1462   -0.1747   -0.4424 C.ar    1  UNL1        0.1039
     17 N           2.1352    0.1089    0.4206 N.ar    1  UNL1       -0.2269
     18 C           3.3319   -0.1415   -0.1346 C.ar    1  UNL1        0.1408
     19 C           4.6397    0.0487    0.5108 C.ar    1  UNL1        0.0356
     20 C           5.8173   -0.2371   -0.1318 C.ar    1  UNL1       -0.0497
     21 C           7.0360   -0.0528    0.4870 C.ar    1  UNL1       -0.0610
     22 C           7.1222    0.4276    1.7808 C.ar    1  UNL1       -0.0603
     23 C           5.9330    0.7132    2.4217 C.ar    1  UNL1       -0.0427
     24 C           4.7135    0.5284    1.8012 C.ar    1  UNL1        0.0516
     25 CL          3.2105    0.8939    2.6231 Cl      1  UNL1       -0.0828
     26 N           3.0836   -0.5930   -1.3756 N.ar    1  UNL1       -0.3336
     27 C           1.7499   -0.6246   -1.5943 C.ar    1  UNL1        0.1322
     28 H          -1.0278   -1.1858   -3.3848 H       1  UNL1        0.1690
     29 H          -3.0045   -0.6735   -2.2016 H       1  UNL1        0.0644
     30 H          -4.4890   -0.2240    1.9996 H       1  UNL1        0.0624
     31 H          -6.9922   -0.0571    2.1901 H       1  UNL1        0.0618
     32 H          -8.3351    0.4245    0.2365 H       1  UNL1        0.0618
     33 H          -7.2185    0.7513   -1.9527 H       1  UNL1        0.0618
     34 H          -4.7632    0.5886   -2.1483 H       1  UNL1        0.0624
     35 H          -2.6298    0.7842    1.7643 H       1  UNL1        0.0624
     36 H          -0.1546    0.6362    1.6129 H       1  UNL1        0.0625
     37 H           5.7638   -0.6146   -1.1468 H       1  UNL1        0.0625
     38 H           7.9596   -0.2864   -0.0422 H       1  UNL1        0.0618
     39 H           8.0893    0.5744    2.2736 H       1  UNL1        0.0618
     40 H           5.9530    1.0924    3.4380 H       1  UNL1        0.0632
     41 H           3.7796   -0.8827   -2.0873 H       1  UNL1        0.1675
@<TRIPOS>BOND
     1     1     2    2
     2     2     3   ar
     3     3     4   ar
     4     4     5   ar
     5     5     6   ar
     6     6     7    1
     7     7     8   ar
     8     8     9   ar
     9     9    10   ar
    10    10    11   ar
    11    11    12   ar
    12     6    13   ar
    13    13    14   ar
    14    14    15   ar
    15    15    16   ar
    16    16    17   ar
    17    17    18   ar
    18    18    19    1
    19    19    20   ar
    20    20    21   ar
    21    21    22   ar
    22    22    23   ar
    23    23    24   ar
    24    24    25    1
    25    18    26   ar
    26    26    27   ar
    27    27     2   ar
    28    15     4   ar
    29    27    16   ar
    30    12     7   ar
    31    24    19   ar
    32     3    28    1
    33     5    29    1
    34     8    30    1
    35     9    31    1
    36    10    32    1
    37    11    33    1
    38    12    34    1
    39    13    35    1
    40    14    36    1
    41    20    37    1
    42    21    38    1
    43    22    39    1
    44    23    40    1
    45    26    41    1
