
     RDKit          3D

 41 45  0  0  0  0  0  0  0  0999 V2000
    1.4409   -1.4008   -3.7165 O   0  0  0  0  0  0  0  0  0  0  0  0
    0.9338   -0.9845   -2.6456 C   0  0  0  0  0  0  0  0  0  0  0  0
   -0.4057   -0.9063   -2.5691 N   0  0  0  0  0  0  0  0  0  0  0  0
   -1.0336   -0.4734   -1.4653 C   0  0  0  0  0  0  0  0  0  0  0  0
   -2.4061   -0.3810   -1.3534 C   0  0  0  0  0  0  0  0  0  0  0  0
   -3.0061    0.0738   -0.1877 C   0  0  0  0  0  0  0  0  0  0  0  0
   -4.4556    0.1692   -0.0775 C   0  0  0  0  0  0  0  0  0  0  0  0
   -5.1001   -0.0084    1.1293 C   0  0  0  0  0  0  0  0  0  0  0  0
   -6.4743    0.0807    1.2471 C   0  0  0  0  0  0  0  0  0  0  0  0
   -7.2598    0.3544    0.1462 C   0  0  0  0  0  0  0  0  0  0  0  0
   -6.6245    0.5346   -1.0703 C   0  0  0  0  0  0  0  0  0  0  0  0
   -5.2509    0.4429   -1.1750 C   0  0  0  0  0  0  0  0  0  0  0  0
   -2.1721    0.4285    0.8516 C   0  0  0  0  0  0  0  0  0  0  0  0
   -0.7980    0.3529    0.7850 C   0  0  0  0  0  0  0  0  0  0  0  0
   -0.2378   -0.1071   -0.3989 C   0  0  0  0  0  0  0  0  0  0  0  0
    1.1462   -0.1747   -0.4424 C   0  0  0  0  0  0  0  0  0  0  0  0
    2.1352    0.1089    0.4206 N   0  0  0  0  0  0  0  0  0  0  0  0
    3.3319   -0.1415   -0.1346 C   0  0  0  0  0  0  0  0  0  0  0  0
    4.6397    0.0487    0.5108 C   0  0  0  0  0  0  0  0  0  0  0  0
    5.8173   -0.2371   -0.1318 C   0  0  0  0  0  0  0  0  0  0  0  0
    7.0360   -0.0528    0.4870 C   0  0  0  0  0  0  0  0  0  0  0  0
    7.1222    0.4276    1.7808 C   0  0  0  0  0  0  0  0  0  0  0  0
    5.9330    0.7132    2.4217 C   0  0  0  0  0  0  0  0  0  0  0  0
    4.7135    0.5284    1.8012 C   0  0  0  0  0  0  0  0  0  0  0  0
    3.2105    0.8939    2.6231 Cl  0  0  0  0  0  0  0  0  0  0  0  0
    3.0836   -0.5930   -1.3756 N   0  0  0  0  0  0  0  0  0  0  0  0
    1.7499   -0.6246   -1.5943 C   0  0  0  0  0  0  0  0  0  0  0  0
   -1.0278   -1.1858   -3.3848 H   0  0  0  0  0  0  0  0  0  0  0  0
   -3.0045   -0.6735   -2.2016 H   0  0  0  0  0  0  0  0  0  0  0  0
   -4.4890   -0.2240    1.9996 H   0  0  0  0  0  0  0  0  0  0  0  0
   -6.9922   -0.0571    2.1901 H   0  0  0  0  0  0  0  0  0  0  0  0
   -8.3351    0.4245    0.2365 H   0  0  0  0  0  0  0  0  0  0  0  0
   -7.2185    0.7513   -1.9527 H   0  0  0  0  0  0  0  0  0  0  0  0
   -4.7632    0.5886   -2.1483 H   0  0  0  0  0  0  0  0  0  0  0  0
   -2.6298    0.7842    1.7643 H   0  0  0  0  0  0  0  0  0  0  0  0
   -0.1546    0.6362    1.6129 H   0  0  0  0  0  0  0  0  0  0  0  0
    5.7638   -0.6146   -1.1468 H   0  0  0  0  0  0  0  0  0  0  0  0
    7.9596   -0.2864   -0.0422 H   0  0  0  0  0  0  0  0  0  0  0  0
    8.0893    0.5744    2.2736 H   0  0  0  0  0  0  0  0  0  0  0  0
    5.9530    1.0924    3.4380 H   0  0  0  0  0  0  0  0  0  0  0  0
    3.7796   -0.8827   -2.0873 H   0  0  0  0  0  0  0  0  0  0  0  0
  1  2  2  0
  2  3  1  0
  3  4  1  0
  4  5  2  0
  5  6  1  0
  6  7  1  0
  7  8  2  0
  8  9  1  0
  9 10  2  0
 10 11  1  0
 11 12  2  0
  6 13  2  0
 13 14  1  0
 14 15  2  0
 15 16  1  0
 16 17  1  0
 17 18  2  0
 18 19  1  0
 19 20  2  0
 20 21  1  0
 21 22  2  0
 22 23  1  0
 23 24  2  0
 24 25  1  0
 18 26  1  0
 26 27  1  0
 27  2  1  0
 15  4  1  0
 27 16  2  0
 12  7  1  0
 24 19  1  0
  3 28  1  0
  5 29  1  0
  8 30  1  0
  9 31  1  0
 10 32  1  0
 11 33  1  0
 12 34  1  0
 13 35  1  0
 14 36  1  0
 20 37  1  0
 21 38  1  0
 22 39  1  0
 23 40  1  0
 26 41  1  0
M  END
$$$$
