@<TRIPOS>MOLECULE
*****
 72 77 0 0 0
SMALL
GASTEIGER

@<TRIPOS>ATOM
      1 C           0.7202   -3.1249    0.1087 C.3     1  UNL1        0.0139
      2 N          -0.6637   -2.7058    0.1748 N.ar    1  UNL1       -0.3240
      3 C          -1.7549   -3.5300    0.1147 C.ar    1  UNL1        0.1438
      4 N          -1.8007   -4.8689    0.0169 N.ar    1  UNL1       -0.2372
      5 C          -2.9937   -5.4491   -0.0263 C.ar    1  UNL1        0.0306
      6 C          -4.1724   -4.7471    0.0238 C.ar    1  UNL1       -0.0307
      7 C          -4.1514   -3.3497    0.1259 C.ar    1  UNL1        0.0506
      8 C          -5.3989   -2.6169    0.1802 C.2     1  UNL1        0.2423
      9 N          -6.6065   -3.3593    0.1315 N.am    1  UNL1       -0.3253
     10 O          -5.4553   -1.3887    0.2664 O.2     1  UNL1       -0.2704
     11 C          -2.8986   -2.7854    0.1681 C.ar    1  UNL1        0.0571
     12 C          -2.4815   -1.4759    0.2633 C.ar    1  UNL1        0.1041
     13 N          -3.1513   -0.3049    0.3330 N.ar    1  UNL1       -0.2284
     14 C          -2.5114    0.8720    0.4061 C.ar    1  UNL1        0.1458
     15 C          -3.2904    2.1291    0.4836 C.3     1  UNL1        0.0590
     16 N          -3.5844    2.7154   -0.7878 N.3     1  UNL1       -0.2908
     17 C          -4.3294    1.8881   -1.6837 C.3     1  UNL1        0.0229
     18 C          -5.8181    1.9424   -1.4940 C.3     1  UNL1        0.0604
     19 O          -6.1899    2.3481   -0.2296 O.3     1  UNL1       -0.3772
     20 C          -5.7079    3.6153    0.0904 C.3     1  UNL1        0.0604
     21 C          -4.3752    3.9192   -0.5571 C.3     1  UNL1        0.0229
     22 N          -1.1763    0.9043    0.4120 N.ar    1  UNL1       -0.2139
     23 C          -0.4153   -0.2293    0.3457 C.ar    1  UNL1        0.1493
     24 N           0.9940   -0.1138    0.4291 N.pl3   1  UNL1       -0.3110
     25 C           1.5657   -0.1622    1.7484 C.3     1  UNL1        0.0264
     26 C           3.0326   -0.0992    1.8578 C.3     1  UNL1        0.0147
     27 N           3.7850    0.1850    0.6742 N.3     1  UNL1       -0.2990
     28 C           3.9672    1.5785    0.4841 C.3     1  UNL1        0.0030
     29 C           4.8710    1.9648   -0.6355 C.3     1  UNL1       -0.0148
     30 C           6.2664    1.4915   -0.4975 C.ar    1  UNL1       -0.0433
     31 C           7.1750    2.2874    0.2073 C.ar    1  UNL1       -0.0556
     32 C           8.4934    1.9425    0.3874 C.ar    1  UNL1       -0.0233
     33 C           8.9808    0.7683   -0.1339 C.ar    1  UNL1        0.1584
     34 F          10.2801    0.3995    0.0271 F       1  UNL1       -0.2025
     35 C           8.1123   -0.0371   -0.8327 C.ar    1  UNL1        0.1587
     36 F           8.5993   -1.1913   -1.3420 F       1  UNL1       -0.2025
     37 C           6.7759    0.3272   -1.0072 C.ar    1  UNL1       -0.0204
     38 C           3.1858   -0.4867   -0.4617 C.3     1  UNL1        0.0147
     39 C           1.8303    0.0634   -0.7145 C.3     1  UNL1        0.0264
     40 C          -1.0733   -1.4276    0.2690 C.ar    1  UNL1        0.1100
     41 H           1.2109   -2.7361   -0.8229 H       1  UNL1        0.0456
     42 H           0.7128   -4.2479   -0.0949 H       1  UNL1        0.0456
     43 H           1.2915   -3.0273    1.0191 H       1  UNL1        0.0456
     44 H          -3.0180   -6.5287   -0.1057 H       1  UNL1        0.0830
     45 H          -5.1338   -5.2513   -0.0135 H       1  UNL1        0.0640
     46 H          -6.9188   -3.8660    0.9722 H       1  UNL1        0.1453
     47 H          -7.1649   -3.3926   -0.7319 H       1  UNL1        0.1453
     48 H          -2.7442    2.9048    1.0771 H       1  UNL1        0.0507
     49 H          -4.2527    1.9902    1.0274 H       1  UNL1        0.0507
     50 H          -3.9247    0.8502   -1.6901 H       1  UNL1        0.0449
     51 H          -4.1220    2.2780   -2.7241 H       1  UNL1        0.0449
     52 H          -6.2037    0.9049   -1.6281 H       1  UNL1        0.0572
     53 H          -6.3159    2.6167   -2.2462 H       1  UNL1        0.0572
     54 H          -5.5688    3.6712    1.1989 H       1  UNL1        0.0572
     55 H          -6.4651    4.3881   -0.1964 H       1  UNL1        0.0572
     56 H          -3.7637    4.5335    0.1618 H       1  UNL1        0.0449
     57 H          -4.5553    4.5069   -1.4554 H       1  UNL1        0.0449
     58 H           1.0561    0.6520    2.3593 H       1  UNL1        0.0477
     59 H           1.2111   -1.0953    2.2510 H       1  UNL1        0.0477
     60 H           3.4633   -1.0101    2.3677 H       1  UNL1        0.0442
     61 H           3.2885    0.7316    2.5826 H       1  UNL1        0.0442
     62 H           3.0397    2.1832    0.4119 H       1  UNL1        0.0430
     63 H           4.4611    1.9652    1.4274 H       1  UNL1        0.0430
     64 H           4.9154    3.0944   -0.6376 H       1  UNL1        0.0326
     65 H           4.4514    1.7192   -1.6399 H       1  UNL1        0.0326
     66 H           6.8208    3.2234    0.6322 H       1  UNL1        0.0621
     67 H           9.1868    2.5781    0.9408 H       1  UNL1        0.0647
     68 H           6.1470   -0.3268   -1.5589 H       1  UNL1        0.0650
     69 H           3.1111   -1.5503   -0.1646 H       1  UNL1        0.0442
     70 H           3.8438   -0.4768   -1.3498 H       1  UNL1        0.0442
     71 H           1.3749   -0.3404   -1.6514 H       1  UNL1        0.0477
     72 H           1.9311    1.1696   -0.9515 H       1  UNL1        0.0477
@<TRIPOS>BOND
     1     1     2    1
     2     2     3   ar
     3     3     4   ar
     4     4     5   ar
     5     5     6   ar
     6     6     7   ar
     7     7     8    1
     8     8     9   am
     9     8    10    2
    10     7    11   ar
    11    11    12   ar
    12    12    13   ar
    13    13    14   ar
    14    14    15    1
    15    15    16    1
    16    16    17    1
    17    17    18    1
    18    18    19    1
    19    19    20    1
    20    20    21    1
    21    14    22   ar
    22    22    23   ar
    23    23    24    1
    24    24    25    1
    25    25    26    1
    26    26    27    1
    27    27    28    1
    28    28    29    1
    29    29    30    1
    30    30    31   ar
    31    31    32   ar
    32    32    33   ar
    33    33    34    1
    34    33    35   ar
    35    35    36    1
    36    35    37   ar
    37    27    38    1
    38    38    39    1
    39    23    40   ar
    40    40     2   ar
    41    11     3   ar
    42    40    12   ar
    43    21    16    1
    44    39    24    1
    45    37    30   ar
    46     1    41    1
    47     1    42    1
    48     1    43    1
    49     5    44    1
    50     6    45    1
    51     9    46    1
    52     9    47    1
    53    15    48    1
    54    15    49    1
    55    17    50    1
    56    17    51    1
    57    18    52    1
    58    18    53    1
    59    20    54    1
    60    20    55    1
    61    21    56    1
    62    21    57    1
    63    25    58    1
    64    25    59    1
    65    26    60    1
    66    26    61    1
    67    28    62    1
    68    28    63    1
    69    29    64    1
    70    29    65    1
    71    31    66    1
    72    32    67    1
    73    37    68    1
    74    38    69    1
    75    38    70    1
    76    39    71    1
    77    39    72    1
