
     RDKit          3D

 60 63  0  0  0  0  0  0  0  0999 V2000
   -1.7484   -3.4226    0.7007 C   0  0  0  0  0  0  0  0  0  0  0  0
   -1.1431   -3.6876   -0.6337 C   0  0  0  0  0  0  0  0  0  0  0  0
   -0.2916   -2.6418   -1.2302 C   0  0  0  0  0  0  0  0  0  0  0  0
   -0.8710   -1.3250   -1.6021 C   0  0  0  0  0  0  0  0  0  0  0  0
   -1.4643   -0.6305   -0.5059 N   0  0  0  0  0  0  0  0  0  0  0  0
   -0.6335    0.1089    0.2872 C   0  0  0  0  0  0  0  0  0  0  0  0
   -1.2244    0.8178    1.3110 C   0  0  0  0  0  0  0  0  0  0  0  0
   -0.2733    1.4790    1.9814 N   0  0  0  0  0  0  0  0  0  0  0  0
    0.9104    1.1765    1.3684 C   0  0  0  0  0  0  0  0  0  0  0  0
    2.1489    1.7881    1.9168 C   0  0  0  0  0  0  0  0  0  0  0  0
    3.3634    1.4509    1.1447 C   0  0  0  0  0  0  0  0  0  0  0  0
    4.1003    0.3450    1.5163 C   0  0  0  0  0  0  0  0  0  0  0  0
    5.2340    0.0265    0.8002 C   0  0  0  0  0  0  0  0  0  0  0  0
    5.6980    0.7381   -0.2767 C   0  0  0  0  0  0  0  0  0  0  0  0
    6.8510    0.4663   -1.0488 N   0  0  0  0  0  0  0  0  0  0  0  0
    7.7924   -0.5809   -0.8959 C   0  0  0  0  0  0  0  0  0  0  0  0
    8.9807   -0.7885   -1.7598 C   0  0  0  0  0  0  0  0  0  0  0  0
    7.6532   -1.4181    0.0227 O   0  0  0  0  0  0  0  0  0  0  0  0
    4.9490    1.8359   -0.6301 C   0  0  0  0  0  0  0  0  0  0  0  0
    3.8109    2.1805    0.0656 C   0  0  0  0  0  0  0  0  0  0  0  0
    0.6798    0.3401    0.3363 N   0  0  0  0  0  0  0  0  0  0  0  0
   -2.5855    0.7685    1.5061 C   0  0  0  0  0  0  0  0  0  0  0  0
   -3.1109    1.4159    2.4438 O   0  0  0  0  0  0  0  0  0  0  0  0
   -3.4315    0.0568    0.7501 N   0  0  0  0  0  0  0  0  0  0  0  0
   -4.8657   -0.0913    0.8095 C   0  0  0  0  0  0  0  0  0  0  0  0
   -5.6296    0.8478   -0.0363 C   0  0  0  0  0  0  0  0  0  0  0  0
   -6.1478    0.3775   -1.2532 C   0  0  0  0  0  0  0  0  0  0  0  0
   -6.8712    1.1404   -2.1417 C   0  0  0  0  0  0  0  0  0  0  0  0
   -7.1230    2.4626   -1.8478 C   0  0  0  0  0  0  0  0  0  0  0  0
   -6.6413    2.9812   -0.6699 C   0  0  0  0  0  0  0  0  0  0  0  0
   -5.9251    2.1703    0.1785 C   0  0  0  0  0  0  0  0  0  0  0  0
   -5.4995    2.7394    1.3106 F   0  0  0  0  0  0  0  0  0  0  0  0
   -2.8020   -0.6285   -0.2508 C   0  0  0  0  0  0  0  0  0  0  0  0
   -3.4570   -1.3448   -1.0524 O   0  0  0  0  0  0  0  0  0  0  0  0
   -2.8377   -3.2986    0.7290 H   0  0  0  0  0  0  0  0  0  0  0  0
   -1.2754   -2.5521    1.1737 H   0  0  0  0  0  0  0  0  0  0  0  0
   -1.5865   -4.3346    1.3809 H   0  0  0  0  0  0  0  0  0  0  0  0
   -1.9099   -3.9917   -1.3962 H   0  0  0  0  0  0  0  0  0  0  0  0
   -0.5202   -4.6353   -0.5328 H   0  0  0  0  0  0  0  0  0  0  0  0
    0.2803   -3.0865   -2.1210 H   0  0  0  0  0  0  0  0  0  0  0  0
    0.5801   -2.5039   -0.4982 H   0  0  0  0  0  0  0  0  0  0  0  0
   -1.6397   -1.4388   -2.4391 H   0  0  0  0  0  0  0  0  0  0  0  0
   -0.0355   -0.6850   -1.9990 H   0  0  0  0  0  0  0  0  0  0  0  0
   -0.4641    2.0973    2.8123 H   0  0  0  0  0  0  0  0  0  0  0  0
    1.9704    2.8912    1.9623 H   0  0  0  0  0  0  0  0  0  0  0  0
    2.2464    1.4965    3.0023 H   0  0  0  0  0  0  0  0  0  0  0  0
    3.7846   -0.2560    2.3584 H   0  0  0  0  0  0  0  0  0  0  0  0
    5.7624   -0.8299    1.1257 H   0  0  0  0  0  0  0  0  0  0  0  0
    7.1091    1.0728   -1.8554 H   0  0  0  0  0  0  0  0  0  0  0  0
    9.8969   -0.3935   -1.3219 H   0  0  0  0  0  0  0  0  0  0  0  0
    9.1384   -1.8873   -1.9140 H   0  0  0  0  0  0  0  0  0  0  0  0
    8.7632   -0.3790   -2.7652 H   0  0  0  0  0  0  0  0  0  0  0  0
    5.2500    2.4562   -1.4774 H   0  0  0  0  0  0  0  0  0  0  0  0
    3.2651    3.0527   -0.2591 H   0  0  0  0  0  0  0  0  0  0  0  0
   -5.2244   -0.0432    1.8743 H   0  0  0  0  0  0  0  0  0  0  0  0
   -5.1627   -1.1379    0.5000 H   0  0  0  0  0  0  0  0  0  0  0  0
   -6.0315   -0.6475   -1.6177 H   0  0  0  0  0  0  0  0  0  0  0  0
   -7.2708    0.7825   -3.0774 H   0  0  0  0  0  0  0  0  0  0  0  0
   -7.6856    3.0978   -2.5150 H   0  0  0  0  0  0  0  0  0  0  0  0
   -6.8353    3.9993   -0.4438 H   0  0  0  0  0  0  0  0  0  0  0  0
  1  2  1  0
  2  3  1  0
  3  4  1  0
  4  5  1  0
  5  6  1  0
  6  7  2  0
  7  8  1  0
  8  9  1  0
  9 10  1  0
 10 11  1  0
 11 12  2  0
 12 13  1  0
 13 14  2  0
 14 15  1  0
 15 16  1  0
 16 17  1  0
 16 18  2  0
 14 19  1  0
 19 20  2  0
  9 21  2  0
  7 22  1  0
 22 23  2  0
 22 24  1  0
 24 25  1  0
 25 26  1  0
 26 27  2  0
 27 28  1  0
 28 29  2  0
 29 30  1  0
 30 31  2  0
 31 32  1  0
 24 33  1  0
 33 34  2  0
 33  5  1  0
 21  6  1  0
 31 26  1  0
 20 11  1  0
  1 35  1  0
  1 36  1  0
  1 37  1  0
  2 38  1  0
  2 39  1  0
  3 40  1  0
  3 41  1  0
  4 42  1  0
  4 43  1  0
  8 44  1  0
 10 45  1  0
 10 46  1  0
 12 47  1  0
 13 48  1  0
 15 49  1  0
 17 50  1  0
 17 51  1  0
 17 52  1  0
 19 53  1  0
 20 54  1  0
 25 55  1  0
 25 56  1  0
 27 57  1  0
 28 58  1  0
 29 59  1  0
 30 60  1  0
M  END
$$$$
