@<TRIPOS>MOLECULE
*****
 60 63 0 0 0
SMALL
GASTEIGER

@<TRIPOS>ATOM
      1 C          -1.7484   -3.4226    0.7007 C.3     1  UNL1       -0.0652
      2 C          -1.1431   -3.6876   -0.6337 C.3     1  UNL1       -0.0543
      3 C          -0.2916   -2.6418   -1.2302 C.3     1  UNL1       -0.0350
      4 C          -0.8710   -1.3250   -1.6021 C.3     1  UNL1        0.0295
      5 N          -1.4643   -0.6305   -0.5059 N.ar    1  UNL1       -0.2764
      6 C          -0.6335    0.1089    0.2872 C.ar    1  UNL1        0.1682
      7 C          -1.2244    0.8178    1.3110 C.ar    1  UNL1        0.1491
      8 N          -0.2733    1.4790    1.9814 N.ar    1  UNL1       -0.3361
      9 C           0.9104    1.1765    1.3684 C.ar    1  UNL1        0.1143
     10 C           2.1489    1.7881    1.9168 C.3     1  UNL1        0.0307
     11 C           3.3634    1.4509    1.1447 C.ar    1  UNL1       -0.0400
     12 C           4.1003    0.3450    1.5163 C.ar    1  UNL1       -0.0564
     13 C           5.2340    0.0265    0.8002 C.ar    1  UNL1       -0.0402
     14 C           5.6980    0.7381   -0.2767 C.ar    1  UNL1        0.0334
     15 N           6.8510    0.4663   -1.0488 N.am    1  UNL1       -0.2857
     16 C           7.7924   -0.5809   -0.8959 C.2     1  UNL1        0.2141
     17 C           8.9807   -0.7885   -1.7598 C.3     1  UNL1        0.0125
     18 O           7.6532   -1.4181    0.0227 O.2     1  UNL1       -0.2758
     19 C           4.9490    1.8359   -0.6301 C.ar    1  UNL1       -0.0402
     20 C           3.8109    2.1805    0.0656 C.ar    1  UNL1       -0.0564
     21 N           0.6798    0.3401    0.3363 N.ar    1  UNL1       -0.2141
     22 C          -2.5855    0.7685    1.5061 C.ar    1  UNL1        0.2825
     23 O          -3.1109    1.4159    2.4438 O.2     1  UNL1       -0.2652
     24 N          -3.4315    0.0568    0.7501 N.ar    1  UNL1       -0.2546
     25 C          -4.8657   -0.0913    0.8095 C.3     1  UNL1        0.0588
     26 C          -5.6296    0.8478   -0.0363 C.ar    1  UNL1        0.0076
     27 C          -6.1478    0.3775   -1.2532 C.ar    1  UNL1       -0.0541
     28 C          -6.8712    1.1404   -2.1417 C.ar    1  UNL1       -0.0613
     29 C          -7.1230    2.4626   -1.8478 C.ar    1  UNL1       -0.0590
     30 C          -6.6413    2.9812   -0.6699 C.ar    1  UNL1       -0.0261
     31 C          -5.9251    2.1703    0.1785 C.ar    1  UNL1        0.1283
     32 F          -5.4995    2.7394    1.3106 F       1  UNL1       -0.2051
     33 C          -2.8020   -0.6285   -0.2508 C.ar    1  UNL1        0.3339
     34 O          -3.4570   -1.3448   -1.0524 O.2     1  UNL1       -0.2462
     35 H          -2.8377   -3.2986    0.7290 H       1  UNL1        0.0230
     36 H          -1.2754   -2.5521    1.1737 H       1  UNL1        0.0230
     37 H          -1.5865   -4.3346    1.3809 H       1  UNL1        0.0230
     38 H          -1.9099   -3.9917   -1.3962 H       1  UNL1        0.0263
     39 H          -0.5202   -4.6353   -0.5328 H       1  UNL1        0.0263
     40 H           0.2803   -3.0865   -2.1210 H       1  UNL1        0.0282
     41 H           0.5801   -2.5039   -0.4982 H       1  UNL1        0.0282
     42 H          -1.6397   -1.4388   -2.4391 H       1  UNL1        0.0494
     43 H          -0.0355   -0.6850   -1.9990 H       1  UNL1        0.0494
     44 H          -0.4641    2.0973    2.8123 H       1  UNL1        0.1673
     45 H           1.9704    2.8912    1.9623 H       1  UNL1        0.0392
     46 H           2.2464    1.4965    3.0023 H       1  UNL1        0.0392
     47 H           3.7846   -0.2560    2.3584 H       1  UNL1        0.0621
     48 H           5.7624   -0.8299    1.1257 H       1  UNL1        0.0636
     49 H           7.1091    1.0728   -1.8554 H       1  UNL1        0.1548
     50 H           9.8969   -0.3935   -1.3219 H       1  UNL1        0.0323
     51 H           9.1384   -1.8873   -1.9140 H       1  UNL1        0.0323
     52 H           8.7632   -0.3790   -2.7652 H       1  UNL1        0.0323
     53 H           5.2500    2.4562   -1.4774 H       1  UNL1        0.0636
     54 H           3.2651    3.0527   -0.2591 H       1  UNL1        0.0621
     55 H          -5.2244   -0.0432    1.8743 H       1  UNL1        0.0545
     56 H          -5.1627   -1.1379    0.5000 H       1  UNL1        0.0545
     57 H          -6.0315   -0.6475   -1.6177 H       1  UNL1        0.0622
     58 H          -7.2708    0.7825   -3.0774 H       1  UNL1        0.0618
     59 H          -7.6856    3.0978   -2.5150 H       1  UNL1        0.0618
     60 H          -6.8353    3.9993   -0.4438 H       1  UNL1        0.0646
@<TRIPOS>BOND
     1     1     2    1
     2     2     3    1
     3     3     4    1
     4     4     5    1
     5     5     6   ar
     6     6     7   ar
     7     7     8   ar
     8     8     9   ar
     9     9    10    1
    10    10    11    1
    11    11    12   ar
    12    12    13   ar
    13    13    14   ar
    14    14    15    1
    15    15    16   am
    16    16    17    1
    17    16    18    2
    18    14    19   ar
    19    19    20   ar
    20     9    21   ar
    21     7    22   ar
    22    22    23    2
    23    22    24   ar
    24    24    25    1
    25    25    26    1
    26    26    27   ar
    27    27    28   ar
    28    28    29   ar
    29    29    30   ar
    30    30    31   ar
    31    31    32    1
    32    24    33   ar
    33    33    34    2
    34    33     5   ar
    35    21     6   ar
    36    31    26   ar
    37    20    11   ar
    38     1    35    1
    39     1    36    1
    40     1    37    1
    41     2    38    1
    42     2    39    1
    43     3    40    1
    44     3    41    1
    45     4    42    1
    46     4    43    1
    47     8    44    1
    48    10    45    1
    49    10    46    1
    50    12    47    1
    51    13    48    1
    52    15    49    1
    53    17    50    1
    54    17    51    1
    55    17    52    1
    56    19    53    1
    57    20    54    1
    58    25    55    1
    59    25    56    1
    60    27    57    1
    61    28    58    1
    62    29    59    1
    63    30    60    1
