
     RDKit          3D

 91 93  0  0  0  0  0  0  0  0999 V2000
    0.8118    0.9018    0.6499 C   0  0  2  0  0  0  0  0  0  0  0  0
    1.4219    1.8374   -0.3131 C   0  0  0  0  0  0  0  0  0  0  0  0
    0.6006    2.6145   -1.2106 C   0  0  0  0  0  0  0  0  0  0  0  0
    0.2199    3.9085   -0.8374 C   0  0  0  0  0  0  0  0  0  0  0  0
   -0.5469    4.6591   -1.7043 C   0  0  0  0  0  0  0  0  0  0  0  0
   -0.9747    4.2172   -2.9366 C   0  0  0  0  0  0  0  0  0  0  0  0
   -0.5772    2.9209   -3.2766 C   0  0  0  0  0  0  0  0  0  0  0  0
    0.1970    2.1328   -2.4288 C   0  0  0  0  0  0  0  0  0  0  0  0
   -0.9578    6.0084   -1.3438 C   0  0  0  0  0  0  0  0  0  0  0  0
   -1.1986    7.0872   -2.2345 N   0  0  0  0  0  0  0  0  0  0  0  0
   -1.2128    6.6098   -0.2172 N   0  0  0  0  0  0  0  0  0  0  0  0
   -0.1009    1.4640    1.6010 N   0  0  0  0  0  0  0  0  0  0  0  0
   -1.3582    0.4211    2.1562 S   0  0  0  0  0  0  0  0  0  0  0  0
   -2.1302    1.2062    3.2219 O   0  0  0  0  0  0  0  0  0  0  0  0
   -0.6019   -0.5648    2.9861 O   0  0  0  0  0  0  0  0  0  0  0  0
   -2.4430   -0.1662    1.0233 C   0  0  0  0  0  0  0  0  0  0  0  0
   -3.3623    0.7667    0.5678 C   0  0  0  0  0  0  0  0  0  0  0  0
   -4.3610    0.4265   -0.3586 C   0  0  0  0  0  0  0  0  0  0  0  0
   -4.4778   -0.8706   -0.8687 C   0  0  0  0  0  0  0  0  0  0  0  0
   -3.5326   -1.7550   -0.3743 C   0  0  0  0  0  0  0  0  0  0  0  0
   -2.5015   -1.4922    0.5568 C   0  0  0  0  0  0  0  0  0  0  0  0
   -1.6439   -2.5704    1.0456 C   0  0  0  0  0  0  0  0  0  0  0  0
   -0.2620   -2.6768    0.5106 C   0  0  0  0  0  0  0  0  0  0  0  0
   -1.8518   -2.9870    2.4809 C   0  0  0  0  0  0  0  0  0  0  0  0
   -5.4939   -1.3190   -1.8498 C   0  0  0  0  0  0  0  0  0  0  0  0
   -4.9208   -2.0307   -3.0311 C   0  0  0  0  0  0  0  0  0  0  0  0
   -6.5196   -2.1959   -1.1240 C   0  0  0  0  0  0  0  0  0  0  0  0
   -3.5366    2.1999    0.8561 C   0  0  0  0  0  0  0  0  0  0  0  0
   -3.1238    2.9329   -0.4237 C   0  0  0  0  0  0  0  0  0  0  0  0
   -4.9896    2.5967    1.0758 C   0  0  0  0  0  0  0  0  0  0  0  0
    2.0607    0.4357    1.4819 C   0  0  0  0  0  0  0  0  0  0  0  0
    2.0417    0.6465    2.7228 O   0  0  0  0  0  0  0  0  0  0  0  0
    3.2697   -0.2023    1.1365 N   0  0  0  0  0  0  0  0  0  0  0  0
    4.0515   -0.3740    2.3365 C   0  0  0  0  0  0  0  0  0  0  0  0
    5.5053   -0.5629    1.8788 C   0  0  0  0  0  0  0  0  0  0  0  0
    5.5048   -1.8119    1.1433 N   0  0  0  0  0  0  0  0  0  0  0  0
    4.6696   -1.8465   -0.0375 C   0  0  0  0  0  0  0  0  0  0  0  0
    3.7504   -0.6552   -0.1557 C   0  0  0  0  0  0  0  0  0  0  0  0
    6.2554   -2.9559    1.5166 C   0  0  0  0  0  0  0  0  0  0  0  0
    6.8520   -2.5882    2.5678 O   0  0  0  0  0  0  0  0  0  0  0  0
    6.1980   -4.1785    0.7142 C   0  0  0  0  0  0  0  0  0  0  0  0
    7.0814   -5.2279    1.3721 C   0  0  0  0  0  0  0  0  0  0  0  0
    8.4402   -4.7490    1.4402 N   0  0  0  0  0  0  0  0  0  0  0  0
    0.4673   -0.0635    0.3034 H   0  0  0  0  0  0  0  0  0  0  0  0
    2.1574    1.2710   -0.9750 H   0  0  0  0  0  0  0  0  0  0  0  0
    2.1058    2.5670    0.2128 H   0  0  0  0  0  0  0  0  0  0  0  0
    0.4845    4.3825    0.1008 H   0  0  0  0  0  0  0  0  0  0  0  0
   -1.5692    4.8071   -3.6016 H   0  0  0  0  0  0  0  0  0  0  0  0
   -0.9138    2.5635   -4.2554 H   0  0  0  0  0  0  0  0  0  0  0  0
    0.4860    1.1342   -2.7247 H   0  0  0  0  0  0  0  0  0  0  0  0
   -1.8968    7.3632   -2.9765 H   0  0  0  0  0  0  0  0  0  0  0  0
   -0.6440    7.9741   -2.3587 H   0  0  0  0  0  0  0  0  0  0  0  0
   -1.1073    6.0128    0.6509 H   0  0  0  0  0  0  0  0  0  0  0  0
    0.4618    1.8575    2.3722 H   0  0  0  0  0  0  0  0  0  0  0  0
   -5.1417    1.0721   -0.7925 H   0  0  0  0  0  0  0  0  0  0  0  0
   -3.6334   -2.7775   -0.7848 H   0  0  0  0  0  0  0  0  0  0  0  0
   -2.1102   -3.5030    0.5311 H   0  0  0  0  0  0  0  0  0  0  0  0
    0.5433   -2.3137    1.2146 H   0  0  0  0  0  0  0  0  0  0  0  0
    0.0939   -3.7357    0.3263 H   0  0  0  0  0  0  0  0  0  0  0  0
   -0.1383   -2.2356   -0.4987 H   0  0  0  0  0  0  0  0  0  0  0  0
   -2.5737   -2.3565    3.0407 H   0  0  0  0  0  0  0  0  0  0  0  0
   -2.3764   -4.0014    2.5777 H   0  0  0  0  0  0  0  0  0  0  0  0
   -0.9097   -3.2154    3.0282 H   0  0  0  0  0  0  0  0  0  0  0  0
   -6.0792   -0.4028   -2.1295 H   0  0  0  0  0  0  0  0  0  0  0  0
   -5.4311   -1.6419   -3.9483 H   0  0  0  0  0  0  0  0  0  0  0  0
   -3.8334   -1.8092   -3.1226 H   0  0  0  0  0  0  0  0  0  0  0  0
   -5.1373   -3.1182   -2.9384 H   0  0  0  0  0  0  0  0  0  0  0  0
   -7.1410   -2.7170   -1.8513 H   0  0  0  0  0  0  0  0  0  0  0  0
   -7.1409   -1.5290   -0.4923 H   0  0  0  0  0  0  0  0  0  0  0  0
   -5.9853   -2.8964   -0.4527 H   0  0  0  0  0  0  0  0  0  0  0  0
   -3.0165    2.5913    1.7251 H   0  0  0  0  0  0  0  0  0  0  0  0
   -2.9084    3.9961   -0.2102 H   0  0  0  0  0  0  0  0  0  0  0  0
   -2.2710    2.4552   -0.9347 H   0  0  0  0  0  0  0  0  0  0  0  0
   -3.9513    2.9307   -1.1625 H   0  0  0  0  0  0  0  0  0  0  0  0
   -5.5511    1.8121    1.6183 H   0  0  0  0  0  0  0  0  0  0  0  0
   -5.4809    2.8623    0.0946 H   0  0  0  0  0  0  0  0  0  0  0  0
   -5.0371    3.4977    1.7026 H   0  0  0  0  0  0  0  0  0  0  0  0
    3.8037   -1.3401    2.8645 H   0  0  0  0  0  0  0  0  0  0  0  0
    3.9652    0.4124    3.0819 H   0  0  0  0  0  0  0  0  0  0  0  0
    6.1923   -0.5555    2.7332 H   0  0  0  0  0  0  0  0  0  0  0  0
    5.8121    0.2729    1.1910 H   0  0  0  0  0  0  0  0  0  0  0  0
    4.0249   -2.7608    0.0670 H   0  0  0  0  0  0  0  0  0  0  0  0
    5.2724   -1.8882   -0.9687 H   0  0  0  0  0  0  0  0  0  0  0  0
    2.9152   -0.9852   -0.8131 H   0  0  0  0  0  0  0  0  0  0  0  0
    4.2708    0.1872   -0.6459 H   0  0  0  0  0  0  0  0  0  0  0  0
    5.1614   -4.5266    0.6446 H   0  0  0  0  0  0  0  0  0  0  0  0
    6.6031   -3.9616   -0.2976 H   0  0  0  0  0  0  0  0  0  0  0  0
    6.7337   -5.4556    2.3893 H   0  0  0  0  0  0  0  0  0  0  0  0
    7.0307   -6.1387    0.7385 H   0  0  0  0  0  0  0  0  0  0  0  0
    8.5766   -4.3125    2.3958 H   0  0  0  0  0  0  0  0  0  0  0  0
    8.5640   -3.9941    0.7194 H   0  0  0  0  0  0  0  0  0  0  0  0
  1  2  1  0
  2  3  1  0
  3  4  2  0
  4  5  1  0
  5  6  2  0
  6  7  1  0
  7  8  2  0
  5  9  1  0
  9 10  1  0
  9 11  2  3
  1 12  1  0
 12 13  1  0
 13 14  2  0
 13 15  2  0
 13 16  1  0
 16 17  2  0
 17 18  1  0
 18 19  2  0
 19 20  1  0
 20 21  2  0
 21 22  1  0
 22 23  1  0
 22 24  1  0
 19 25  1  0
 25 26  1  0
 25 27  1  0
 17 28  1  0
 28 29  1  0
 28 30  1  0
  1 31  1  0
 31 32  2  0
 31 33  1  0
 33 34  1  0
 34 35  1  0
 35 36  1  0
 36 37  1  0
 37 38  1  0
 36 39  1  0
 39 40  2  0
 39 41  1  0
 41 42  1  0
 42 43  1  0
  8  3  1  0
 21 16  1  0
 38 33  1  0
  1 44  1  6
  2 45  1  0
  2 46  1  0
  4 47  1  0
  6 48  1  0
  7 49  1  0
  8 50  1  0
 10 51  1  0
 10 52  1  0
 11 53  1  0
 12 54  1  0
 18 55  1  0
 20 56  1  0
 22 57  1  0
 23 58  1  0
 23 59  1  0
 23 60  1  0
 24 61  1  0
 24 62  1  0
 24 63  1  0
 25 64  1  0
 26 65  1  0
 26 66  1  0
 26 67  1  0
 27 68  1  0
 27 69  1  0
 27 70  1  0
 28 71  1  0
 29 72  1  0
 29 73  1  0
 29 74  1  0
 30 75  1  0
 30 76  1  0
 30 77  1  0
 34 78  1  0
 34 79  1  0
 35 80  1  0
 35 81  1  0
 37 82  1  0
 37 83  1  0
 38 84  1  0
 38 85  1  0
 41 86  1  0
 41 87  1  0
 42 88  1  0
 42 89  1  0
 43 90  1  0
 43 91  1  0
M  END
$$$$
