@<TRIPOS>MOLECULE
*****
 31 32 0 0 0
SMALL
GASTEIGER

@<TRIPOS>ATOM
      1 C           5.2969    0.6595   -0.6363 C.3     1  UNL1        0.0789
      2 O           4.0019    1.1408   -0.9294 O.3     1  UNL1       -0.4930
      3 C           2.8447    0.4864   -0.5022 C.ar    1  UNL1        0.1462
      4 C           2.2263   -0.4787   -1.2575 C.ar    1  UNL1        0.0563
      5 I           3.0577   -0.9853   -3.1262 I       1  UNL1       -0.0400
      6 C           1.0699   -1.1406   -0.8439 C.ar    1  UNL1       -0.0415
      7 C           0.5489   -0.7937    0.3726 C.ar    1  UNL1       -0.0407
      8 C          -0.6826   -1.4507    0.8579 C.3     1  UNL1        0.0023
      9 C          -1.8729   -0.6127    0.6950 C.ar    1  UNL1        0.0146
     10 C          -2.3885    0.0466    1.8059 C.ar    1  UNL1        0.0379
     11 N          -3.4752    0.8179    1.6477 N.ar    1  UNL1       -0.2227
     12 C          -4.0801    0.9759    0.4632 C.ar    1  UNL1        0.2142
     13 N          -5.2419    1.8027    0.3030 N.pl3   1  UNL1       -0.3274
     14 N          -3.5821    0.3395   -0.6074 N.ar    1  UNL1       -0.1999
     15 C          -2.4770   -0.4639   -0.5232 C.ar    1  UNL1        0.1247
     16 N          -2.0005   -1.1171   -1.6920 N.pl3   1  UNL1       -0.3428
     17 C           1.1430    0.1775    1.1693 C.ar    1  UNL1       -0.0415
     18 C           2.2839    0.8033    0.7181 C.ar    1  UNL1        0.0563
     19 I           3.2514    2.2958    1.8705 I       1  UNL1       -0.0400
     20 H           5.9413    1.5616   -0.4514 H       1  UNL1        0.0660
     21 H           5.2939    0.0415    0.3043 H       1  UNL1        0.0660
     22 H           5.7689    0.1265   -1.4821 H       1  UNL1        0.0660
     23 H           0.6147   -1.9071   -1.4700 H       1  UNL1        0.0632
     24 H          -0.8709   -2.3795    0.2403 H       1  UNL1        0.0363
     25 H          -0.5148   -1.7646    1.9137 H       1  UNL1        0.0363
     26 H          -1.8845   -0.0953    2.7531 H       1  UNL1        0.0834
     27 H          -5.9920    1.7318    1.0270 H       1  UNL1        0.1452
     28 H          -5.3699    2.4598   -0.4890 H       1  UNL1        0.1452
     29 H          -1.9771   -2.1570   -1.7564 H       1  UNL1        0.1437
     30 H          -1.6638   -0.5757   -2.5115 H       1  UNL1        0.1437
     31 H           0.7304    0.4546    2.1371 H       1  UNL1        0.0632
@<TRIPOS>BOND
     1     1     2    1
     2     2     3    1
     3     3     4   ar
     4     4     5    1
     5     4     6   ar
     6     6     7   ar
     7     7     8    1
     8     8     9    1
     9     9    10   ar
    10    10    11   ar
    11    11    12   ar
    12    12    13    1
    13    12    14   ar
    14    14    15   ar
    15    15    16    1
    16     7    17   ar
    17    17    18   ar
    18    18    19    1
    19    18     3   ar
    20    15     9   ar
    21     1    20    1
    22     1    21    1
    23     1    22    1
    24     6    23    1
    25     8    24    1
    26     8    25    1
    27    10    26    1
    28    13    27    1
    29    13    28    1
    30    16    29    1
    31    16    30    1
    32    17    31    1
