
     RDKit          3D

 29 30  0  0  0  0  0  0  0  0999 V2000
   -5.5078   -0.2443   -0.2070 C   0  0  0  0  0  0  0  0  0  0  0  0
   -4.4811    0.2994    0.5642 O   0  0  0  0  0  0  0  0  0  0  0  0
   -3.1434    0.3059    0.2025 C   0  0  0  0  0  0  0  0  0  0  0  0
   -2.2564    0.8865    1.0866 C   0  0  0  0  0  0  0  0  0  0  0  0
   -0.8935    0.9184    0.7684 C   0  0  0  0  0  0  0  0  0  0  0  0
   -0.4568    0.3688   -0.4234 C   0  0  0  0  0  0  0  0  0  0  0  0
   -1.3175   -0.2175   -1.3272 C   0  0  0  0  0  0  0  0  0  0  0  0
   -2.6536   -0.2359   -0.9924 C   0  0  0  0  0  0  0  0  0  0  0  0
    0.9461    0.4077   -0.7474 C   0  0  0  0  0  0  0  0  0  0  0  0
    1.3071    0.7880   -1.9188 O   0  0  0  0  0  0  0  0  0  0  0  0
    2.1976    0.1387   -0.1425 N   0  0  0  0  0  0  0  0  0  0  0  0
    3.4204    0.3247   -0.8967 C   0  0  0  0  0  0  0  0  0  0  0  0
    4.2668   -0.7778   -0.2405 C   0  0  0  0  0  0  0  0  0  0  0  0
    4.0005   -0.4772    1.2164 C   0  0  0  0  0  0  0  0  0  0  0  0
    2.5105   -0.3173    1.1711 C   0  0  0  0  0  0  0  0  0  0  0  0
    1.6521   -0.5250    2.0680 O   0  0  0  0  0  0  0  0  0  0  0  0
   -6.3834   -0.4925    0.4036 H   0  0  0  0  0  0  0  0  0  0  0  0
   -5.7969    0.5040   -0.9764 H   0  0  0  0  0  0  0  0  0  0  0  0
   -5.1615   -1.1904   -0.6933 H   0  0  0  0  0  0  0  0  0  0  0  0
   -2.6276    1.3184    2.0264 H   0  0  0  0  0  0  0  0  0  0  0  0
   -0.2737    1.3807    1.4939 H   0  0  0  0  0  0  0  0  0  0  0  0
   -1.0177   -0.6588   -2.2697 H   0  0  0  0  0  0  0  0  0  0  0  0
   -3.4090   -0.6775   -1.6420 H   0  0  0  0  0  0  0  0  0  0  0  0
    3.3081    0.1472   -1.9603 H   0  0  0  0  0  0  0  0  0  0  0  0
    3.9005    1.3009   -0.6698 H   0  0  0  0  0  0  0  0  0  0  0  0
    5.3238   -0.7145   -0.5125 H   0  0  0  0  0  0  0  0  0  0  0  0
    3.7625   -1.7379   -0.4781 H   0  0  0  0  0  0  0  0  0  0  0  0
    4.4570    0.5040    1.5102 H   0  0  0  0  0  0  0  0  0  0  0  0
    4.3269   -1.3267    1.8451 H   0  0  0  0  0  0  0  0  0  0  0  0
  1  2  1  0
  2  3  1  0
  3  4  2  0
  4  5  1  0
  5  6  2  0
  6  7  1  0
  7  8  2  0
  6  9  1  0
  9 10  2  0
  9 11  1  0
 11 12  1  0
 12 13  1  0
 13 14  1  0
 14 15  1  0
 15 16  2  0
  8  3  1  0
 15 11  1  0
  1 17  1  0
  1 18  1  0
  1 19  1  0
  4 20  1  0
  5 21  1  0
  7 22  1  0
  8 23  1  0
 12 24  1  0
 12 25  1  0
 13 26  1  0
 13 27  1  0
 14 28  1  0
 14 29  1  0
M  END
$$$$
