@<TRIPOS>MOLECULE
*****
 29 30 0 0 0
SMALL
GASTEIGER

@<TRIPOS>ATOM
      1 C          -5.5078   -0.2443   -0.2070 C.3     1  UNL1        0.0788
      2 O          -4.4811    0.2994    0.5642 O.3     1  UNL1       -0.4951
      3 C          -3.1434    0.3059    0.2025 C.ar    1  UNL1        0.1201
      4 C          -2.2564    0.8865    1.0866 C.ar    1  UNL1       -0.0192
      5 C          -0.8935    0.9184    0.7684 C.ar    1  UNL1       -0.0462
      6 C          -0.4568    0.3688   -0.4234 C.ar    1  UNL1        0.0375
      7 C          -1.3175   -0.2175   -1.3272 C.ar    1  UNL1       -0.0462
      8 C          -2.6536   -0.2359   -0.9924 C.ar    1  UNL1       -0.0192
      9 C           0.9461    0.4077   -0.7474 C.2     1  UNL1        0.2528
     10 O           1.3071    0.7880   -1.9188 O.2     1  UNL1       -0.2696
     11 N           2.1976    0.1387   -0.1425 N.am    1  UNL1       -0.2381
     12 C           3.4204    0.3247   -0.8967 C.3     1  UNL1        0.0231
     13 C           4.2668   -0.7778   -0.2405 C.3     1  UNL1       -0.0284
     14 C           4.0005   -0.4772    1.2164 C.3     1  UNL1        0.0260
     15 C           2.5105   -0.3173    1.1711 C.2     1  UNL1        0.2221
     16 O           1.6521   -0.5250    2.0680 O.2     1  UNL1       -0.2752
     17 H          -6.3834   -0.4925    0.4036 H       1  UNL1        0.0660
     18 H          -5.7969    0.5040   -0.9764 H       1  UNL1        0.0660
     19 H          -5.1615   -1.1904   -0.6933 H       1  UNL1        0.0660
     20 H          -2.6276    1.3184    2.0264 H       1  UNL1        0.0654
     21 H          -0.2737    1.3807    1.4939 H       1  UNL1        0.0626
     22 H          -1.0177   -0.6588   -2.2697 H       1  UNL1        0.0626
     23 H          -3.4090   -0.6775   -1.6420 H       1  UNL1        0.0654
     24 H           3.3081    0.1472   -1.9603 H       1  UNL1        0.0470
     25 H           3.9005    1.3009   -0.6698 H       1  UNL1        0.0470
     26 H           5.3238   -0.7145   -0.5125 H       1  UNL1        0.0285
     27 H           3.7625   -1.7379   -0.4781 H       1  UNL1        0.0285
     28 H           4.4570    0.5040    1.5102 H       1  UNL1        0.0359
     29 H           4.3269   -1.3267    1.8451 H       1  UNL1        0.0359
@<TRIPOS>BOND
     1     1     2    1
     2     2     3    1
     3     3     4   ar
     4     4     5   ar
     5     5     6   ar
     6     6     7   ar
     7     7     8   ar
     8     6     9    1
     9     9    10    2
    10     9    11   am
    11    11    12    1
    12    12    13    1
    13    13    14    1
    14    14    15    1
    15    15    16    2
    16     8     3   ar
    17    15    11   am
    18     1    17    1
    19     1    18    1
    20     1    19    1
    21     4    20    1
    22     5    21    1
    23     7    22    1
    24     8    23    1
    25    12    24    1
    26    12    25    1
    27    13    26    1
    28    13    27    1
    29    14    28    1
    30    14    29    1
