@<TRIPOS>MOLECULE
*****
 49 52 0 0 0
SMALL
GASTEIGER

@<TRIPOS>ATOM
      1 C          -0.4225    3.2713   -1.3474 C.3     1  UNL1       -0.0364
      2 C          -1.4413    2.2853   -0.9247 C.ar    1  UNL1       -0.0061
      3 C          -2.7996    2.5808   -1.1614 C.ar    1  UNL1        0.1276
      4 F          -3.0889    3.7832   -1.7007 F       1  UNL1       -0.2052
      5 C          -3.7651    1.6684   -0.8482 C.ar    1  UNL1       -0.0140
      6 C          -3.4748    0.4405   -0.2979 C.ar    1  UNL1        0.0400
      7 C          -4.5147   -0.5227    0.0297 C.2     1  UNL1        0.2444
      8 O          -4.2224   -1.6580    0.5406 O.2     1  UNL1       -0.2702
      9 N          -5.9023   -0.3193   -0.1716 N.am    1  UNL1       -0.3085
     10 C          -6.9030   -1.3089    0.1705 C.3     1  UNL1        0.0235
     11 C          -8.1705   -0.8637    0.8484 C.3     1  UNL1       -0.0328
     12 C          -8.1463   -1.4614   -0.5800 C.3     1  UNL1       -0.0328
     13 C          -2.1482    0.1764   -0.0758 C.ar    1  UNL1       -0.0400
     14 C          -1.1161    1.0893   -0.3824 C.ar    1  UNL1        0.0067
     15 C           0.2125    0.5873   -0.1064 C.ar    1  UNL1        0.0714
     16 C           1.2565    1.3793    0.2454 C.ar    1  UNL1       -0.0350
     17 C           2.5306    0.8824    0.5709 C.ar    1  UNL1       -0.0461
     18 C           2.7199   -0.4726    0.5304 C.ar    1  UNL1        0.0548
     19 C           3.9899   -1.0695    0.8480 C.2     1  UNL1        0.2455
     20 O           4.0736   -2.3403    0.7809 O.2     1  UNL1       -0.2701
     21 N           5.1177   -0.3250    1.2211 N.am    1  UNL1       -0.3110
     22 C           6.3988   -0.8684    1.5283 C.3     1  UNL1        0.0147
     23 C           7.1332   -1.5496    0.4344 C.3     1  UNL1       -0.0254
     24 C           7.4999   -0.7188   -0.7550 C.3     1  UNL1       -0.0485
     25 C           6.5452   -1.8765   -0.8814 C.3     1  UNL1       -0.0485
     26 C           1.6185   -1.2673    0.1642 C.ar    1  UNL1        0.0404
     27 N           0.4398   -0.7647   -0.1348 N.ar    1  UNL1       -0.2542
     28 H          -0.1544    4.0082   -0.5874 H       1  UNL1        0.0279
     29 H           0.4422    2.7518   -1.7491 H       1  UNL1        0.0279
     30 H          -0.8422    3.8429   -2.2615 H       1  UNL1        0.0279
     31 H          -4.8016    1.9515   -1.0535 H       1  UNL1        0.0654
     32 H          -6.2020    0.5886   -0.5857 H       1  UNL1        0.1493
     33 H          -6.4772   -2.2389    0.6044 H       1  UNL1        0.0498
     34 H          -8.4176    0.2032    0.9358 H       1  UNL1        0.0284
     35 H          -8.6233   -1.4970    1.6428 H       1  UNL1        0.0284
     36 H          -8.6214   -2.4656   -0.6536 H       1  UNL1        0.0284
     37 H          -8.4971   -0.7681   -1.3594 H       1  UNL1        0.0284
     38 H          -1.9286   -0.8011    0.3614 H       1  UNL1        0.0632
     39 H           1.1632    2.4687    0.3410 H       1  UNL1        0.0639
     40 H           3.3196    1.5798    0.8420 H       1  UNL1        0.0626
     41 H           5.0364    0.7307    1.2867 H       1  UNL1        0.1490
     42 H           6.2666   -1.5695    2.4065 H       1  UNL1        0.0465
     43 H           7.0730   -0.0693    1.9640 H       1  UNL1        0.0465
     44 H           7.9285   -2.2597    0.7642 H       1  UNL1        0.0316
     45 H           7.0980    0.2982   -0.8069 H       1  UNL1        0.0269
     46 H           8.5131   -0.8173   -1.2084 H       1  UNL1        0.0269
     47 H           6.9702   -2.7503   -1.4659 H       1  UNL1        0.0269
     48 H           5.5554   -1.5982   -1.2365 H       1  UNL1        0.0269
     49 H           1.7787   -2.3462    0.1355 H       1  UNL1        0.0837
@<TRIPOS>BOND
     1     1     2    1
     2     2     3   ar
     3     3     4    1
     4     3     5   ar
     5     5     6   ar
     6     6     7    1
     7     7     8    2
     8     7     9   am
     9     9    10    1
    10    10    11    1
    11    11    12    1
    12     6    13   ar
    13    13    14   ar
    14    14    15    1
    15    15    16   ar
    16    16    17   ar
    17    17    18   ar
    18    18    19    1
    19    19    20    2
    20    19    21   am
    21    21    22    1
    22    22    23    1
    23    23    24    1
    24    24    25    1
    25    18    26   ar
    26    26    27   ar
    27    14     2   ar
    28    27    15   ar
    29    12    10    1
    30    25    23    1
    31     1    28    1
    32     1    29    1
    33     1    30    1
    34     5    31    1
    35     9    32    1
    36    10    33    1
    37    11    34    1
    38    11    35    1
    39    12    36    1
    40    12    37    1
    41    13    38    1
    42    16    39    1
    43    17    40    1
    44    21    41    1
    45    22    42    1
    46    22    43    1
    47    23    44    1
    48    24    45    1
    49    24    46    1
    50    25    47    1
    51    25    48    1
    52    26    49    1
