
     RDKit          3D

 49 52  0  0  0  0  0  0  0  0999 V2000
   -0.4225    3.2713   -1.3474 C   0  0  0  0  0  0  0  0  0  0  0  0
   -1.4413    2.2853   -0.9247 C   0  0  0  0  0  0  0  0  0  0  0  0
   -2.7996    2.5808   -1.1614 C   0  0  0  0  0  0  0  0  0  0  0  0
   -3.0889    3.7832   -1.7007 F   0  0  0  0  0  0  0  0  0  0  0  0
   -3.7651    1.6684   -0.8482 C   0  0  0  0  0  0  0  0  0  0  0  0
   -3.4748    0.4405   -0.2979 C   0  0  0  0  0  0  0  0  0  0  0  0
   -4.5147   -0.5227    0.0297 C   0  0  0  0  0  0  0  0  0  0  0  0
   -4.2224   -1.6580    0.5406 O   0  0  0  0  0  0  0  0  0  0  0  0
   -5.9023   -0.3193   -0.1716 N   0  0  0  0  0  0  0  0  0  0  0  0
   -6.9030   -1.3089    0.1705 C   0  0  0  0  0  0  0  0  0  0  0  0
   -8.1705   -0.8637    0.8484 C   0  0  0  0  0  0  0  0  0  0  0  0
   -8.1463   -1.4614   -0.5800 C   0  0  0  0  0  0  0  0  0  0  0  0
   -2.1482    0.1764   -0.0758 C   0  0  0  0  0  0  0  0  0  0  0  0
   -1.1161    1.0893   -0.3824 C   0  0  0  0  0  0  0  0  0  0  0  0
    0.2125    0.5873   -0.1064 C   0  0  0  0  0  0  0  0  0  0  0  0
    1.2565    1.3793    0.2454 C   0  0  0  0  0  0  0  0  0  0  0  0
    2.5306    0.8824    0.5709 C   0  0  0  0  0  0  0  0  0  0  0  0
    2.7199   -0.4726    0.5304 C   0  0  0  0  0  0  0  0  0  0  0  0
    3.9899   -1.0695    0.8480 C   0  0  0  0  0  0  0  0  0  0  0  0
    4.0736   -2.3403    0.7809 O   0  0  0  0  0  0  0  0  0  0  0  0
    5.1177   -0.3250    1.2211 N   0  0  0  0  0  0  0  0  0  0  0  0
    6.3988   -0.8684    1.5283 C   0  0  0  0  0  0  0  0  0  0  0  0
    7.1332   -1.5496    0.4344 C   0  0  0  0  0  0  0  0  0  0  0  0
    7.4999   -0.7188   -0.7550 C   0  0  0  0  0  0  0  0  0  0  0  0
    6.5452   -1.8765   -0.8814 C   0  0  0  0  0  0  0  0  0  0  0  0
    1.6185   -1.2673    0.1642 C   0  0  0  0  0  0  0  0  0  0  0  0
    0.4398   -0.7647   -0.1348 N   0  0  0  0  0  0  0  0  0  0  0  0
   -0.1544    4.0082   -0.5874 H   0  0  0  0  0  0  0  0  0  0  0  0
    0.4422    2.7518   -1.7491 H   0  0  0  0  0  0  0  0  0  0  0  0
   -0.8422    3.8429   -2.2615 H   0  0  0  0  0  0  0  0  0  0  0  0
   -4.8016    1.9515   -1.0535 H   0  0  0  0  0  0  0  0  0  0  0  0
   -6.2020    0.5886   -0.5857 H   0  0  0  0  0  0  0  0  0  0  0  0
   -6.4772   -2.2389    0.6044 H   0  0  0  0  0  0  0  0  0  0  0  0
   -8.4176    0.2032    0.9358 H   0  0  0  0  0  0  0  0  0  0  0  0
   -8.6233   -1.4970    1.6428 H   0  0  0  0  0  0  0  0  0  0  0  0
   -8.6214   -2.4656   -0.6536 H   0  0  0  0  0  0  0  0  0  0  0  0
   -8.4971   -0.7681   -1.3594 H   0  0  0  0  0  0  0  0  0  0  0  0
   -1.9286   -0.8011    0.3614 H   0  0  0  0  0  0  0  0  0  0  0  0
    1.1632    2.4687    0.3410 H   0  0  0  0  0  0  0  0  0  0  0  0
    3.3196    1.5798    0.8420 H   0  0  0  0  0  0  0  0  0  0  0  0
    5.0364    0.7307    1.2867 H   0  0  0  0  0  0  0  0  0  0  0  0
    6.2666   -1.5695    2.4065 H   0  0  0  0  0  0  0  0  0  0  0  0
    7.0730   -0.0693    1.9640 H   0  0  0  0  0  0  0  0  0  0  0  0
    7.9285   -2.2597    0.7642 H   0  0  0  0  0  0  0  0  0  0  0  0
    7.0980    0.2982   -0.8069 H   0  0  0  0  0  0  0  0  0  0  0  0
    8.5131   -0.8173   -1.2084 H   0  0  0  0  0  0  0  0  0  0  0  0
    6.9702   -2.7503   -1.4659 H   0  0  0  0  0  0  0  0  0  0  0  0
    5.5554   -1.5982   -1.2365 H   0  0  0  0  0  0  0  0  0  0  0  0
    1.7787   -2.3462    0.1355 H   0  0  0  0  0  0  0  0  0  0  0  0
  1  2  1  0
  2  3  2  0
  3  4  1  0
  3  5  1  0
  5  6  2  0
  6  7  1  0
  7  8  2  0
  7  9  1  0
  9 10  1  0
 10 11  1  0
 11 12  1  0
  6 13  1  0
 13 14  2  0
 14 15  1  0
 15 16  2  0
 16 17  1  0
 17 18  2  0
 18 19  1  0
 19 20  2  0
 19 21  1  0
 21 22  1  0
 22 23  1  0
 23 24  1  0
 24 25  1  0
 18 26  1  0
 26 27  2  0
 14  2  1  0
 27 15  1  0
 12 10  1  0
 25 23  1  0
  1 28  1  0
  1 29  1  0
  1 30  1  0
  5 31  1  0
  9 32  1  0
 10 33  1  0
 11 34  1  0
 11 35  1  0
 12 36  1  0
 12 37  1  0
 13 38  1  0
 16 39  1  0
 17 40  1  0
 21 41  1  0
 22 42  1  0
 22 43  1  0
 23 44  1  0
 24 45  1  0
 24 46  1  0
 25 47  1  0
 25 48  1  0
 26 49  1  0
M  END
$$$$
