
     RDKit          3D

 44 44  0  0  0  0  0  0  0  0999 V2000
    3.9273    1.0309    0.5292 C   0  0  0  0  0  0  0  0  0  0  0  0
    3.2926    0.3410   -0.6206 C   0  0  0  0  0  0  0  0  0  0  0  0
    2.0760   -0.4540   -0.3974 C   0  0  0  0  0  0  0  0  0  0  0  0
    2.2835   -1.5906    0.5400 C   0  0  0  0  0  0  0  0  0  0  0  0
    2.6946   -1.2343    1.9232 C   0  0  0  0  0  0  0  0  0  0  0  0
    0.9978    0.2818    0.0969 O   0  0  0  0  0  0  0  0  0  0  0  0
   -0.1073    0.2605   -0.7343 C   0  0  2  0  0  0  0  0  0  0  0  0
   -0.3041    1.6572   -1.2107 C   0  0  0  0  0  0  0  0  0  0  0  0
   -1.4836    2.2269   -1.3727 C   0  0  0  0  0  0  0  0  0  0  0  0
   -1.5352    3.6191   -1.8519 C   0  0  0  0  0  0  0  0  0  0  0  0
   -0.4566    4.2086   -2.0873 O   0  0  0  0  0  0  0  0  0  0  0  0
   -2.7380    4.2740   -2.0426 O   0  0  0  0  0  0  0  0  0  0  0  0
   -2.7742    1.5293   -1.0928 C   0  0  0  0  0  0  0  0  0  0  0  0
   -2.4846    0.0461   -1.0747 C   0  0  2  0  0  0  0  0  0  0  0  0
   -3.6445   -0.7466   -0.7706 N   0  0  0  0  0  0  0  0  0  0  0  0
   -1.3810   -0.1354   -0.0214 C   0  0  1  0  0  0  0  0  0  0  0  0
   -1.3663   -1.4764    0.4848 N   0  0  0  0  0  0  0  0  0  0  0  0
   -1.5266   -1.8367    1.8423 C   0  0  0  0  0  0  0  0  0  0  0  0
   -1.5057   -3.2398    2.3310 C   0  0  0  0  0  0  0  0  0  0  0  0
   -1.6967   -0.9243    2.6882 O   0  0  0  0  0  0  0  0  0  0  0  0
    4.2710    2.0532    0.1485 H   0  0  0  0  0  0  0  0  0  0  0  0
    3.2973    1.2531    1.3906 H   0  0  0  0  0  0  0  0  0  0  0  0
    4.9169    0.5754    0.8352 H   0  0  0  0  0  0  0  0  0  0  0  0
    4.0809   -0.3987   -0.9963 H   0  0  0  0  0  0  0  0  0  0  0  0
    3.2075    1.0209   -1.5271 H   0  0  0  0  0  0  0  0  0  0  0  0
    1.8003   -0.9181   -1.3890 H   0  0  0  0  0  0  0  0  0  0  0  0
    1.3286   -2.1976    0.6390 H   0  0  0  0  0  0  0  0  0  0  0  0
    3.0227   -2.3405    0.0936 H   0  0  0  0  0  0  0  0  0  0  0  0
    3.7321   -0.9683    2.0900 H   0  0  0  0  0  0  0  0  0  0  0  0
    2.5153   -2.1064    2.6363 H   0  0  0  0  0  0  0  0  0  0  0  0
    2.0368   -0.4461    2.3335 H   0  0  0  0  0  0  0  0  0  0  0  0
    0.0521   -0.3418   -1.6500 H   0  0  0  0  0  0  0  0  0  0  0  0
    0.6083    2.2370   -1.4382 H   0  0  0  0  0  0  0  0  0  0  0  0
   -2.8120    5.2869   -2.0118 H   0  0  0  0  0  0  0  0  0  0  0  0
   -3.5516    1.7924   -1.8418 H   0  0  0  0  0  0  0  0  0  0  0  0
   -3.1408    1.7863   -0.0654 H   0  0  0  0  0  0  0  0  0  0  0  0
   -2.0645   -0.2039   -2.0887 H   0  0  0  0  0  0  0  0  0  0  0  0
   -4.4825   -0.1207   -0.8320 H   0  0  0  0  0  0  0  0  0  0  0  0
   -3.7390   -1.4808   -1.5116 H   0  0  0  0  0  0  0  0  0  0  0  0
   -1.5363    0.6268    0.7800 H   0  0  0  0  0  0  0  0  0  0  0  0
   -1.2261   -2.2470   -0.2049 H   0  0  0  0  0  0  0  0  0  0  0  0
   -2.5549   -3.4997    2.5844 H   0  0  0  0  0  0  0  0  0  0  0  0
   -0.9415   -3.2611    3.2903 H   0  0  0  0  0  0  0  0  0  0  0  0
   -1.0879   -3.9387    1.5767 H   0  0  0  0  0  0  0  0  0  0  0  0
  1  2  1  0
  2  3  1  0
  3  4  1  0
  4  5  1  0
  3  6  1  0
  6  7  1  0
  7  8  1  0
  8  9  2  0
  9 10  1  0
 10 11  2  0
 10 12  1  0
  9 13  1  0
 13 14  1  0
 14 15  1  0
 14 16  1  0
 16 17  1  0
 17 18  1  0
 18 19  1  0
 18 20  2  0
 16  7  1  0
  1 21  1  0
  1 22  1  0
  1 23  1  0
  2 24  1  0
  2 25  1  0
  3 26  1  0
  4 27  1  0
  4 28  1  0
  5 29  1  0
  5 30  1  0
  5 31  1  0
  7 32  1  6
  8 33  1  0
 12 34  1  0
 13 35  1  0
 13 36  1  0
 14 37  1  6
 15 38  1  0
 15 39  1  0
 16 40  1  1
 17 41  1  0
 19 42  1  0
 19 43  1  0
 19 44  1  0
M  END
$$$$
