@<TRIPOS>MOLECULE
*****
 44 44 0 0 0
SMALL
GASTEIGER

@<TRIPOS>ATOM
      1 C           3.9273    1.0309    0.5292 C.3     1  UNL1       -0.0629
      2 C           3.2926    0.3410   -0.6206 C.3     1  UNL1       -0.0294
      3 C           2.0760   -0.4540   -0.3974 C.3     1  UNL1        0.0590
      4 C           2.2835   -1.5906    0.5400 C.3     1  UNL1       -0.0294
      5 C           2.6946   -1.2343    1.9232 C.3     1  UNL1       -0.0629
      6 O           0.9978    0.2818    0.0969 O.3     1  UNL1       -0.3675
      7 C          -0.1073    0.2605   -0.7343 C.3     1  UNL1        0.0976
      8 C          -0.3041    1.6572   -1.2107 C.2     1  UNL1       -0.0438
      9 C          -1.4836    2.2269   -1.3727 C.2     1  UNL1        0.0365
     10 C          -1.5352    3.6191   -1.8519 C.2     1  UNL1        0.3326
     11 O          -0.4566    4.2086   -2.0873 O.2     1  UNL1       -0.2455
     12 O          -2.7380    4.2740   -2.0426 O.3     1  UNL1       -0.4773
     13 C          -2.7742    1.5293   -1.0928 C.3     1  UNL1       -0.0041
     14 C          -2.4846    0.0461   -1.0747 C.3     1  UNL1        0.0304
     15 N          -3.6445   -0.7466   -0.7706 N.3     1  UNL1       -0.3254
     16 C          -1.3810   -0.1354   -0.0214 C.3     1  UNL1        0.0682
     17 N          -1.3663   -1.4764    0.4848 N.am    1  UNL1       -0.3084
     18 C          -1.5266   -1.8367    1.8423 C.2     1  UNL1        0.2103
     19 C          -1.5057   -3.2398    2.3310 C.3     1  UNL1        0.0122
     20 O          -1.6967   -0.9243    2.6882 O.2     1  UNL1       -0.2761
     21 H           4.2710    2.0532    0.1485 H       1  UNL1        0.0231
     22 H           3.2973    1.2531    1.3906 H       1  UNL1        0.0231
     23 H           4.9169    0.5754    0.8352 H       1  UNL1        0.0231
     24 H           4.0809   -0.3987   -0.9963 H       1  UNL1        0.0287
     25 H           3.2075    1.0209   -1.5271 H       1  UNL1        0.0287
     26 H           1.8003   -0.9181   -1.3890 H       1  UNL1        0.0596
     27 H           1.3286   -2.1976    0.6390 H       1  UNL1        0.0287
     28 H           3.0227   -2.3405    0.0936 H       1  UNL1        0.0287
     29 H           3.7321   -0.9683    2.0900 H       1  UNL1        0.0231
     30 H           2.5153   -2.1064    2.6363 H       1  UNL1        0.0231
     31 H           2.0368   -0.4461    2.3335 H       1  UNL1        0.0231
     32 H           0.0521   -0.3418   -1.6500 H       1  UNL1        0.0660
     33 H           0.6083    2.2370   -1.4382 H       1  UNL1        0.0603
     34 H          -2.8120    5.2869   -2.0118 H       1  UNL1        0.2954
     35 H          -3.5516    1.7924   -1.8418 H       1  UNL1        0.0331
     36 H          -3.1408    1.7863   -0.0654 H       1  UNL1        0.0331
     37 H          -2.0645   -0.2039   -2.0887 H       1  UNL1        0.0481
     38 H          -4.4825   -0.1207   -0.8320 H       1  UNL1        0.1185
     39 H          -3.7390   -1.4808   -1.5116 H       1  UNL1        0.1185
     40 H          -1.5363    0.6268    0.7800 H       1  UNL1        0.0542
     41 H          -1.2261   -2.2470   -0.2049 H       1  UNL1        0.1491
     42 H          -2.5549   -3.4997    2.5844 H       1  UNL1        0.0322
     43 H          -0.9415   -3.2611    3.2903 H       1  UNL1        0.0322
     44 H          -1.0879   -3.9387    1.5767 H       1  UNL1        0.0322
@<TRIPOS>BOND
     1     1     2    1
     2     2     3    1
     3     3     4    1
     4     4     5    1
     5     3     6    1
     6     6     7    1
     7     7     8    1
     8     8     9    2
     9     9    10    1
    10    10    11    2
    11    10    12    1
    12     9    13    1
    13    13    14    1
    14    14    15    1
    15    14    16    1
    16    16    17    1
    17    17    18   am
    18    18    19    1
    19    18    20    2
    20    16     7    1
    21     1    21    1
    22     1    22    1
    23     1    23    1
    24     2    24    1
    25     2    25    1
    26     3    26    1
    27     4    27    1
    28     4    28    1
    29     5    29    1
    30     5    30    1
    31     5    31    1
    32     7    32    1
    33     8    33    1
    34    12    34    1
    35    13    35    1
    36    13    36    1
    37    14    37    1
    38    15    38    1
    39    15    39    1
    40    16    40    1
    41    17    41    1
    42    19    42    1
    43    19    43    1
    44    19    44    1
