
     RDKit          3D

 58 62  0  0  0  0  0  0  0  0999 V2000
    6.7341   -1.5502    0.3859 C   0  0  0  0  0  0  0  0  0  0  0  0
    6.1367   -0.6542   -0.6365 C   0  0  0  0  0  0  0  0  0  0  0  0
    5.2433    0.3479   -0.0816 N   0  0  0  0  0  0  0  0  0  0  0  0
    5.6550    1.6346    0.3540 C   0  0  0  0  0  0  0  0  0  0  0  0
    6.8382    2.1182    0.3133 O   0  0  0  0  0  0  0  0  0  0  0  0
    4.4785    2.3640    0.8804 C   0  0  0  0  0  0  0  0  0  0  0  0
    3.3770    1.4308    0.6522 N   0  0  0  0  0  0  0  0  0  0  0  0
    3.8450    0.2802    0.1235 C   0  0  0  0  0  0  0  0  0  0  0  0
    2.9964   -0.7188   -0.1565 N   0  0  0  0  0  0  0  0  0  0  0  0
    1.6607   -0.6078    0.0753 C   0  0  0  0  0  0  0  0  0  0  0  0
    0.6247   -1.4348   -0.0760 N   0  0  0  0  0  0  0  0  0  0  0  0
   -0.5331   -0.8384    0.3416 C   0  0  0  0  0  0  0  0  0  0  0  0
   -1.7868   -1.4841    0.3183 N   0  0  0  0  0  0  0  0  0  0  0  0
   -2.3668   -2.1322    1.4734 C   0  0  0  0  0  0  0  0  0  0  0  0
   -3.5490   -2.9784    0.9643 C   0  0  0  0  0  0  0  0  0  0  0  0
   -3.1386   -3.8325   -0.1919 C   0  0  0  0  0  0  0  0  0  0  0  0
   -2.5924   -3.0143   -1.3045 C   0  0  1  0  0  0  0  0  0  0  0  0
   -3.3550   -3.1648   -2.5500 N   0  0  0  0  0  0  0  0  0  0  0  0
   -2.5396   -1.5513   -0.9082 C   0  0  0  0  0  0  0  0  0  0  0  0
   -0.1898    0.4153    0.7678 N   0  0  0  0  0  0  0  0  0  0  0  0
   -1.1121    1.3474    1.3644 C   0  0  0  0  0  0  0  0  0  0  0  0
   -2.1209    1.9567    0.4764 C   0  0  0  0  0  0  0  0  0  0  0  0
   -3.4036    1.3549    0.5497 C   0  0  0  0  0  0  0  0  0  0  0  0
   -4.4707    1.7580   -0.1985 C   0  0  0  0  0  0  0  0  0  0  0  0
   -5.6900    1.1260   -0.0776 F   0  0  0  0  0  0  0  0  0  0  0  0
   -4.3290    2.8007   -1.0805 C   0  0  0  0  0  0  0  0  0  0  0  0
   -3.0985    3.3844   -1.1548 C   0  0  0  0  0  0  0  0  0  0  0  0
   -2.0002    2.9812   -0.3942 C   0  0  0  0  0  0  0  0  0  0  0  0
   -0.7429    3.7260   -0.5668 C   0  0  0  0  0  0  0  0  0  0  0  0
   -0.9756    4.7305   -1.5444 F   0  0  0  0  0  0  0  0  0  0  0  0
    0.1557    2.9100   -1.1607 F   0  0  0  0  0  0  0  0  0  0  0  0
   -0.3631    4.4276    0.5276 F   0  0  0  0  0  0  0  0  0  0  0  0
    1.1444    0.5666    0.6157 C   0  0  0  0  0  0  0  0  0  0  0  0
    2.0642    1.5754    0.8946 C   0  0  0  0  0  0  0  0  0  0  0  0
    1.6717    2.6438    1.3884 O   0  0  0  0  0  0  0  0  0  0  0  0
    6.5100   -1.1672    1.4117 H   0  0  0  0  0  0  0  0  0  0  0  0
    6.3963   -2.5880    0.2548 H   0  0  0  0  0  0  0  0  0  0  0  0
    7.8400   -1.5665    0.2335 H   0  0  0  0  0  0  0  0  0  0  0  0
    6.9308   -0.1276   -1.1971 H   0  0  0  0  0  0  0  0  0  0  0  0
    5.5910   -1.2636   -1.4173 H   0  0  0  0  0  0  0  0  0  0  0  0
    4.5418    2.4806    1.9953 H   0  0  0  0  0  0  0  0  0  0  0  0
    4.2954    3.3105    0.3677 H   0  0  0  0  0  0  0  0  0  0  0  0
   -2.7723   -1.4566    2.2325 H   0  0  0  0  0  0  0  0  0  0  0  0
   -1.6598   -2.8735    1.9227 H   0  0  0  0  0  0  0  0  0  0  0  0
   -3.8551   -3.6686    1.7995 H   0  0  0  0  0  0  0  0  0  0  0  0
   -4.4282   -2.3742    0.7331 H   0  0  0  0  0  0  0  0  0  0  0  0
   -2.4206   -4.6454    0.1253 H   0  0  0  0  0  0  0  0  0  0  0  0
   -4.0321   -4.4169   -0.5529 H   0  0  0  0  0  0  0  0  0  0  0  0
   -1.5476   -3.3359   -1.4846 H   0  0  0  0  0  0  0  0  0  0  0  0
   -3.2542   -4.1806   -2.8353 H   0  0  0  0  0  0  0  0  0  0  0  0
   -2.8197   -2.6508   -3.3078 H   0  0  0  0  0  0  0  0  0  0  0  0
   -3.5662   -1.2113   -0.7009 H   0  0  0  0  0  0  0  0  0  0  0  0
   -2.0705   -1.0175   -1.7566 H   0  0  0  0  0  0  0  0  0  0  0  0
   -0.5478    2.1549    1.9245 H   0  0  0  0  0  0  0  0  0  0  0  0
   -1.6389    0.8129    2.1796 H   0  0  0  0  0  0  0  0  0  0  0  0
   -3.5826    0.5337    1.2199 H   0  0  0  0  0  0  0  0  0  0  0  0
   -5.1755    3.1093   -1.6644 H   0  0  0  0  0  0  0  0  0  0  0  0
   -3.0025    4.2234   -1.8675 H   0  0  0  0  0  0  0  0  0  0  0  0
  1  2  1  0
  2  3  1  0
  3  4  1  0
  4  5  2  0
  4  6  1  0
  6  7  1  0
  7  8  1  0
  8  9  2  0
  9 10  1  0
 10 11  1  0
 11 12  2  0
 12 13  1  0
 13 14  1  0
 14 15  1  0
 15 16  1  0
 16 17  1  0
 17 18  1  0
 17 19  1  0
 12 20  1  0
 20 21  1  0
 21 22  1  0
 22 23  2  0
 23 24  1  0
 24 25  1  0
 24 26  2  0
 26 27  1  0
 27 28  2  0
 28 29  1  0
 29 30  1  0
 29 31  1  0
 29 32  1  0
 20 33  1  0
 33 34  1  0
 34 35  2  0
  8  3  1  0
 33 10  2  0
 34  7  1  0
 19 13  1  0
 28 22  1  0
  1 36  1  0
  1 37  1  0
  1 38  1  0
  2 39  1  0
  2 40  1  0
  6 41  1  0
  6 42  1  0
 14 43  1  0
 14 44  1  0
 15 45  1  0
 15 46  1  0
 16 47  1  0
 16 48  1  0
 17 49  1  6
 18 50  1  0
 18 51  1  0
 19 52  1  0
 19 53  1  0
 21 54  1  0
 21 55  1  0
 23 56  1  0
 26 57  1  0
 27 58  1  0
M  END
$$$$
