@<TRIPOS>MOLECULE
*****
 58 62 0 0 0
SMALL
GASTEIGER

@<TRIPOS>ATOM
      1 C           6.7341   -1.5502    0.3859 C.3     1  UNL1       -0.0488
      2 C           6.1367   -0.6542   -0.6365 C.3     1  UNL1        0.0197
      3 N           5.2433    0.3479   -0.0816 N.am    1  UNL1       -0.2403
      4 C           5.6550    1.6346    0.3540 C.2     1  UNL1        0.2419
      5 O           6.8382    2.1182    0.3133 O.2     1  UNL1       -0.2732
      6 C           4.4785    2.3640    0.8804 C.3     1  UNL1        0.1061
      7 N           3.3770    1.4308    0.6522 N.ar    1  UNL1       -0.2698
      8 C           3.8450    0.2802    0.1235 C.ar    1  UNL1        0.2098
      9 N           2.9964   -0.7188   -0.1565 N.ar    1  UNL1       -0.1938
     10 C           1.6607   -0.6078    0.0753 C.ar    1  UNL1        0.1883
     11 N           0.6247   -1.4348   -0.0760 N.ar    1  UNL1       -0.1942
     12 C          -0.5331   -0.8384    0.3416 C.ar    1  UNL1        0.2011
     13 N          -1.7868   -1.4841    0.3183 N.pl3   1  UNL1       -0.2994
     14 C          -2.3668   -2.1322    1.4734 C.3     1  UNL1        0.0149
     15 C          -3.5490   -2.9784    0.9643 C.3     1  UNL1       -0.0357
     16 C          -3.1386   -3.8325   -0.1919 C.3     1  UNL1       -0.0349
     17 C          -2.5924   -3.0143   -1.3045 C.3     1  UNL1        0.0208
     18 N          -3.3550   -3.1648   -2.5500 N.3     1  UNL1       -0.3259
     19 C          -2.5396   -1.5513   -0.9082 C.3     1  UNL1        0.0300
     20 N          -0.1898    0.4153    0.7678 N.ar    1  UNL1       -0.3017
     21 C          -1.1121    1.3474    1.3644 C.3     1  UNL1        0.0523
     22 C          -2.1209    1.9567    0.4764 C.ar    1  UNL1       -0.0133
     23 C          -3.4036    1.3549    0.5497 C.ar    1  UNL1       -0.0210
     24 C          -4.4707    1.7580   -0.1985 C.ar    1  UNL1        0.1237
     25 F          -5.6900    1.1260   -0.0776 F       1  UNL1       -0.2055
     26 C          -4.3290    2.8007   -1.0805 C.ar    1  UNL1       -0.0259
     27 C          -3.0985    3.3844   -1.1548 C.ar    1  UNL1       -0.0471
     28 C          -2.0002    2.9812   -0.3942 C.ar    1  UNL1        0.0598
     29 C          -0.7429    3.7260   -0.5668 C.3     1  UNL1        0.4177
     30 F          -0.9756    4.7305   -1.5444 F       1  UNL1       -0.1659
     31 F           0.1557    2.9100   -1.1607 F       1  UNL1       -0.1659
     32 F          -0.3631    4.4276    0.5276 F       1  UNL1       -0.1659
     33 C           1.1444    0.5666    0.6157 C.ar    1  UNL1        0.1548
     34 C           2.0642    1.5754    0.8946 C.ar    1  UNL1        0.2816
     35 O           1.6717    2.6438    1.3884 O.2     1  UNL1       -0.2652
     36 H           6.5100   -1.1672    1.4117 H       1  UNL1        0.0245
     37 H           6.3963   -2.5880    0.2548 H       1  UNL1        0.0245
     38 H           7.8400   -1.5665    0.2335 H       1  UNL1        0.0245
     39 H           6.9308   -0.1276   -1.1971 H       1  UNL1        0.0467
     40 H           5.5910   -1.2636   -1.4173 H       1  UNL1        0.0467
     41 H           4.5418    2.4806    1.9953 H       1  UNL1        0.0590
     42 H           4.2954    3.3105    0.3677 H       1  UNL1        0.0590
     43 H          -2.7723   -1.4566    2.2325 H       1  UNL1        0.0464
     44 H          -1.6598   -2.8735    1.9227 H       1  UNL1        0.0464
     45 H          -3.8551   -3.6686    1.7995 H       1  UNL1        0.0281
     46 H          -4.4282   -2.3742    0.7331 H       1  UNL1        0.0281
     47 H          -2.4206   -4.6454    0.1253 H       1  UNL1        0.0281
     48 H          -4.0321   -4.4169   -0.5529 H       1  UNL1        0.0281
     49 H          -1.5476   -3.3359   -1.4846 H       1  UNL1        0.0474
     50 H          -3.2542   -4.1806   -2.8353 H       1  UNL1        0.1185
     51 H          -2.8197   -2.6508   -3.3078 H       1  UNL1        0.1185
     52 H          -3.5662   -1.2113   -0.7009 H       1  UNL1        0.0480
     53 H          -2.0705   -1.0175   -1.7566 H       1  UNL1        0.0480
     54 H          -0.5478    2.1549    1.9245 H       1  UNL1        0.0542
     55 H          -1.6389    0.8129    2.1796 H       1  UNL1        0.0542
     56 H          -3.5826    0.5337    1.2199 H       1  UNL1        0.0650
     57 H          -5.1755    3.1093   -1.6644 H       1  UNL1        0.0646
     58 H          -3.0025    4.2234   -1.8675 H       1  UNL1        0.0624
@<TRIPOS>BOND
     1     1     2    1
     2     2     3    1
     3     3     4   am
     4     4     5    2
     5     4     6    1
     6     6     7    1
     7     7     8   ar
     8     8     9   ar
     9     9    10   ar
    10    10    11   ar
    11    11    12   ar
    12    12    13    1
    13    13    14    1
    14    14    15    1
    15    15    16    1
    16    16    17    1
    17    17    18    1
    18    17    19    1
    19    12    20   ar
    20    20    21    1
    21    21    22    1
    22    22    23   ar
    23    23    24   ar
    24    24    25    1
    25    24    26   ar
    26    26    27   ar
    27    27    28   ar
    28    28    29    1
    29    29    30    1
    30    29    31    1
    31    29    32    1
    32    20    33   ar
    33    33    34   ar
    34    34    35    2
    35     8     3    1
    36    33    10   ar
    37    34     7   ar
    38    19    13    1
    39    28    22   ar
    40     1    36    1
    41     1    37    1
    42     1    38    1
    43     2    39    1
    44     2    40    1
    45     6    41    1
    46     6    42    1
    47    14    43    1
    48    14    44    1
    49    15    45    1
    50    15    46    1
    51    16    47    1
    52    16    48    1
    53    17    49    1
    54    18    50    1
    55    18    51    1
    56    19    52    1
    57    19    53    1
    58    21    54    1
    59    21    55    1
    60    23    56    1
    61    26    57    1
    62    27    58    1
