
     RDKit          3D

 59 63  0  0  0  0  0  0  0  0999 V2000
    5.9018    3.7555   -0.6667 C   0  0  0  0  0  0  0  0  0  0  0  0
    5.4617    2.5301    0.0536 C   0  0  0  0  0  0  0  0  0  0  0  0
    4.4713    1.6571   -0.3074 C   0  0  0  0  0  0  0  0  0  0  0  0
    4.4070    0.6689    0.6484 C   0  0  0  0  0  0  0  0  0  0  0  0
    3.5096   -0.4692    0.6865 C   0  0  0  0  0  0  0  0  0  0  0  0
    3.5705   -1.2952    1.6323 O   0  0  0  0  0  0  0  0  0  0  0  0
    2.5551   -0.6533   -0.3508 N   0  0  0  0  0  0  0  0  0  0  0  0
    1.6260   -1.7634   -0.3830 C   0  0  2  0  0  0  0  0  0  0  0  0
    1.8080   -2.6499   -1.5820 C   0  0  0  0  0  0  0  0  0  0  0  0
    0.7420   -3.6973   -1.5744 C   0  0  0  0  0  0  0  0  0  0  0  0
    0.5973   -4.3576   -0.2089 C   0  0  0  0  0  0  0  0  0  0  0  0
    0.9781   -4.7821   -2.5974 C   0  0  0  0  0  0  0  0  0  0  0  0
   -0.5011   -3.0424   -1.8278 O   0  0  0  0  0  0  0  0  0  0  0  0
   -0.8002   -1.9223   -1.0368 C   0  0  0  0  0  0  0  0  0  0  0  0
   -2.0497   -1.4403   -0.9424 N   0  0  0  0  0  0  0  0  0  0  0  0
   -2.3949   -0.3716   -0.2008 C   0  0  0  0  0  0  0  0  0  0  0  0
   -3.7794    0.0826   -0.1581 C   0  0  0  0  0  0  0  0  0  0  0  0
   -4.5259    0.0926    1.0000 C   0  0  0  0  0  0  0  0  0  0  0  0
   -5.8342    0.5296    1.0037 C   0  0  0  0  0  0  0  0  0  0  0  0
   -6.4532    0.9751   -0.1475 C   0  0  0  0  0  0  0  0  0  0  0  0
   -8.1231    1.5325   -0.1411 Cl  0  0  0  0  0  0  0  0  0  0  0  0
   -5.6998    0.9620   -1.3023 C   0  0  0  0  0  0  0  0  0  0  0  0
   -4.3902    0.5260   -1.3130 C   0  0  0  0  0  0  0  0  0  0  0  0
   -3.4683    0.5285   -2.8156 Cl  0  0  0  0  0  0  0  0  0  0  0  0
   -1.3913    0.2687    0.5092 C   0  0  0  0  0  0  0  0  0  0  0  0
   -1.7085    1.4291    1.3272 C   0  0  0  0  0  0  0  0  0  0  0  0
   -2.2050    2.5889    0.7644 C   0  0  0  0  0  0  0  0  0  0  0  0
   -2.5050    3.6882    1.5410 C   0  0  0  0  0  0  0  0  0  0  0  0
   -2.3224    3.6783    2.9154 C   0  0  0  0  0  0  0  0  0  0  0  0
   -2.7084    5.0872    3.8972 Cl  0  0  0  0  0  0  0  0  0  0  0  0
   -1.8272    2.5194    3.4716 C   0  0  0  0  0  0  0  0  0  0  0  0
   -1.5269    1.4200    2.6970 C   0  0  0  0  0  0  0  0  0  0  0  0
   -0.0849   -0.2030    0.4350 C   0  0  0  0  0  0  0  0  0  0  0  0
    0.2199   -1.3030   -0.3394 C   0  0  0  0  0  0  0  0  0  0  0  0
    5.3520    0.9632    1.5590 N   0  0  0  0  0  0  0  0  0  0  0  0
    5.9833    2.0714    1.2090 N   0  0  0  0  0  0  0  0  0  0  0  0
    7.0101    3.8585   -0.5599 H   0  0  0  0  0  0  0  0  0  0  0  0
    5.6442    3.7272   -1.7411 H   0  0  0  0  0  0  0  0  0  0  0  0
    5.4532    4.6733   -0.2460 H   0  0  0  0  0  0  0  0  0  0  0  0
    3.8474    1.7147   -1.1733 H   0  0  0  0  0  0  0  0  0  0  0  0
    2.5455    0.0648   -1.1171 H   0  0  0  0  0  0  0  0  0  0  0  0
    1.8347   -2.3771    0.5295 H   0  0  0  0  0  0  0  0  0  0  0  0
    1.6452   -2.0188   -2.4961 H   0  0  0  0  0  0  0  0  0  0  0  0
    2.8301   -3.0429   -1.6612 H   0  0  0  0  0  0  0  0  0  0  0  0
    1.5725   -4.5849    0.2241 H   0  0  0  0  0  0  0  0  0  0  0  0
   -0.0101   -3.6832    0.4571 H   0  0  0  0  0  0  0  0  0  0  0  0
   -0.0288   -5.2678   -0.3389 H   0  0  0  0  0  0  0  0  0  0  0  0
    0.0669   -5.3215   -2.8506 H   0  0  0  0  0  0  0  0  0  0  0  0
    1.4743   -4.3071   -3.4679 H   0  0  0  0  0  0  0  0  0  0  0  0
    1.6927   -5.5092   -2.1551 H   0  0  0  0  0  0  0  0  0  0  0  0
   -4.0242   -0.2628    1.9060 H   0  0  0  0  0  0  0  0  0  0  0  0
   -6.3979    0.5274    1.9267 H   0  0  0  0  0  0  0  0  0  0  0  0
   -6.1711    1.3123   -2.2323 H   0  0  0  0  0  0  0  0  0  0  0  0
   -2.3532    2.6052   -0.3273 H   0  0  0  0  0  0  0  0  0  0  0  0
   -2.8925    4.5811    1.0667 H   0  0  0  0  0  0  0  0  0  0  0  0
   -1.6781    2.4936    4.5459 H   0  0  0  0  0  0  0  0  0  0  0  0
   -1.1339    0.4998    3.1373 H   0  0  0  0  0  0  0  0  0  0  0  0
    0.6531    0.3313    1.0057 H   0  0  0  0  0  0  0  0  0  0  0  0
    5.5359    0.3820    2.4075 H   0  0  0  0  0  0  0  0  0  0  0  0
  1  2  1  0
  2  3  1  0
  3  4  2  0
  4  5  1  0
  5  6  2  0
  5  7  1  0
  7  8  1  0
  8  9  1  0
  9 10  1  0
 10 11  1  0
 10 12  1  0
 10 13  1  0
 13 14  1  0
 14 15  2  0
 15 16  1  0
 16 17  1  0
 17 18  2  0
 18 19  1  0
 19 20  2  0
 20 21  1  0
 20 22  1  0
 22 23  2  0
 23 24  1  0
 16 25  2  0
 25 26  1  0
 26 27  2  0
 27 28  1  0
 28 29  2  0
 29 30  1  0
 29 31  1  0
 31 32  2  0
 25 33  1  0
 33 34  2  0
  4 35  1  0
 35 36  1  0
 36  2  2  0
 34  8  1  0
 34 14  1  0
 23 17  1  0
 32 26  1  0
  1 37  1  0
  1 38  1  0
  1 39  1  0
  3 40  1  0
  7 41  1  0
  8 42  1  1
  9 43  1  0
  9 44  1  0
 11 45  1  0
 11 46  1  0
 11 47  1  0
 12 48  1  0
 12 49  1  0
 12 50  1  0
 18 51  1  0
 19 52  1  0
 22 53  1  0
 27 54  1  0
 28 55  1  0
 31 56  1  0
 32 57  1  0
 33 58  1  0
 35 59  1  0
M  END
$$$$
