@<TRIPOS>MOLECULE
*****
 59 63 0 0 0
SMALL
GASTEIGER

@<TRIPOS>ATOM
      1 C           5.9018    3.7555   -0.6667 C.3     1  UNL1       -0.0206
      2 C           5.4617    2.5301    0.0536 C.ar    1  UNL1        0.0605
      3 C           4.4713    1.6571   -0.3074 C.ar    1  UNL1       -0.0091
      4 C           4.4070    0.6689    0.6484 C.ar    1  UNL1        0.1204
      5 C           3.5096   -0.4692    0.6865 C.2     1  UNL1        0.2623
      6 O           3.5705   -1.2952    1.6323 O.2     1  UNL1       -0.2685
      7 N           2.5551   -0.6533   -0.3508 N.am    1  UNL1       -0.3030
      8 C           1.6260   -1.7634   -0.3830 C.3     1  UNL1        0.0573
      9 C           1.8080   -2.6499   -1.5820 C.3     1  UNL1        0.0094
     10 C           0.7420   -3.6973   -1.5744 C.3     1  UNL1        0.1087
     11 C           0.5973   -4.3576   -0.2089 C.3     1  UNL1       -0.0251
     12 C           0.9781   -4.7821   -2.5974 C.3     1  UNL1       -0.0251
     13 O          -0.5011   -3.0424   -1.8278 O.3     1  UNL1       -0.4700
     14 C          -0.8002   -1.9223   -1.0368 C.ar    1  UNL1        0.2209
     15 N          -2.0497   -1.4403   -0.9424 N.ar    1  UNL1       -0.2119
     16 C          -2.3949   -0.3716   -0.2008 C.ar    1  UNL1        0.0839
     17 C          -3.7794    0.0826   -0.1581 C.ar    1  UNL1        0.0195
     18 C          -4.5259    0.0926    1.0000 C.ar    1  UNL1       -0.0498
     19 C          -5.8342    0.5296    1.0037 C.ar    1  UNL1       -0.0427
     20 C          -6.4532    0.9751   -0.1475 C.ar    1  UNL1        0.0424
     21 CL         -8.1231    1.5325   -0.1411 Cl      1  UNL1       -0.0835
     22 C          -5.6998    0.9620   -1.3023 C.ar    1  UNL1       -0.0244
     23 C          -4.3902    0.5260   -1.3130 C.ar    1  UNL1        0.0515
     24 CL         -3.4683    0.5285   -2.8156 Cl      1  UNL1       -0.0828
     25 C          -1.3913    0.2687    0.5092 C.ar    1  UNL1        0.0087
     26 C          -1.7085    1.4291    1.3272 C.ar    1  UNL1       -0.0157
     27 C          -2.2050    2.5889    0.7644 C.ar    1  UNL1       -0.0526
     28 C          -2.5050    3.6882    1.5410 C.ar    1  UNL1       -0.0428
     29 C          -2.3224    3.6783    2.9154 C.ar    1  UNL1        0.0410
     30 CL         -2.7084    5.0872    3.8972 Cl      1  UNL1       -0.0835
     31 C          -1.8272    2.5194    3.4716 C.ar    1  UNL1       -0.0428
     32 C          -1.5269    1.4200    2.6970 C.ar    1  UNL1       -0.0526
     33 C          -0.0849   -0.2030    0.4350 C.ar    1  UNL1       -0.0420
     34 C           0.2199   -1.3030   -0.3394 C.ar    1  UNL1        0.0350
     35 N           5.3520    0.9632    1.5590 N.ar    1  UNL1       -0.2723
     36 N           5.9833    2.0714    1.2090 N.ar    1  UNL1       -0.1785
     37 H           7.0101    3.8585   -0.5599 H       1  UNL1        0.0293
     38 H           5.6442    3.7272   -1.7411 H       1  UNL1        0.0293
     39 H           5.4532    4.6733   -0.2460 H       1  UNL1        0.0293
     40 H           3.8474    1.7147   -1.1733 H       1  UNL1        0.0659
     41 H           2.5455    0.0648   -1.1171 H       1  UNL1        0.1497
     42 H           1.8347   -2.3771    0.5295 H       1  UNL1        0.0551
     43 H           1.6452   -2.0188   -2.4961 H       1  UNL1        0.0325
     44 H           2.8301   -3.0429   -1.6612 H       1  UNL1        0.0325
     45 H           1.5725   -4.5849    0.2241 H       1  UNL1        0.0268
     46 H          -0.0101   -3.6832    0.4571 H       1  UNL1        0.0268
     47 H          -0.0288   -5.2678   -0.3389 H       1  UNL1        0.0268
     48 H           0.0669   -5.3215   -2.8506 H       1  UNL1        0.0268
     49 H           1.4743   -4.3071   -3.4679 H       1  UNL1        0.0268
     50 H           1.6927   -5.5092   -2.1551 H       1  UNL1        0.0268
     51 H          -4.0242   -0.2628    1.9060 H       1  UNL1        0.0625
     52 H          -6.3979    0.5274    1.9267 H       1  UNL1        0.0632
     53 H          -6.1711    1.3123   -2.2323 H       1  UNL1        0.0647
     54 H          -2.3532    2.6052   -0.3273 H       1  UNL1        0.0624
     55 H          -2.8925    4.5811    1.0667 H       1  UNL1        0.0632
     56 H          -1.6781    2.4936    4.5459 H       1  UNL1        0.0632
     57 H          -1.1339    0.4998    3.1373 H       1  UNL1        0.0624
     58 H           0.6531    0.3313    1.0057 H       1  UNL1        0.0629
     59 H           5.5359    0.3820    2.4075 H       1  UNL1        0.1891
@<TRIPOS>BOND
     1     1     2    1
     2     2     3   ar
     3     3     4   ar
     4     4     5    1
     5     5     6    2
     6     5     7   am
     7     7     8    1
     8     8     9    1
     9     9    10    1
    10    10    11    1
    11    10    12    1
    12    10    13    1
    13    13    14    1
    14    14    15   ar
    15    15    16   ar
    16    16    17    1
    17    17    18   ar
    18    18    19   ar
    19    19    20   ar
    20    20    21    1
    21    20    22   ar
    22    22    23   ar
    23    23    24    1
    24    16    25   ar
    25    25    26    1
    26    26    27   ar
    27    27    28   ar
    28    28    29   ar
    29    29    30    1
    30    29    31   ar
    31    31    32   ar
    32    25    33   ar
    33    33    34   ar
    34     4    35   ar
    35    35    36   ar
    36    36     2   ar
    37    34     8    1
    38    34    14   ar
    39    23    17   ar
    40    32    26   ar
    41     1    37    1
    42     1    38    1
    43     1    39    1
    44     3    40    1
    45     7    41    1
    46     8    42    1
    47     9    43    1
    48     9    44    1
    49    11    45    1
    50    11    46    1
    51    11    47    1
    52    12    48    1
    53    12    49    1
    54    12    50    1
    55    18    51    1
    56    19    52    1
    57    22    53    1
    58    27    54    1
    59    28    55    1
    60    31    56    1
    61    32    57    1
    62    33    58    1
    63    35    59    1
