@<TRIPOS>MOLECULE
*****
 45 46 0 0 0
SMALL
GASTEIGER

@<TRIPOS>ATOM
      1 C          -4.0686    2.1398    1.7807 C.3     1  UNL1       -0.0424
      2 C          -3.5822    1.3339    0.6030 C.3     1  UNL1        0.0458
      3 N          -2.2858    0.7341    0.8537 N.am    1  UNL1       -0.3048
      4 C          -1.1205    1.0435    0.1124 C.2     1  UNL1        0.2445
      5 O          -1.2394    1.8842   -0.8057 O.2     1  UNL1       -0.2702
      6 C           0.1836    0.4409    0.3637 C.ar    1  UNL1        0.0369
      7 C           0.4120   -0.4917    1.3500 C.ar    1  UNL1       -0.0462
      8 C           1.6550   -1.0502    1.5712 C.ar    1  UNL1       -0.0192
      9 C           2.7492   -0.6812    0.7853 C.ar    1  UNL1        0.1211
     10 O           3.9279   -1.2575    1.0499 O.3     1  UNL1       -0.4851
     11 C           5.2070   -1.1670    0.5041 C.3     1  UNL1        0.1403
     12 C           5.1828   -1.5936   -0.9013 C.2     1  UNL1        0.1351
     13 F           4.7492   -2.9156   -1.1543 F       1  UNL1       -0.2069
     14 C           5.5299   -0.8402   -1.8978 C.2     1  UNL1       -0.0360
     15 C           6.0013    0.5182   -1.9267 C.3     1  UNL1        0.0143
     16 N           6.1526    1.2658   -0.7435 N.3     1  UNL1       -0.3265
     17 C           2.5474    0.2432   -0.2001 C.ar    1  UNL1       -0.0192
     18 C           1.2721    0.7936   -0.4015 C.ar    1  UNL1       -0.0462
     19 C          -4.5839    0.3276    0.1861 C.ar    1  UNL1       -0.0275
     20 C          -5.4203    0.5970   -0.8741 C.ar    1  UNL1       -0.0568
     21 C          -6.3817   -0.2918   -1.3237 C.ar    1  UNL1       -0.0614
     22 C          -6.5077   -1.5164   -0.6714 C.ar    1  UNL1       -0.0617
     23 C          -5.6706   -1.7875    0.3906 C.ar    1  UNL1       -0.0614
     24 C          -4.7268   -0.8989    0.8216 C.ar    1  UNL1       -0.0568
     25 H          -3.6001    3.1374    1.7250 H       1  UNL1        0.0251
     26 H          -5.1606    2.2856    1.6413 H       1  UNL1        0.0251
     27 H          -3.8911    1.6234    2.7464 H       1  UNL1        0.0251
     28 H          -3.4362    2.0344   -0.2438 H       1  UNL1        0.0545
     29 H          -2.2287    0.0385    1.6271 H       1  UNL1        0.1496
     30 H          -0.4204   -0.8096    1.9902 H       1  UNL1        0.0626
     31 H           1.8402   -1.7813    2.3423 H       1  UNL1        0.0654
     32 H           5.5937   -0.1805    0.7234 H       1  UNL1        0.0771
     33 H           5.8173   -1.9361    1.1137 H       1  UNL1        0.0771
     34 H           5.4427   -1.3471   -2.9013 H       1  UNL1        0.0611
     35 H           5.3078    1.1457   -2.5966 H       1  UNL1        0.0466
     36 H           6.9942    0.6212   -2.4919 H       1  UNL1        0.0466
     37 H           5.6623    2.1670   -0.6924 H       1  UNL1        0.1185
     38 H           7.1254    1.2690   -0.4228 H       1  UNL1        0.1185
     39 H           3.3402    0.5876   -0.8450 H       1  UNL1        0.0654
     40 H           1.1054    1.5343   -1.1897 H       1  UNL1        0.0626
     41 H          -5.3497    1.5348   -1.4012 H       1  UNL1        0.0621
     42 H          -7.0396   -0.0926   -2.1495 H       1  UNL1        0.0618
     43 H          -7.2354   -2.2251   -0.9887 H       1  UNL1        0.0618
     44 H          -5.7867   -2.7592    0.8911 H       1  UNL1        0.0618
     45 H          -4.0632   -1.0932    1.6504 H       1  UNL1        0.0621
@<TRIPOS>BOND
     1     1     2    1
     2     2     3    1
     3     3     4   am
     4     4     5    2
     5     4     6    1
     6     6     7   ar
     7     7     8   ar
     8     8     9   ar
     9     9    10    1
    10    10    11    1
    11    11    12    1
    12    12    13    1
    13    12    14    2
    14    14    15    1
    15    15    16    1
    16     9    17   ar
    17    17    18   ar
    18     2    19    1
    19    19    20   ar
    20    20    21   ar
    21    21    22   ar
    22    22    23   ar
    23    23    24   ar
    24    18     6   ar
    25    24    19   ar
    26     1    25    1
    27     1    26    1
    28     1    27    1
    29     2    28    1
    30     3    29    1
    31     7    30    1
    32     8    31    1
    33    11    32    1
    34    11    33    1
    35    14    34    1
    36    15    35    1
    37    15    36    1
    38    16    37    1
    39    16    38    1
    40    17    39    1
    41    18    40    1
    42    20    41    1
    43    21    42    1
    44    22    43    1
    45    23    44    1
    46    24    45    1
