
     RDKit          3D

 45 46  0  0  0  0  0  0  0  0999 V2000
   -4.0686    2.1398    1.7807 C   0  0  0  0  0  0  0  0  0  0  0  0
   -3.5822    1.3339    0.6030 C   0  0  1  0  0  0  0  0  0  0  0  0
   -2.2858    0.7341    0.8537 N   0  0  0  0  0  0  0  0  0  0  0  0
   -1.1205    1.0435    0.1124 C   0  0  0  0  0  0  0  0  0  0  0  0
   -1.2394    1.8842   -0.8057 O   0  0  0  0  0  0  0  0  0  0  0  0
    0.1836    0.4409    0.3637 C   0  0  0  0  0  0  0  0  0  0  0  0
    0.4120   -0.4917    1.3500 C   0  0  0  0  0  0  0  0  0  0  0  0
    1.6550   -1.0502    1.5712 C   0  0  0  0  0  0  0  0  0  0  0  0
    2.7492   -0.6812    0.7853 C   0  0  0  0  0  0  0  0  0  0  0  0
    3.9279   -1.2575    1.0499 O   0  0  0  0  0  0  0  0  0  0  0  0
    5.2070   -1.1670    0.5041 C   0  0  0  0  0  0  0  0  0  0  0  0
    5.1828   -1.5936   -0.9013 C   0  0  0  0  0  0  0  0  0  0  0  0
    4.7492   -2.9156   -1.1543 F   0  0  0  0  0  0  0  0  0  0  0  0
    5.5299   -0.8402   -1.8978 C   0  0  0  0  0  0  0  0  0  0  0  0
    6.0013    0.5182   -1.9267 C   0  0  0  0  0  0  0  0  0  0  0  0
    6.1526    1.2658   -0.7435 N   0  0  0  0  0  0  0  0  0  0  0  0
    2.5474    0.2432   -0.2001 C   0  0  0  0  0  0  0  0  0  0  0  0
    1.2721    0.7936   -0.4015 C   0  0  0  0  0  0  0  0  0  0  0  0
   -4.5839    0.3276    0.1861 C   0  0  0  0  0  0  0  0  0  0  0  0
   -5.4203    0.5970   -0.8741 C   0  0  0  0  0  0  0  0  0  0  0  0
   -6.3817   -0.2918   -1.3237 C   0  0  0  0  0  0  0  0  0  0  0  0
   -6.5077   -1.5164   -0.6714 C   0  0  0  0  0  0  0  0  0  0  0  0
   -5.6706   -1.7875    0.3906 C   0  0  0  0  0  0  0  0  0  0  0  0
   -4.7268   -0.8989    0.8216 C   0  0  0  0  0  0  0  0  0  0  0  0
   -3.6001    3.1374    1.7250 H   0  0  0  0  0  0  0  0  0  0  0  0
   -5.1606    2.2856    1.6413 H   0  0  0  0  0  0  0  0  0  0  0  0
   -3.8911    1.6234    2.7464 H   0  0  0  0  0  0  0  0  0  0  0  0
   -3.4362    2.0344   -0.2438 H   0  0  0  0  0  0  0  0  0  0  0  0
   -2.2287    0.0385    1.6271 H   0  0  0  0  0  0  0  0  0  0  0  0
   -0.4204   -0.8096    1.9902 H   0  0  0  0  0  0  0  0  0  0  0  0
    1.8402   -1.7813    2.3423 H   0  0  0  0  0  0  0  0  0  0  0  0
    5.5937   -0.1805    0.7234 H   0  0  0  0  0  0  0  0  0  0  0  0
    5.8173   -1.9361    1.1137 H   0  0  0  0  0  0  0  0  0  0  0  0
    5.4427   -1.3471   -2.9013 H   0  0  0  0  0  0  0  0  0  0  0  0
    5.3078    1.1457   -2.5966 H   0  0  0  0  0  0  0  0  0  0  0  0
    6.9942    0.6212   -2.4919 H   0  0  0  0  0  0  0  0  0  0  0  0
    5.6623    2.1670   -0.6924 H   0  0  0  0  0  0  0  0  0  0  0  0
    7.1254    1.2690   -0.4228 H   0  0  0  0  0  0  0  0  0  0  0  0
    3.3402    0.5876   -0.8450 H   0  0  0  0  0  0  0  0  0  0  0  0
    1.1054    1.5343   -1.1897 H   0  0  0  0  0  0  0  0  0  0  0  0
   -5.3497    1.5348   -1.4012 H   0  0  0  0  0  0  0  0  0  0  0  0
   -7.0396   -0.0926   -2.1495 H   0  0  0  0  0  0  0  0  0  0  0  0
   -7.2354   -2.2251   -0.9887 H   0  0  0  0  0  0  0  0  0  0  0  0
   -5.7867   -2.7592    0.8911 H   0  0  0  0  0  0  0  0  0  0  0  0
   -4.0632   -1.0932    1.6504 H   0  0  0  0  0  0  0  0  0  0  0  0
  1  2  1  0
  2  3  1  0
  3  4  1  0
  4  5  2  0
  4  6  1  0
  6  7  2  0
  7  8  1  0
  8  9  2  0
  9 10  1  0
 10 11  1  0
 11 12  1  0
 12 13  1  0
 12 14  2  0
 14 15  1  0
 15 16  1  0
  9 17  1  0
 17 18  2  0
  2 19  1  0
 19 20  2  0
 20 21  1  0
 21 22  2  0
 22 23  1  0
 23 24  2  0
 18  6  1  0
 24 19  1  0
  1 25  1  0
  1 26  1  0
  1 27  1  0
  2 28  1  6
  3 29  1  0
  7 30  1  0
  8 31  1  0
 11 32  1  0
 11 33  1  0
 14 34  1  0
 15 35  1  0
 15 36  1  0
 16 37  1  0
 16 38  1  0
 17 39  1  0
 18 40  1  0
 20 41  1  0
 21 42  1  0
 22 43  1  0
 23 44  1  0
 24 45  1  0
M  END
$$$$
