@<TRIPOS>MOLECULE
*****
 49 54 0 0 0
SMALL
GASTEIGER

@<TRIPOS>ATOM
      1 C          -7.1286   -1.5982    1.6435 C.3     1  UNL1        0.0085
      2 N          -6.1735   -1.5875    0.5785 N.am    1  UNL1       -0.2674
      3 C          -6.3090   -2.4536   -0.5410 C.2     1  UNL1        0.2573
      4 O          -7.3623   -3.1107   -0.6712 O.2     1  UNL1       -0.2715
      5 C          -5.2465   -2.6066   -1.5609 C.3     1  UNL1        0.1658
      6 O          -4.2927   -1.5567   -1.5052 O.3     1  UNL1       -0.4802
      7 C          -4.1413   -0.7103   -0.4325 C.ar    1  UNL1        0.1531
      8 C          -5.0499   -0.6974    0.6150 C.ar    1  UNL1        0.0970
      9 C          -4.8927    0.1550    1.6899 C.ar    1  UNL1        0.0532
     10 N          -3.8198    0.9924    1.7063 N.ar    1  UNL1       -0.2529
     11 C          -2.9301    0.9908    0.6969 C.ar    1  UNL1        0.0747
     12 C          -1.8535    1.8659    0.7637 C.ar    1  UNL1       -0.0346
     13 C          -0.9124    1.9057   -0.2436 C.ar    1  UNL1       -0.0458
     14 C          -1.0365    1.0657   -1.3377 C.ar    1  UNL1        0.0164
     15 S           0.1968    1.1277   -2.6441 S.3     1  UNL1       -0.0496
     16 C           1.4273    2.3550   -2.2389 C.ar    1  UNL1        0.2007
     17 N           1.4423    3.6655   -2.5396 N.ar    1  UNL1       -0.1214
     18 N           2.5447    4.2254   -2.0486 N.ar    1  UNL1       -0.1256
     19 C           3.2601    3.2583   -1.4161 C.ar    1  UNL1        0.1972
     20 C           4.4657    3.3157   -0.7482 C.ar    1  UNL1        0.1684
     21 F           5.1369    4.4782   -0.6431 F       1  UNL1       -0.2016
     22 C           4.9504    2.1486   -0.1989 C.ar    1  UNL1       -0.0135
     23 C           4.2056    0.9800   -0.3443 C.ar    1  UNL1        0.0045
     24 C           4.7587   -0.2432    0.2567 C.ar    1  UNL1        0.0210
     25 C           4.0922   -1.3274    0.7847 C.ar    1  UNL1        0.0571
     26 N           5.0224   -2.2081    1.2196 N.ar    1  UNL1       -0.1793
     27 N           6.2405   -1.7500    1.0002 N.ar    1  UNL1       -0.2739
     28 C           7.4810   -2.4419    1.3440 C.3     1  UNL1        0.0302
     29 C           6.1051   -0.5363    0.4055 C.ar    1  UNL1        0.0329
     30 C           3.0113    0.9771   -1.0186 C.ar    1  UNL1        0.0216
     31 N           2.5395    2.1174   -1.5542 N.ar    1  UNL1       -0.2744
     32 C          -2.1023    0.2176   -1.3771 C.ar    1  UNL1       -0.0351
     33 C          -3.0593    0.1502   -0.3922 C.ar    1  UNL1        0.0450
     34 H          -6.7178   -2.1577    2.5160 H       1  UNL1        0.0433
     35 H          -8.0480   -2.1488    1.3205 H       1  UNL1        0.0433
     36 H          -7.4534   -0.5916    1.9747 H       1  UNL1        0.0433
     37 H          -5.7013   -2.5438   -2.5832 H       1  UNL1        0.0795
     38 H          -4.7859   -3.6052   -1.4187 H       1  UNL1        0.0795
     39 H          -5.6187    0.1383    2.4872 H       1  UNL1        0.0850
     40 H          -1.7012    2.5474    1.5931 H       1  UNL1        0.0639
     41 H          -0.0712    2.6019   -0.1729 H       1  UNL1        0.0629
     42 H           5.9060    2.1227    0.3475 H       1  UNL1        0.0654
     43 H           3.0208   -1.4458    0.8388 H       1  UNL1        0.0854
     44 H           7.7335   -2.2037    2.4159 H       1  UNL1        0.0473
     45 H           8.3070   -1.9997    0.7507 H       1  UNL1        0.0473
     46 H           7.3932   -3.5394    1.1794 H       1  UNL1        0.0473
     47 H           6.9297    0.0673    0.1136 H       1  UNL1        0.0832
     48 H           2.4573    0.0470   -1.1127 H       1  UNL1        0.0820
     49 H          -2.2201   -0.4532   -2.2294 H       1  UNL1        0.0636
@<TRIPOS>BOND
     1     1     2    1
     2     2     3   am
     3     3     4    2
     4     3     5    1
     5     5     6    1
     6     6     7    1
     7     7     8   ar
     8     8     9   ar
     9     9    10   ar
    10    10    11   ar
    11    11    12   ar
    12    12    13   ar
    13    13    14   ar
    14    14    15    1
    15    15    16    1
    16    16    17   ar
    17    17    18   ar
    18    18    19   ar
    19    19    20   ar
    20    20    21    1
    21    20    22   ar
    22    22    23   ar
    23    23    24    1
    24    24    25   ar
    25    25    26   ar
    26    26    27   ar
    27    27    28    1
    28    27    29   ar
    29    23    30   ar
    30    30    31   ar
    31    14    32   ar
    32    32    33   ar
    33     8     2    1
    34    33    11   ar
    35    33     7   ar
    36    31    16   ar
    37    31    19   ar
    38    29    24   ar
    39     1    34    1
    40     1    35    1
    41     1    36    1
    42     5    37    1
    43     5    38    1
    44     9    39    1
    45    12    40    1
    46    13    41    1
    47    22    42    1
    48    25    43    1
    49    28    44    1
    50    28    45    1
    51    28    46    1
    52    29    47    1
    53    30    48    1
    54    32    49    1
