@<TRIPOS>MOLECULE
*****
 35 36 0 0 0
SMALL
GASTEIGER

@<TRIPOS>ATOM
      1 C          -5.5845   -0.5051    0.6462 C.3     1  UNL1       -0.0014
      2 C          -4.3516   -1.2910    0.8811 C.2     1  UNL1        0.1601
      3 O          -4.4433   -2.4251    1.3799 O.2     1  UNL1       -0.2924
      4 C          -3.0528   -0.7099    0.5186 C.ar    1  UNL1        0.0180
      5 C          -1.9230   -1.4552    0.7447 C.ar    1  UNL1       -0.0495
      6 C          -0.6883   -0.9454    0.4188 C.ar    1  UNL1       -0.0391
      7 C          -0.6098    0.3185   -0.1355 C.ar    1  UNL1        0.0455
      8 N           0.6720    0.8135   -0.4869 N.pl3   1  UNL1       -0.3138
      9 C           1.8666    0.0150   -0.3867 C.ar    1  UNL1        0.0321
     10 C           1.9590   -1.2286   -0.9623 C.ar    1  UNL1       -0.0405
     11 C           3.1151   -1.9932   -0.8461 C.ar    1  UNL1       -0.0592
     12 C           4.1906   -1.5064   -0.1459 C.ar    1  UNL1       -0.0477
     13 C           4.1204   -0.2526    0.4436 C.ar    1  UNL1        0.0606
     14 C           5.2539    0.2778    1.1898 C.2     1  UNL1        0.3369
     15 O           6.3316   -0.3423    1.3436 O.2     1  UNL1       -0.2451
     16 O           5.1328    1.5316    1.7577 O.3     1  UNL1       -0.4771
     17 C           2.9584    0.4867    0.3127 C.ar    1  UNL1       -0.0266
     18 C          -1.7373    1.0720   -0.3654 C.ar    1  UNL1        0.0806
     19 C          -1.7462    2.3998   -0.9533 C.2     1  UNL1        0.3386
     20 O          -2.8827    2.9884   -1.1039 O.2     1  UNL1       -0.2451
     21 O          -0.6647    3.1347   -1.3849 O.3     1  UNL1       -0.4771
     22 C          -2.9917    0.5462   -0.0302 C.ar    1  UNL1       -0.0355
     23 H          -5.5601    0.3570    1.3477 H       1  UNL1        0.0309
     24 H          -6.4860   -1.1121    0.8104 H       1  UNL1        0.0309
     25 H          -5.5414   -0.0824   -0.3877 H       1  UNL1        0.0309
     26 H          -1.9957   -2.4604    1.1858 H       1  UNL1        0.0625
     27 H           0.1881   -1.5596    0.6271 H       1  UNL1        0.0636
     28 H           0.7471    1.7919   -0.8203 H       1  UNL1        0.1522
     29 H           1.1070   -1.6064   -1.5262 H       1  UNL1        0.0636
     30 H           3.1833   -2.9703   -1.2998 H       1  UNL1        0.0618
     31 H           5.0961   -2.0875   -0.0463 H       1  UNL1        0.0626
     32 H           5.9704    2.0921    1.9319 H       1  UNL1        0.2954
     33 H           2.8585    1.4716    0.7567 H       1  UNL1        0.0644
     34 H          -0.5837    4.1116   -1.0745 H       1  UNL1        0.2954
     35 H          -3.9081    1.1253   -0.2022 H       1  UNL1        0.0633
@<TRIPOS>BOND
     1     1     2    1
     2     2     3    2
     3     2     4    1
     4     4     5   ar
     5     5     6   ar
     6     6     7   ar
     7     7     8    1
     8     8     9    1
     9     9    10   ar
    10    10    11   ar
    11    11    12   ar
    12    12    13   ar
    13    13    14    1
    14    14    15    2
    15    14    16    1
    16    13    17   ar
    17     7    18   ar
    18    18    19    1
    19    19    20    2
    20    19    21    1
    21    18    22   ar
    22    22     4   ar
    23    17     9   ar
    24     1    23    1
    25     1    24    1
    26     1    25    1
    27     5    26    1
    28     6    27    1
    29     8    28    1
    30    10    29    1
    31    11    30    1
    32    12    31    1
    33    16    32    1
    34    17    33    1
    35    21    34    1
    36    22    35    1
