
     RDKit          3D

 35 36  0  0  0  0  0  0  0  0999 V2000
   -5.5845   -0.5051    0.6462 C   0  0  0  0  0  0  0  0  0  0  0  0
   -4.3516   -1.2910    0.8811 C   0  0  0  0  0  0  0  0  0  0  0  0
   -4.4433   -2.4251    1.3799 O   0  0  0  0  0  0  0  0  0  0  0  0
   -3.0528   -0.7099    0.5186 C   0  0  0  0  0  0  0  0  0  0  0  0
   -1.9230   -1.4552    0.7447 C   0  0  0  0  0  0  0  0  0  0  0  0
   -0.6883   -0.9454    0.4188 C   0  0  0  0  0  0  0  0  0  0  0  0
   -0.6098    0.3185   -0.1355 C   0  0  0  0  0  0  0  0  0  0  0  0
    0.6720    0.8135   -0.4869 N   0  0  0  0  0  0  0  0  0  0  0  0
    1.8666    0.0150   -0.3867 C   0  0  0  0  0  0  0  0  0  0  0  0
    1.9590   -1.2286   -0.9623 C   0  0  0  0  0  0  0  0  0  0  0  0
    3.1151   -1.9932   -0.8461 C   0  0  0  0  0  0  0  0  0  0  0  0
    4.1906   -1.5064   -0.1459 C   0  0  0  0  0  0  0  0  0  0  0  0
    4.1204   -0.2526    0.4436 C   0  0  0  0  0  0  0  0  0  0  0  0
    5.2539    0.2778    1.1898 C   0  0  0  0  0  0  0  0  0  0  0  0
    6.3316   -0.3423    1.3436 O   0  0  0  0  0  0  0  0  0  0  0  0
    5.1328    1.5316    1.7577 O   0  0  0  0  0  0  0  0  0  0  0  0
    2.9584    0.4867    0.3127 C   0  0  0  0  0  0  0  0  0  0  0  0
   -1.7373    1.0720   -0.3654 C   0  0  0  0  0  0  0  0  0  0  0  0
   -1.7462    2.3998   -0.9533 C   0  0  0  0  0  0  0  0  0  0  0  0
   -2.8827    2.9884   -1.1039 O   0  0  0  0  0  0  0  0  0  0  0  0
   -0.6647    3.1347   -1.3849 O   0  0  0  0  0  0  0  0  0  0  0  0
   -2.9917    0.5462   -0.0302 C   0  0  0  0  0  0  0  0  0  0  0  0
   -5.5601    0.3570    1.3477 H   0  0  0  0  0  0  0  0  0  0  0  0
   -6.4860   -1.1121    0.8104 H   0  0  0  0  0  0  0  0  0  0  0  0
   -5.5414   -0.0824   -0.3877 H   0  0  0  0  0  0  0  0  0  0  0  0
   -1.9957   -2.4604    1.1858 H   0  0  0  0  0  0  0  0  0  0  0  0
    0.1881   -1.5596    0.6271 H   0  0  0  0  0  0  0  0  0  0  0  0
    0.7471    1.7919   -0.8203 H   0  0  0  0  0  0  0  0  0  0  0  0
    1.1070   -1.6064   -1.5262 H   0  0  0  0  0  0  0  0  0  0  0  0
    3.1833   -2.9703   -1.2998 H   0  0  0  0  0  0  0  0  0  0  0  0
    5.0961   -2.0875   -0.0463 H   0  0  0  0  0  0  0  0  0  0  0  0
    5.9704    2.0921    1.9319 H   0  0  0  0  0  0  0  0  0  0  0  0
    2.8585    1.4716    0.7567 H   0  0  0  0  0  0  0  0  0  0  0  0
   -0.5837    4.1116   -1.0745 H   0  0  0  0  0  0  0  0  0  0  0  0
   -3.9081    1.1253   -0.2022 H   0  0  0  0  0  0  0  0  0  0  0  0
  1  2  1  0
  2  3  2  0
  2  4  1  0
  4  5  2  0
  5  6  1  0
  6  7  2  0
  7  8  1  0
  8  9  1  0
  9 10  2  0
 10 11  1  0
 11 12  2  0
 12 13  1  0
 13 14  1  0
 14 15  2  0
 14 16  1  0
 13 17  2  0
  7 18  1  0
 18 19  1  0
 19 20  2  0
 19 21  1  0
 18 22  2  0
 22  4  1  0
 17  9  1  0
  1 23  1  0
  1 24  1  0
  1 25  1  0
  5 26  1  0
  6 27  1  0
  8 28  1  0
 10 29  1  0
 11 30  1  0
 12 31  1  0
 16 32  1  0
 17 33  1  0
 21 34  1  0
 22 35  1  0
M  END
$$$$
