@<TRIPOS>MOLECULE
*****
 60 63 0 0 0
SMALL
GASTEIGER

@<TRIPOS>ATOM
      1 O           1.7501    3.1937    1.0180 O.3     1  UNL1       -0.3814
      2 C           2.3005    3.0603   -0.2431 C.3     1  UNL1        0.1653
      3 C           1.2209    2.7676   -1.2541 C.3     1  UNL1        0.0475
      4 N           0.5081    1.5440   -0.9608 N.pl3   1  UNL1       -0.3139
      5 C          -0.8542    1.5701   -0.5577 C.ar    1  UNL1        0.0732
      6 C          -1.3877    2.7263   -0.0382 C.ar    1  UNL1       -0.0370
      7 C          -2.7167    2.6971    0.3372 C.ar    1  UNL1       -0.0592
      8 C          -3.4914    1.5395    0.1959 C.ar    1  UNL1       -0.0504
      9 C          -2.9494    0.3864   -0.3251 C.ar    1  UNL1        0.0258
     10 C          -3.7774   -0.8052   -0.4600 C.ar    1  UNL1       -0.0109
     11 C          -3.6995   -1.5297   -1.6329 C.ar    1  UNL1       -0.0537
     12 C          -4.4761   -2.6606   -1.7783 C.ar    1  UNL1       -0.0577
     13 C          -5.3186   -3.0560   -0.7569 C.ar    1  UNL1       -0.0196
     14 C          -5.4209   -2.3583    0.4241 C.ar    1  UNL1        0.1306
     15 O          -6.2790   -2.7887    1.4249 O.3     1  UNL1       -0.4057
     16 C          -7.6152   -2.4169    1.5744 C.3     1  UNL1        0.5752
     17 F          -8.4080   -2.7512    0.4894 F       1  UNL1       -0.1328
     18 F          -7.7669   -1.0841    1.9058 F       1  UNL1       -0.1328
     19 F          -8.1237   -3.1423    2.6595 F       1  UNL1       -0.1328
     20 C          -4.6398   -1.2297    0.5572 C.ar    1  UNL1       -0.0118
     21 C          -1.6230    0.4238   -0.6972 C.ar    1  UNL1        0.1492
     22 O          -1.0481   -0.7164   -1.2240 O.3     1  UNL1       -0.4873
     23 C           0.2922   -0.8128   -1.6215 C.3     1  UNL1        0.1122
     24 C           1.1792    0.2649   -1.0793 C.3     1  UNL1        0.0830
     25 C           1.8705   -0.1453    0.1683 C.ar    1  UNL1       -0.0204
     26 C           1.3013    0.0047    1.4145 C.ar    1  UNL1       -0.0565
     27 C           1.9502   -0.3879    2.5761 C.ar    1  UNL1       -0.0580
     28 C           3.2044   -0.9501    2.5289 C.ar    1  UNL1       -0.0197
     29 C           3.8015   -1.1125    1.2819 C.ar    1  UNL1        0.1277
     30 O           5.0653   -1.6828    1.2739 O.3     1  UNL1       -0.4280
     31 C           5.7203   -1.8772    0.0364 C.3     1  UNL1        0.4625
     32 F           5.9105   -0.6988   -0.6281 F       1  UNL1       -0.1583
     33 F           4.9981   -2.7196   -0.7953 F       1  UNL1       -0.1583
     34 C           7.0641   -2.5673    0.2442 C.3     1  UNL1        0.3402
     35 F           6.8647   -3.8023    0.8468 F       1  UNL1       -0.1984
     36 F           7.6764   -2.7987   -0.9664 F       1  UNL1       -0.1984
     37 C           3.1458   -0.7179    0.1352 C.ar    1  UNL1       -0.0147
     38 C           3.1087    4.2817   -0.6230 C.3     1  UNL1        0.4168
     39 F           2.3816    5.4309   -0.6414 F       1  UNL1       -0.1679
     40 F           3.6471    4.1326   -1.9058 F       1  UNL1       -0.1679
     41 F           4.1925    4.3547    0.2233 F       1  UNL1       -0.1679
     42 H           1.8012    4.1433    1.2906 H       1  UNL1        0.2102
     43 H           3.0277    2.2173   -0.1844 H       1  UNL1        0.0699
     44 H           0.5683    3.6375   -1.4192 H       1  UNL1        0.0492
     45 H           1.7701    2.6440   -2.2375 H       1  UNL1        0.0492
     46 H          -0.7929    3.6354    0.0774 H       1  UNL1        0.0637
     47 H          -3.1270    3.6138    0.7455 H       1  UNL1        0.0618
     48 H          -4.5305    1.5615    0.5029 H       1  UNL1        0.0625
     49 H          -3.0283   -1.1804   -2.3983 H       1  UNL1        0.0624
     50 H          -4.4123   -3.2341   -2.7108 H       1  UNL1        0.0619
     51 H          -5.9396   -3.9431   -0.8489 H       1  UNL1        0.0654
     52 H          -4.6798   -0.6501    1.4535 H       1  UNL1        0.0660
     53 H           0.2879   -0.7779   -2.7468 H       1  UNL1        0.0719
     54 H           0.7020   -1.7903   -1.3063 H       1  UNL1        0.0719
     55 H           1.9935    0.4161   -1.8424 H       1  UNL1        0.0583
     56 H           0.3000    0.4527    1.4705 H       1  UNL1        0.0621
     57 H           1.4800   -0.2579    3.5393 H       1  UNL1        0.0619
     58 H           3.7202   -1.2585    3.4166 H       1  UNL1        0.0654
     59 H           7.6902   -1.9513    0.9014 H       1  UNL1        0.1124
     60 H           3.6109   -0.8442   -0.8297 H       1  UNL1        0.0657
@<TRIPOS>BOND
     1     1     2    1
     2     2     3    1
     3     3     4    1
     4     4     5    1
     5     5     6   ar
     6     6     7   ar
     7     7     8   ar
     8     8     9   ar
     9     9    10    1
    10    10    11   ar
    11    11    12   ar
    12    12    13   ar
    13    13    14   ar
    14    14    15    1
    15    15    16    1
    16    16    17    1
    17    16    18    1
    18    16    19    1
    19    14    20   ar
    20     9    21   ar
    21    21    22    1
    22    22    23    1
    23    23    24    1
    24    24    25    1
    25    25    26   ar
    26    26    27   ar
    27    27    28   ar
    28    28    29   ar
    29    29    30    1
    30    30    31    1
    31    31    32    1
    32    31    33    1
    33    31    34    1
    34    34    35    1
    35    34    36    1
    36    29    37   ar
    37     2    38    1
    38    38    39    1
    39    38    40    1
    40    38    41    1
    41    24     4    1
    42    37    25   ar
    43    21     5   ar
    44    20    10   ar
    45     1    42    1
    46     2    43    1
    47     3    44    1
    48     3    45    1
    49     6    46    1
    50     7    47    1
    51     8    48    1
    52    11    49    1
    53    12    50    1
    54    13    51    1
    55    20    52    1
    56    23    53    1
    57    23    54    1
    58    24    55    1
    59    26    56    1
    60    27    57    1
    61    28    58    1
    62    34    59    1
    63    37    60    1
