@<TRIPOS>MOLECULE
*****
 61 68 0 0 0
SMALL
GASTEIGER

@<TRIPOS>ATOM
      1 C           3.3487   -2.2781   -0.6451 C.3     1  UNL1       -0.0155
      2 N           3.8611   -1.5794    0.4886 N.3     1  UNL1       -0.3136
      3 C           2.9264   -0.8150    1.2391 C.3     1  UNL1        0.0423
      4 C           1.7684   -1.6283    1.7035 C.3     1  UNL1        0.0107
      5 C           0.6294   -0.8093    2.2170 C.3     1  UNL1        0.1402
      6 O           0.8136    0.5265    2.2412 O.3     1  UNL1       -0.3282
      7 C           1.3860    1.1666    1.1625 C.3     1  UNL1        0.1741
      8 C           1.8904    2.4874    1.7926 C.3     1  UNL1       -0.0136
      9 C           2.5170    0.4547    0.5178 C.3     1  UNL1        0.1214
     10 O           2.3783    0.2355   -0.8494 O.3     1  UNL1       -0.3735
     11 C           3.4030    0.7912   -1.6093 C.3     1  UNL1        0.0371
     12 N           0.3576    1.4319    0.1647 N.ar    1  UNL1       -0.3070
     13 C           0.3129    2.4531   -0.7202 C.ar    1  UNL1        0.0527
     14 C           1.1939    3.4859   -0.9552 C.ar    1  UNL1       -0.0375
     15 C           0.8894    4.4015   -1.9471 C.ar    1  UNL1       -0.0598
     16 C          -0.2620    4.3045   -2.6984 C.ar    1  UNL1       -0.0611
     17 C          -1.1508    3.2760   -2.4749 C.ar    1  UNL1       -0.0520
     18 C          -0.8315    2.3689   -1.4788 C.ar    1  UNL1        0.0081
     19 C          -1.5198    1.2737   -1.0688 C.ar    1  UNL1        0.0151
     20 C          -2.7226    0.6961   -1.4797 C.ar    1  UNL1       -0.0078
     21 C          -3.1672   -0.4556   -0.8648 C.ar    1  UNL1        0.0518
     22 C          -2.3926   -1.0211    0.1658 C.ar    1  UNL1        0.0221
     23 C          -2.5610   -2.1259    0.9342 C.ar    1  UNL1        0.0085
     24 C          -3.5087   -3.1115    1.0373 C.ar    1  UNL1       -0.0520
     25 C          -3.3455   -4.1194    1.9690 C.ar    1  UNL1       -0.0611
     26 C          -2.2458   -4.1703    2.8125 C.ar    1  UNL1       -0.0598
     27 C          -1.2919   -3.1850    2.7142 C.ar    1  UNL1       -0.0375
     28 C          -1.4465   -2.1714    1.7842 C.ar    1  UNL1        0.0524
     29 N          -0.6459   -1.1433    1.5397 N.ar    1  UNL1       -0.3115
     30 C          -1.2189   -0.4434    0.5565 C.ar    1  UNL1        0.0774
     31 C          -0.7876    0.7073   -0.0663 C.ar    1  UNL1        0.0772
     32 C          -4.4255   -0.8066   -1.4986 C.2     1  UNL1        0.2453
     33 O          -5.1609   -1.7818   -1.2404 O.2     1  UNL1       -0.2702
     34 N          -4.7021    0.1816   -2.5074 N.am    1  UNL1       -0.3072
     35 C          -3.6496    1.1519   -2.5353 C.3     1  UNL1        0.0385
     36 H           3.9889   -2.0320   -1.5287 H       1  UNL1        0.0388
     37 H           2.3044   -2.0778   -0.9106 H       1  UNL1        0.0388
     38 H           3.4935   -3.3978   -0.5341 H       1  UNL1        0.0388
     39 H           4.3207   -2.2685    1.1249 H       1  UNL1        0.1220
     40 H           3.4568   -0.4589    2.1775 H       1  UNL1        0.0489
     41 H           1.3520   -2.2921    0.8935 H       1  UNL1        0.0325
     42 H           2.1649   -2.3584    2.4663 H       1  UNL1        0.0325
     43 H           0.4541   -1.1370    3.2800 H       1  UNL1        0.0839
     44 H           2.9416    2.6915    1.5245 H       1  UNL1        0.0277
     45 H           1.1811    3.3046    1.6809 H       1  UNL1        0.0277
     46 H           1.9644    2.3562    2.9313 H       1  UNL1        0.0277
     47 H           3.4502    1.1018    0.5911 H       1  UNL1        0.0660
     48 H           3.4543    1.8636   -1.4625 H       1  UNL1        0.0524
     49 H           3.2228    0.5046   -2.6822 H       1  UNL1        0.0524
     50 H           4.3968    0.3232   -1.3409 H       1  UNL1        0.0524
     51 H           2.0988    3.5500   -0.3907 H       1  UNL1        0.0638
     52 H           1.5908    5.2127   -2.1234 H       1  UNL1        0.0618
     53 H          -0.4763    5.0289   -3.4638 H       1  UNL1        0.0618
     54 H          -2.0755    3.1792   -3.0627 H       1  UNL1        0.0624
     55 H          -4.3899   -3.1755    0.4456 H       1  UNL1        0.0624
     56 H          -4.1090   -4.8967    2.0385 H       1  UNL1        0.0618
     57 H          -2.1473   -4.9714    3.5303 H       1  UNL1        0.0618
     58 H          -0.4175   -3.2047    3.3683 H       1  UNL1        0.0638
     59 H          -5.5616    0.1467   -3.1037 H       1  UNL1        0.1493
     60 H          -4.1042    2.1432   -2.3034 H       1  UNL1        0.0512
     61 H          -3.1943    1.1156   -3.5467 H       1  UNL1        0.0512
@<TRIPOS>BOND
     1     1     2    1
     2     2     3    1
     3     3     4    1
     4     4     5    1
     5     5     6    1
     6     6     7    1
     7     7     8    1
     8     7     9    1
     9     9    10    1
    10    10    11    1
    11     7    12    1
    12    12    13   ar
    13    13    14   ar
    14    14    15   ar
    15    15    16   ar
    16    16    17   ar
    17    17    18   ar
    18    18    19   ar
    19    19    20   ar
    20    20    21   ar
    21    21    22   ar
    22    22    23   ar
    23    23    24   ar
    24    24    25   ar
    25    25    26   ar
    26    26    27   ar
    27    27    28   ar
    28    28    29   ar
    29    29    30   ar
    30    30    31   ar
    31    21    32    1
    32    32    33    2
    33    32    34   am
    34    34    35    1
    35     9     3    1
    36    31    12   ar
    37    29     5    1
    38    18    13   ar
    39    31    19   ar
    40    35    20    1
    41    30    22   ar
    42    28    23   ar
    43     1    36    1
    44     1    37    1
    45     1    38    1
    46     2    39    1
    47     3    40    1
    48     4    41    1
    49     4    42    1
    50     5    43    1
    51     8    44    1
    52     8    45    1
    53     8    46    1
    54     9    47    1
    55    11    48    1
    56    11    49    1
    57    11    50    1
    58    14    51    1
    59    15    52    1
    60    16    53    1
    61    17    54    1
    62    24    55    1
    63    25    56    1
    64    26    57    1
    65    27    58    1
    66    34    59    1
    67    35    60    1
    68    35    61    1
