@<TRIPOS>MOLECULE
*****
 41 43 0 0 0
SMALL
GASTEIGER

@<TRIPOS>ATOM
      1 N           0.8803    2.7631   -0.0706 N.am    1  UNL1       -0.3126
      2 C           1.6475    1.7018   -0.6959 C.2     1  UNL1        0.3096
      3 O           2.1736    1.9359   -1.8669 O.2     1  UNL1       -0.2521
      4 N           1.8403    0.4441   -0.0498 N.am    1  UNL1       -0.2028
      5 C           0.7421   -0.2280    0.6207 C.ar    1  UNL1        0.1340
      6 C           0.8883   -1.5149    1.0391 C.ar    1  UNL1       -0.0202
      7 C          -0.1485   -2.2833    0.9648 C.ar    1  UNL1       -0.0443
      8 C          -1.3634   -1.7178    0.5028 C.ar    1  UNL1        0.0626
      9 C          -2.5510   -2.5133    0.0968 C.2     1  UNL1        0.2436
     10 N          -3.6570   -3.1277    0.7794 N.am    1  UNL1       -0.3253
     11 O          -2.4992   -2.6304   -1.2203 O.2     1  UNL1       -0.2703
     12 C          -1.5717   -0.3571    0.1030 C.ar    1  UNL1        0.0879
     13 N          -0.4651    0.4493    0.1893 N.ar    1  UNL1       -0.2304
     14 C          -2.8590    0.3687   -0.0975 C.ar    1  UNL1        0.0365
     15 C          -2.6772    1.3141   -1.1183 C.ar    1  UNL1       -0.0471
     16 C          -3.5752    2.3084   -1.3778 C.ar    1  UNL1       -0.0257
     17 C          -4.6641    2.2893   -0.5189 C.ar    1  UNL1        0.1262
     18 F          -5.6028    3.1984   -0.7103 F       1  UNL1       -0.2054
     19 C          -4.9498    1.4480    0.5003 C.ar    1  UNL1        0.0095
     20 C          -4.0061    0.4586    0.6976 C.ar    1  UNL1        0.1353
     21 F          -4.1418   -0.5013    1.6781 F       1  UNL1       -0.2047
     22 C           3.2001    0.1478   -0.0681 C.ar    1  UNL1        0.1143
     23 C           3.7507   -1.1636   -0.1787 C.ar    1  UNL1        0.1479
     24 F           2.8408   -2.1537   -0.5749 F       1  UNL1       -0.2034
     25 C           4.9578   -1.7365   -0.1188 C.ar    1  UNL1       -0.0244
     26 C           5.9190   -0.7082    0.1347 C.ar    1  UNL1       -0.0562
     27 C           5.4845    0.6208    0.2771 C.ar    1  UNL1       -0.0244
     28 C           4.1964    1.0794    0.1913 C.ar    1  UNL1        0.1479
     29 F           3.9595    2.3404    0.3677 F       1  UNL1       -0.2034
     30 H           0.4757    2.5630    0.8619 H       1  UNL1        0.1465
     31 H           0.7417    3.6507   -0.5872 H       1  UNL1        0.1465
     32 H           1.8260   -1.8364    1.4763 H       1  UNL1        0.0652
     33 H          -0.2589   -3.2436    1.2114 H       1  UNL1        0.0627
     34 H          -4.4368   -3.4476    0.1560 H       1  UNL1        0.1453
     35 H          -3.5025   -3.2644    1.8049 H       1  UNL1        0.1453
     36 H          -1.7980    1.3224   -1.7657 H       1  UNL1        0.0626
     37 H          -3.4686    3.0731   -2.1115 H       1  UNL1        0.0646
     38 H          -5.8427    1.4110    1.1477 H       1  UNL1        0.0675
     39 H           5.2428   -2.7725   -0.2233 H       1  UNL1        0.0647
     40 H           6.9866   -0.9772    0.2557 H       1  UNL1        0.0619
     41 H           6.2856    1.2894    0.4286 H       1  UNL1        0.0647
@<TRIPOS>BOND
     1     1     2   am
     2     2     3    2
     3     2     4   am
     4     4     5    1
     5     5     6   ar
     6     6     7   ar
     7     7     8   ar
     8     8     9    1
     9     9    10   am
    10     9    11    2
    11     8    12   ar
    12    12    13   ar
    13    12    14    1
    14    14    15   ar
    15    15    16   ar
    16    16    17   ar
    17    17    18    1
    18    17    19   ar
    19    19    20   ar
    20    20    21    1
    21     4    22    1
    22    22    23   ar
    23    23    24    1
    24    23    25   ar
    25    25    26   ar
    26    26    27   ar
    27    27    28   ar
    28    28    29    1
    29    13     5   ar
    30    20    14   ar
    31    28    22   ar
    32     1    30    1
    33     1    31    1
    34     6    32    1
    35     7    33    1
    36    10    34    1
    37    10    35    1
    38    15    36    1
    39    16    37    1
    40    19    38    1
    41    25    39    1
    42    26    40    1
    43    27    41    1
