
     RDKit          3D

 41 43  0  0  0  0  0  0  0  0999 V2000
    0.8803    2.7631   -0.0706 N   0  0  0  0  0  0  0  0  0  0  0  0
    1.6475    1.7018   -0.6959 C   0  0  0  0  0  0  0  0  0  0  0  0
    2.1736    1.9359   -1.8669 O   0  0  0  0  0  0  0  0  0  0  0  0
    1.8403    0.4441   -0.0498 N   0  0  0  0  0  0  0  0  0  0  0  0
    0.7421   -0.2280    0.6207 C   0  0  0  0  0  0  0  0  0  0  0  0
    0.8883   -1.5149    1.0391 C   0  0  0  0  0  0  0  0  0  0  0  0
   -0.1485   -2.2833    0.9648 C   0  0  0  0  0  0  0  0  0  0  0  0
   -1.3634   -1.7178    0.5028 C   0  0  0  0  0  0  0  0  0  0  0  0
   -2.5510   -2.5133    0.0968 C   0  0  0  0  0  0  0  0  0  0  0  0
   -3.6570   -3.1277    0.7794 N   0  0  0  0  0  0  0  0  0  0  0  0
   -2.4992   -2.6304   -1.2203 O   0  0  0  0  0  0  0  0  0  0  0  0
   -1.5717   -0.3571    0.1030 C   0  0  0  0  0  0  0  0  0  0  0  0
   -0.4651    0.4493    0.1893 N   0  0  0  0  0  0  0  0  0  0  0  0
   -2.8590    0.3687   -0.0975 C   0  0  0  0  0  0  0  0  0  0  0  0
   -2.6772    1.3141   -1.1183 C   0  0  0  0  0  0  0  0  0  0  0  0
   -3.5752    2.3084   -1.3778 C   0  0  0  0  0  0  0  0  0  0  0  0
   -4.6641    2.2893   -0.5189 C   0  0  0  0  0  0  0  0  0  0  0  0
   -5.6028    3.1984   -0.7103 F   0  0  0  0  0  0  0  0  0  0  0  0
   -4.9498    1.4480    0.5003 C   0  0  0  0  0  0  0  0  0  0  0  0
   -4.0061    0.4586    0.6976 C   0  0  0  0  0  0  0  0  0  0  0  0
   -4.1418   -0.5013    1.6781 F   0  0  0  0  0  0  0  0  0  0  0  0
    3.2001    0.1478   -0.0681 C   0  0  0  0  0  0  0  0  0  0  0  0
    3.7507   -1.1636   -0.1787 C   0  0  0  0  0  0  0  0  0  0  0  0
    2.8408   -2.1537   -0.5749 F   0  0  0  0  0  0  0  0  0  0  0  0
    4.9578   -1.7365   -0.1188 C   0  0  0  0  0  0  0  0  0  0  0  0
    5.9190   -0.7082    0.1347 C   0  0  0  0  0  0  0  0  0  0  0  0
    5.4845    0.6208    0.2771 C   0  0  0  0  0  0  0  0  0  0  0  0
    4.1964    1.0794    0.1913 C   0  0  0  0  0  0  0  0  0  0  0  0
    3.9595    2.3404    0.3677 F   0  0  0  0  0  0  0  0  0  0  0  0
    0.4757    2.5630    0.8619 H   0  0  0  0  0  0  0  0  0  0  0  0
    0.7417    3.6507   -0.5872 H   0  0  0  0  0  0  0  0  0  0  0  0
    1.8260   -1.8364    1.4763 H   0  0  0  0  0  0  0  0  0  0  0  0
   -0.2589   -3.2436    1.2114 H   0  0  0  0  0  0  0  0  0  0  0  0
   -4.4368   -3.4476    0.1560 H   0  0  0  0  0  0  0  0  0  0  0  0
   -3.5025   -3.2644    1.8049 H   0  0  0  0  0  0  0  0  0  0  0  0
   -1.7980    1.3224   -1.7657 H   0  0  0  0  0  0  0  0  0  0  0  0
   -3.4686    3.0731   -2.1115 H   0  0  0  0  0  0  0  0  0  0  0  0
   -5.8427    1.4110    1.1477 H   0  0  0  0  0  0  0  0  0  0  0  0
    5.2428   -2.7725   -0.2233 H   0  0  0  0  0  0  0  0  0  0  0  0
    6.9866   -0.9772    0.2557 H   0  0  0  0  0  0  0  0  0  0  0  0
    6.2856    1.2894    0.4286 H   0  0  0  0  0  0  0  0  0  0  0  0
  1  2  1  0
  2  3  2  0
  2  4  1  0
  4  5  1  0
  5  6  2  0
  6  7  1  0
  7  8  2  0
  8  9  1  0
  9 10  1  0
  9 11  2  0
  8 12  1  0
 12 13  2  0
 12 14  1  0
 14 15  2  0
 15 16  1  0
 16 17  2  0
 17 18  1  0
 17 19  1  0
 19 20  2  0
 20 21  1  0
  4 22  1  0
 22 23  2  0
 23 24  1  0
 23 25  1  0
 25 26  2  0
 26 27  1  0
 27 28  2  0
 28 29  1  0
 13  5  1  0
 20 14  1  0
 28 22  1  0
  1 30  1  0
  1 31  1  0
  6 32  1  0
  7 33  1  0
 10 34  1  0
 10 35  1  0
 15 36  1  0
 16 37  1  0
 19 38  1  0
 25 39  1  0
 26 40  1  0
 27 41  1  0
M  END
$$$$
