@<TRIPOS>MOLECULE
*****
 50 53 0 0 0
SMALL
GASTEIGER

@<TRIPOS>ATOM
      1 C           7.5832   -0.3852    1.2999 C.3     1  UNL1        0.0001
      2 N           6.2330   -0.8941    1.0307 N.am    1  UNL1       -0.3173
      3 C           5.0925   -0.0285    0.8595 C.2     1  UNL1        0.2269
      4 O           5.2961    1.1996    0.9500 O.2     1  UNL1       -0.2744
      5 C           3.8948   -0.9043    0.6024 C.3     1  UNL1        0.0757
      6 N           2.7333   -0.0948    0.4248 N.3     1  UNL1       -0.2939
      7 C           1.5333   -0.8686    0.1713 C.3     1  UNL1        0.0010
      8 C           0.2771   -0.0840    0.4595 C.3     1  UNL1       -0.0216
      9 C           0.4482    1.3947    0.2858 C.3     1  UNL1        0.0256
     10 C           1.6789    1.9507    0.9634 C.3     1  UNL1       -0.0216
     11 C           2.4278    0.7585    1.5446 C.3     1  UNL1        0.0010
     12 N           0.3239    1.8456   -1.0699 N.pl3   1  UNL1       -0.3105
     13 C          -0.8615    1.6709   -1.8305 C.ar    1  UNL1        0.2159
     14 N          -1.9661    1.0747   -1.3539 N.ar    1  UNL1       -0.2130
     15 C          -3.0737    0.9233   -2.0984 C.ar    1  UNL1        0.0942
     16 C          -3.1086    1.3846   -3.3978 C.ar    1  UNL1       -0.0159
     17 C          -1.9923    1.9939   -3.8979 C.ar    1  UNL1        0.0333
     18 N          -0.9233    2.1101   -3.0975 N.ar    1  UNL1       -0.2229
     19 C          -4.2590    0.2721   -1.5546 C.ar    1  UNL1        0.0916
     20 C          -5.4603    0.0494   -2.2022 C.ar    1  UNL1        0.0558
     21 N          -6.3461   -0.5877   -1.3830 N.ar    1  UNL1       -0.2354
     22 C          -5.6970   -0.7644   -0.2184 C.ar    1  UNL1        0.1380
     23 C          -6.1050   -1.3577    0.9813 C.ar    1  UNL1       -0.0188
     24 C          -5.2578   -1.4299    2.0667 C.ar    1  UNL1       -0.0569
     25 C          -3.9988   -0.8918    1.9099 C.ar    1  UNL1       -0.0450
     26 C          -3.6068   -0.3087    0.7214 C.ar    1  UNL1        0.0118
     27 N          -4.4439   -0.2459   -0.3277 N.ar    1  UNL1       -0.2979
     28 H           7.9322   -0.6841    2.3060 H       1  UNL1        0.0426
     29 H           7.5838    0.7204    1.1943 H       1  UNL1        0.0426
     30 H           8.2747   -0.7462    0.5001 H       1  UNL1        0.0426
     31 H           6.3113   -1.9332    0.9999 H       1  UNL1        0.1484
     32 H           4.1122   -1.3828   -0.3783 H       1  UNL1        0.0522
     33 H           3.8019   -1.6820    1.3837 H       1  UNL1        0.0522
     34 H           1.5606   -1.2252   -0.8690 H       1  UNL1        0.0427
     35 H           1.5571   -1.7195    0.8846 H       1  UNL1        0.0427
     36 H          -0.4705   -0.4296   -0.2840 H       1  UNL1        0.0295
     37 H          -0.1581   -0.3201    1.4617 H       1  UNL1        0.0295
     38 H          -0.4158    1.8715    0.8379 H       1  UNL1        0.0499
     39 H           1.4724    2.7149    1.7274 H       1  UNL1        0.0295
     40 H           2.3278    2.3624    0.1367 H       1  UNL1        0.0295
     41 H           3.2971    1.0406    2.1526 H       1  UNL1        0.0427
     42 H           1.7011    0.2521    2.2415 H       1  UNL1        0.0427
     43 H           1.1377    2.3096   -1.4833 H       1  UNL1        0.1492
     44 H          -4.0143    1.2508   -3.9797 H       1  UNL1        0.0655
     45 H          -1.9703    2.3725   -4.9116 H       1  UNL1        0.0831
     46 H          -5.6926    0.3380   -3.2371 H       1  UNL1        0.0852
     47 H          -7.1169   -1.7584    1.0203 H       1  UNL1        0.0654
     48 H          -5.6768   -1.9085    2.9404 H       1  UNL1        0.0619
     49 H          -3.3702   -0.9775    2.8037 H       1  UNL1        0.0632
     50 H          -2.6064    0.0767    0.7131 H       1  UNL1        0.0813
@<TRIPOS>BOND
     1     1     2    1
     2     2     3   am
     3     3     4    2
     4     3     5    1
     5     5     6    1
     6     6     7    1
     7     7     8    1
     8     8     9    1
     9     9    10    1
    10    10    11    1
    11     9    12    1
    12    12    13    1
    13    13    14   ar
    14    14    15   ar
    15    15    16   ar
    16    16    17   ar
    17    17    18   ar
    18    15    19    1
    19    19    20   ar
    20    20    21   ar
    21    21    22   ar
    22    22    23   ar
    23    23    24   ar
    24    24    25   ar
    25    25    26   ar
    26    26    27   ar
    27    11     6    1
    28    18    13   ar
    29    27    19   ar
    30    27    22   ar
    31     1    28    1
    32     1    29    1
    33     1    30    1
    34     2    31    1
    35     5    32    1
    36     5    33    1
    37     7    34    1
    38     7    35    1
    39     8    36    1
    40     8    37    1
    41     9    38    1
    42    10    39    1
    43    10    40    1
    44    11    41    1
    45    11    42    1
    46    12    43    1
    47    16    44    1
    48    17    45    1
    49    20    46    1
    50    23    47    1
    51    24    48    1
    52    25    49    1
    53    26    50    1
