
     RDKit          3D

 57 59  0  0  0  0  0  0  0  0999 V2000
   -6.7978    1.1768   -0.5951 C   0  0  0  0  0  0  0  0  0  0  0  0
   -7.4347    1.4284    0.7369 C   0  0  0  0  0  0  0  0  0  0  0  0
   -6.5962    2.3447    1.5727 C   0  0  0  0  0  0  0  0  0  0  0  0
   -5.2075    1.7868    1.8416 C   0  0  0  0  0  0  0  0  0  0  0  0
   -4.5164    1.5826    0.6182 O   0  0  0  0  0  0  0  0  0  0  0  0
   -3.2338    1.0880    0.5313 C   0  0  0  0  0  0  0  0  0  0  0  0
   -2.6176    0.7909    1.5777 O   0  0  0  0  0  0  0  0  0  0  0  0
   -2.5479    0.8929   -0.7678 C   0  0  0  0  0  0  0  0  0  0  0  0
   -1.1783    0.3556   -0.5910 C   0  0  0  0  0  0  0  0  0  0  0  0
    0.0272    1.0209   -0.6739 C   0  0  0  0  0  0  0  0  0  0  0  0
    1.0640    0.1533   -0.4391 C   0  0  0  0  0  0  0  0  0  0  0  0
    2.5054    0.4379   -0.4261 C   0  0  0  0  0  0  0  0  0  0  0  0
    3.0313    1.5265    0.2078 C   0  0  0  0  0  0  0  0  0  0  0  0
    4.3785    1.7538    0.1923 C   0  0  0  0  0  0  0  0  0  0  0  0
    5.2704    0.9151   -0.4512 C   0  0  0  0  0  0  0  0  0  0  0  0
    6.9581    1.2770   -0.4211 S   0  0  0  0  0  6  0  0  0  0  0  0
    7.3559    2.3368   -1.8001 C   0  0  0  0  0  0  0  0  0  0  0  0
    7.8059    0.0288   -0.5891 O   0  0  0  0  0  0  0  0  0  0  0  0
    7.3375    1.8976    0.8729 O   0  0  0  0  0  0  0  0  0  0  0  0
    4.7229   -0.1773   -1.0850 C   0  0  0  0  0  0  0  0  0  0  0  0
    3.3578   -0.4169   -1.0753 C   0  0  0  0  0  0  0  0  0  0  0  0
    0.5280   -1.0519   -0.2089 N   0  0  0  0  0  0  0  0  0  0  0  0
    1.1989   -2.2648    0.0805 C   0  0  0  0  0  0  0  0  0  0  0  0
    1.0895   -3.3378   -0.7797 C   0  0  0  0  0  0  0  0  0  0  0  0
    1.7256   -4.5439   -0.5406 C   0  0  0  0  0  0  0  0  0  0  0  0
    2.4892   -4.7003    0.5723 C   0  0  0  0  0  0  0  0  0  0  0  0
    2.6191   -3.6294    1.4638 C   0  0  0  0  0  0  0  0  0  0  0  0
    3.3902   -3.8317    2.5595 F   0  0  0  0  0  0  0  0  0  0  0  0
    1.9763   -2.4357    1.2062 C   0  0  0  0  0  0  0  0  0  0  0  0
   -0.8346   -0.9450   -0.2978 C   0  0  0  0  0  0  0  0  0  0  0  0
   -1.7836   -2.0777   -0.1054 C   0  0  0  0  0  0  0  0  0  0  0  0
   -7.5782    0.9893   -1.3780 H   0  0  0  0  0  0  0  0  0  0  0  0
   -6.2481    2.1053   -0.8969 H   0  0  0  0  0  0  0  0  0  0  0  0
   -6.0911    0.3131   -0.5761 H   0  0  0  0  0  0  0  0  0  0  0  0
   -8.4006    1.9509    0.5380 H   0  0  0  0  0  0  0  0  0  0  0  0
   -7.6665    0.4721    1.2391 H   0  0  0  0  0  0  0  0  0  0  0  0
   -6.4719    3.2961    0.9943 H   0  0  0  0  0  0  0  0  0  0  0  0
   -7.0999    2.6130    2.5217 H   0  0  0  0  0  0  0  0  0  0  0  0
   -5.2991    0.8034    2.3405 H   0  0  0  0  0  0  0  0  0  0  0  0
   -4.6557    2.5220    2.4502 H   0  0  0  0  0  0  0  0  0  0  0  0
   -2.4679    1.8619   -1.3348 H   0  0  0  0  0  0  0  0  0  0  0  0
   -3.1569    0.2276   -1.4454 H   0  0  0  0  0  0  0  0  0  0  0  0
    0.1570    2.0732   -0.8913 H   0  0  0  0  0  0  0  0  0  0  0  0
    2.3536    2.2108    0.7267 H   0  0  0  0  0  0  0  0  0  0  0  0
    4.8226    2.6299    0.7002 H   0  0  0  0  0  0  0  0  0  0  0  0
    6.8197    1.9556   -2.6806 H   0  0  0  0  0  0  0  0  0  0  0  0
    6.9940    3.3705   -1.5482 H   0  0  0  0  0  0  0  0  0  0  0  0
    8.4398    2.4207   -1.9271 H   0  0  0  0  0  0  0  0  0  0  0  0
    5.4020   -0.8572   -1.6012 H   0  0  0  0  0  0  0  0  0  0  0  0
    2.9828   -1.3036   -1.5982 H   0  0  0  0  0  0  0  0  0  0  0  0
    0.4987   -3.2841   -1.6851 H   0  0  0  0  0  0  0  0  0  0  0  0
    1.6261   -5.3718   -1.2281 H   0  0  0  0  0  0  0  0  0  0  0  0
    3.0014   -5.6525    0.7775 H   0  0  0  0  0  0  0  0  0  0  0  0
    2.1191   -1.6471    1.9386 H   0  0  0  0  0  0  0  0  0  0  0  0
   -2.2258   -2.4245   -1.0439 H   0  0  0  0  0  0  0  0  0  0  0  0
   -2.6418   -1.7472    0.5351 H   0  0  0  0  0  0  0  0  0  0  0  0
   -1.2966   -2.9099    0.4732 H   0  0  0  0  0  0  0  0  0  0  0  0
  1  2  1  0
  2  3  1  0
  3  4  1  0
  4  5  1  0
  5  6  1  0
  6  7  2  0
  6  8  1  0
  8  9  1  0
  9 10  1  0
 10 11  2  0
 11 12  1  0
 12 13  2  0
 13 14  1  0
 14 15  2  0
 15 16  1  0
 16 17  1  0
 16 18  2  0
 16 19  2  0
 15 20  1  0
 20 21  2  0
 11 22  1  0
 22 23  1  0
 23 24  2  0
 24 25  1  0
 25 26  2  0
 26 27  1  0
 27 28  1  0
 27 29  2  0
 22 30  1  0
 30 31  1  0
 30  9  2  0
 21 12  1  0
 29 23  1  0
  1 32  1  0
  1 33  1  0
  1 34  1  0
  2 35  1  0
  2 36  1  0
  3 37  1  0
  3 38  1  0
  4 39  1  0
  4 40  1  0
  8 41  1  0
  8 42  1  0
 10 43  1  0
 13 44  1  0
 14 45  1  0
 17 46  1  0
 17 47  1  0
 17 48  1  0
 20 49  1  0
 21 50  1  0
 24 51  1  0
 25 52  1  0
 26 53  1  0
 29 54  1  0
 31 55  1  0
 31 56  1  0
 31 57  1  0
M  END
$$$$
