@<TRIPOS>MOLECULE
*****
 57 59 0 0 0
SMALL
GASTEIGER

@<TRIPOS>ATOM
      1 C          -6.7978    1.1768   -0.5951 C.3     1  UNL1       -0.0652
      2 C          -7.4347    1.4284    0.7369 C.3     1  UNL1       -0.0528
      3 C          -6.5962    2.3447    1.5727 C.3     1  UNL1       -0.0188
      4 C          -5.2075    1.7868    1.8416 C.3     1  UNL1        0.0925
      5 O          -4.5164    1.5826    0.6182 O.3     1  UNL1       -0.4644
      6 C          -3.2338    1.0880    0.5313 C.2     1  UNL1        0.3115
      7 O          -2.6176    0.7909    1.5777 O.2     1  UNL1       -0.2505
      8 C          -2.5479    0.8929   -0.7678 C.3     1  UNL1        0.0717
      9 C          -1.1783    0.3556   -0.5910 C.ar    1  UNL1       -0.0154
     10 C           0.0272    1.0209   -0.6739 C.ar    1  UNL1       -0.0319
     11 C           1.0640    0.1533   -0.4391 C.ar    1  UNL1        0.0543
     12 C           2.5054    0.4379   -0.4261 C.ar    1  UNL1       -0.0011
     13 C           3.0313    1.5265    0.2078 C.ar    1  UNL1       -0.0508
     14 C           4.3785    1.7538    0.1923 C.ar    1  UNL1       -0.0363
     15 C           5.2704    0.9151   -0.4512 C.ar    1  UNL1        0.0879
     16 S           6.9581    1.2770   -0.4211 S.O2    1  UNL1       -0.0059
     17 C           7.3559    2.3368   -1.8001 C.3     1  UNL1        0.0596
     18 O           7.8059    0.0288   -0.5891 O.2     1  UNL1       -0.1696
     19 O           7.3375    1.8976    0.8729 O.2     1  UNL1       -0.1696
     20 C           4.7229   -0.1773   -1.0850 C.ar    1  UNL1       -0.0363
     21 C           3.3578   -0.4169   -1.0753 C.ar    1  UNL1       -0.0508
     22 N           0.5280   -1.0519   -0.2089 N.ar    1  UNL1       -0.3129
     23 C           1.1989   -2.2648    0.0805 C.ar    1  UNL1        0.0496
     24 C           1.0895   -3.3378   -0.7797 C.ar    1  UNL1       -0.0377
     25 C           1.7256   -4.5439   -0.5406 C.ar    1  UNL1       -0.0571
     26 C           2.4892   -4.7003    0.5723 C.ar    1  UNL1       -0.0263
     27 C           2.6191   -3.6294    1.4638 C.ar    1  UNL1        0.1254
     28 F           3.3902   -3.8317    2.5595 F       1  UNL1       -0.2054
     29 C           1.9763   -2.4357    1.2062 C.ar    1  UNL1       -0.0026
     30 C          -0.8346   -0.9450   -0.2978 C.ar    1  UNL1        0.0250
     31 C          -1.7836   -2.0777   -0.1054 C.3     1  UNL1       -0.0236
     32 H          -7.5782    0.9893   -1.3780 H       1  UNL1        0.0230
     33 H          -6.2481    2.1053   -0.8969 H       1  UNL1        0.0230
     34 H          -6.0911    0.3131   -0.5761 H       1  UNL1        0.0230
     35 H          -8.4006    1.9509    0.5380 H       1  UNL1        0.0264
     36 H          -7.6665    0.4721    1.2391 H       1  UNL1        0.0264
     37 H          -6.4719    3.2961    0.9943 H       1  UNL1        0.0298
     38 H          -7.0999    2.6130    2.5217 H       1  UNL1        0.0298
     39 H          -5.2991    0.8034    2.3405 H       1  UNL1        0.0697
     40 H          -4.6557    2.5220    2.4502 H       1  UNL1        0.0697
     41 H          -2.4679    1.8619   -1.3348 H       1  UNL1        0.0427
     42 H          -3.1569    0.2276   -1.4454 H       1  UNL1        0.0427
     43 H           0.1570    2.0732   -0.8913 H       1  UNL1        0.0642
     44 H           2.3536    2.2108    0.7267 H       1  UNL1        0.0625
     45 H           4.8226    2.6299    0.7002 H       1  UNL1        0.0637
     46 H           6.8197    1.9556   -2.6806 H       1  UNL1        0.0468
     47 H           6.9940    3.3705   -1.5482 H       1  UNL1        0.0468
     48 H           8.4398    2.4207   -1.9271 H       1  UNL1        0.0468
     49 H           5.4020   -0.8572   -1.6012 H       1  UNL1        0.0637
     50 H           2.9828   -1.3036   -1.5982 H       1  UNL1        0.0625
     51 H           0.4987   -3.2841   -1.6851 H       1  UNL1        0.0638
     52 H           1.6261   -5.3718   -1.2281 H       1  UNL1        0.0619
     53 H           3.0014   -5.6525    0.7775 H       1  UNL1        0.0646
     54 H           2.1191   -1.6471    1.9386 H       1  UNL1        0.0667
     55 H          -2.2258   -2.4245   -1.0439 H       1  UNL1        0.0292
     56 H          -2.6418   -1.7472    0.5351 H       1  UNL1        0.0292
     57 H          -1.2966   -2.9099    0.4732 H       1  UNL1        0.0292
@<TRIPOS>BOND
     1     1     2    1
     2     2     3    1
     3     3     4    1
     4     4     5    1
     5     5     6    1
     6     6     7    2
     7     6     8    1
     8     8     9    1
     9     9    10   ar
    10    10    11   ar
    11    11    12    1
    12    12    13   ar
    13    13    14   ar
    14    14    15   ar
    15    15    16    1
    16    16    17    1
    17    16    18    2
    18    16    19    2
    19    15    20   ar
    20    20    21   ar
    21    11    22   ar
    22    22    23    1
    23    23    24   ar
    24    24    25   ar
    25    25    26   ar
    26    26    27   ar
    27    27    28    1
    28    27    29   ar
    29    22    30   ar
    30    30    31    1
    31    30     9   ar
    32    21    12   ar
    33    29    23   ar
    34     1    32    1
    35     1    33    1
    36     1    34    1
    37     2    35    1
    38     2    36    1
    39     3    37    1
    40     3    38    1
    41     4    39    1
    42     4    40    1
    43     8    41    1
    44     8    42    1
    45    10    43    1
    46    13    44    1
    47    14    45    1
    48    17    46    1
    49    17    47    1
    50    17    48    1
    51    20    49    1
    52    21    50    1
    53    24    51    1
    54    25    52    1
    55    26    53    1
    56    29    54    1
    57    31    55    1
    58    31    56    1
    59    31    57    1
