@<TRIPOS>MOLECULE
*****
 73 79 0 0 0
SMALL
GASTEIGER

@<TRIPOS>ATOM
      1 C          -1.9974    7.4434   -3.1404 C.3     1  UNL1        0.0804
      2 O          -1.5014    6.1347   -3.0418 O.3     1  UNL1       -0.4795
      3 C          -1.5205    5.4810   -1.8111 C.ar    1  UNL1        0.2191
      4 C          -1.0381    4.1925   -1.6854 C.ar    1  UNL1        0.0404
      5 C          -1.0508    3.5342   -0.4743 C.ar    1  UNL1        0.1364
      6 N          -0.5702    2.2144   -0.2770 N.am    1  UNL1       -0.2240
      7 C           0.8011    1.9160    0.0777 C.2     1  UNL1        0.3219
      8 O           1.5967    2.7893    0.5577 O.2     1  UNL1       -0.2512
      9 N           1.0880    0.5536   -0.1888 N.am    1  UNL1       -0.1920
     10 C           2.3164   -0.1311    0.0133 C.ar    1  UNL1        0.0455
     11 C           2.4146   -1.4797   -0.2643 C.ar    1  UNL1       -0.0392
     12 C           3.6131   -2.1785   -0.0828 C.ar    1  UNL1       -0.0523
     13 C           4.7366   -1.5514    0.3779 C.ar    1  UNL1       -0.0177
     14 C           5.9957   -2.2285    0.5803 C.ar    1  UNL1       -0.0172
     15 C           6.3739   -3.2859   -0.2097 C.ar    1  UNL1       -0.0520
     16 C           7.5897   -3.9386   -0.0164 C.ar    1  UNL1       -0.0357
     17 C           8.4246   -3.5091    0.9896 C.ar    1  UNL1        0.0658
     18 N           9.6387   -3.9213    1.4204 N.ar    1  UNL1       -0.2770
     19 N          10.0242   -3.1686    2.4361 N.ar    1  UNL1       -0.1812
     20 C           9.0917   -2.2401    2.7139 C.ar    1  UNL1        0.0569
     21 C           8.0664   -2.4372    1.8078 C.ar    1  UNL1        0.0200
     22 C           6.8363   -1.8088    1.5805 C.ar    1  UNL1       -0.0434
     23 C           4.6279   -0.2060    0.6520 C.ar    1  UNL1       -0.0523
     24 C           3.4318    0.4899    0.4705 C.ar    1  UNL1       -0.0392
     25 C          -0.1341    0.0234   -0.7135 C.2     1  UNL1        0.2516
     26 O          -0.2768   -1.0182   -1.3506 O.2     1  UNL1       -0.2724
     27 C          -1.2413    0.9475   -0.3641 C.3     1  UNL1        0.1240
     28 C          -1.8865    0.6696    0.9498 C.3     1  UNL1       -0.0095
     29 C          -2.7442   -0.5644    0.8502 C.3     1  UNL1        0.0017
     30 N          -2.7632   -1.1988   -0.3825 N.3     1  UNL1       -0.2965
     31 C          -3.6227   -2.3316   -0.4658 C.3     1  UNL1        0.0415
     32 C          -5.0434   -2.1323   -0.2148 C.ar    1  UNL1        0.0581
     33 N          -5.8515   -1.8476   -1.2904 N.ar    1  UNL1       -0.2583
     34 C          -7.1505   -1.5998   -1.1937 C.ar    1  UNL1        0.0279
     35 C          -7.7617   -1.6190    0.0328 C.ar    1  UNL1       -0.0433
     36 C          -6.9874   -1.9020    1.1439 C.ar    1  UNL1       -0.0557
     37 C          -5.6216   -2.1602    1.0141 C.ar    1  UNL1       -0.0279
     38 C          -4.8966   -2.4982    2.2267 C.3     1  UNL1       -0.0380
     39 C          -2.9430   -0.3768   -1.5449 C.3     1  UNL1        0.0017
     40 C          -2.3319    0.9905   -1.4090 C.3     1  UNL1       -0.0095
     41 N          -1.5634    4.2206    0.5893 N.ar    1  UNL1       -0.2200
     42 C          -2.0280    5.4659    0.4601 C.ar    1  UNL1        0.1219
     43 N          -2.0138    6.1038   -0.7213 N.ar    1  UNL1       -0.2013
     44 H          -2.3492    7.6824   -4.1471 H       1  UNL1        0.0660
     45 H          -1.2077    8.1974   -2.8517 H       1  UNL1        0.0660
     46 H          -2.8433    7.6395   -2.4438 H       1  UNL1        0.0660
     47 H          -0.6334    3.6712   -2.5634 H       1  UNL1        0.0705
     48 H           1.6078   -2.0745   -0.6251 H       1  UNL1        0.0636
     49 H           3.6836   -3.2349   -0.3022 H       1  UNL1        0.0624
     50 H           5.7561   -3.6624   -1.0123 H       1  UNL1        0.0624
     51 H           7.9188   -4.7722   -0.6180 H       1  UNL1        0.0639
     52 H          10.1579   -4.7026    1.0030 H       1  UNL1        0.1889
     53 H           9.0934   -1.4691    3.4815 H       1  UNL1        0.0854
     54 H           6.6166   -0.9803    2.2526 H       1  UNL1        0.0631
     55 H           5.4869    0.3161    1.0143 H       1  UNL1        0.0624
     56 H           3.4555    1.5407    0.7141 H       1  UNL1        0.0636
     57 H          -2.4804    1.5643    1.2216 H       1  UNL1        0.0303
     58 H          -1.1154    0.4881    1.7304 H       1  UNL1        0.0303
     59 H          -3.7902   -0.2007    1.0777 H       1  UNL1        0.0427
     60 H          -2.4598   -1.2247    1.6902 H       1  UNL1        0.0427
     61 H          -3.5604   -2.8220   -1.4952 H       1  UNL1        0.0491
     62 H          -3.2057   -3.1845    0.1794 H       1  UNL1        0.0491
     63 H          -7.7295   -1.3810   -2.0931 H       1  UNL1        0.0829
     64 H          -8.8132   -1.4201    0.1327 H       1  UNL1        0.0633
     65 H          -7.4653   -1.9179    2.1125 H       1  UNL1        0.0621
     66 H          -3.9565   -3.0613    2.0716 H       1  UNL1        0.0278
     67 H          -5.5382   -3.1715    2.8666 H       1  UNL1        0.0278
     68 H          -4.7530   -1.5841    2.8291 H       1  UNL1        0.0278
     69 H          -4.0349   -0.2332   -1.6842 H       1  UNL1        0.0427
     70 H          -2.5731   -0.8670   -2.4681 H       1  UNL1        0.0427
     71 H          -3.0471    1.7651   -1.0989 H       1  UNL1        0.0303
     72 H          -1.9210    1.2823   -2.3956 H       1  UNL1        0.0303
     73 H          -2.4267    5.9804    1.3198 H       1  UNL1        0.1049
@<TRIPOS>BOND
     1     1     2    1
     2     2     3    1
     3     3     4   ar
     4     4     5   ar
     5     5     6    1
     6     6     7   am
     7     7     8    2
     8     7     9   am
     9     9    10    1
    10    10    11   ar
    11    11    12   ar
    12    12    13   ar
    13    13    14    1
    14    14    15   ar
    15    15    16   ar
    16    16    17   ar
    17    17    18   ar
    18    18    19   ar
    19    19    20   ar
    20    20    21   ar
    21    21    22   ar
    22    13    23   ar
    23    23    24   ar
    24     9    25   am
    25    25    26    2
    26    25    27    1
    27    27    28    1
    28    28    29    1
    29    29    30    1
    30    30    31    1
    31    31    32    1
    32    32    33   ar
    33    33    34   ar
    34    34    35   ar
    35    35    36   ar
    36    36    37   ar
    37    37    38    1
    38    30    39    1
    39    39    40    1
    40     5    41   ar
    41    41    42   ar
    42    42    43   ar
    43    43     3   ar
    44    27     6    1
    45    37    32   ar
    46    24    10   ar
    47    40    27    1
    48    22    14   ar
    49    21    17   ar
    50     1    44    1
    51     1    45    1
    52     1    46    1
    53     4    47    1
    54    11    48    1
    55    12    49    1
    56    15    50    1
    57    16    51    1
    58    18    52    1
    59    20    53    1
    60    22    54    1
    61    23    55    1
    62    24    56    1
    63    28    57    1
    64    28    58    1
    65    29    59    1
    66    29    60    1
    67    31    61    1
    68    31    62    1
    69    34    63    1
    70    35    64    1
    71    36    65    1
    72    38    66    1
    73    38    67    1
    74    38    68    1
    75    39    69    1
    76    39    70    1
    77    40    71    1
    78    40    72    1
    79    42    73    1
