
     RDKit          3D

 73 79  0  0  0  0  0  0  0  0999 V2000
   -1.9974    7.4434   -3.1404 C   0  0  0  0  0  0  0  0  0  0  0  0
   -1.5014    6.1347   -3.0418 O   0  0  0  0  0  0  0  0  0  0  0  0
   -1.5205    5.4810   -1.8111 C   0  0  0  0  0  0  0  0  0  0  0  0
   -1.0381    4.1925   -1.6854 C   0  0  0  0  0  0  0  0  0  0  0  0
   -1.0508    3.5342   -0.4743 C   0  0  0  0  0  0  0  0  0  0  0  0
   -0.5702    2.2144   -0.2770 N   0  0  0  0  0  0  0  0  0  0  0  0
    0.8011    1.9160    0.0777 C   0  0  0  0  0  0  0  0  0  0  0  0
    1.5967    2.7893    0.5577 O   0  0  0  0  0  0  0  0  0  0  0  0
    1.0880    0.5536   -0.1888 N   0  0  0  0  0  0  0  0  0  0  0  0
    2.3164   -0.1311    0.0133 C   0  0  0  0  0  0  0  0  0  0  0  0
    2.4146   -1.4797   -0.2643 C   0  0  0  0  0  0  0  0  0  0  0  0
    3.6131   -2.1785   -0.0828 C   0  0  0  0  0  0  0  0  0  0  0  0
    4.7366   -1.5514    0.3779 C   0  0  0  0  0  0  0  0  0  0  0  0
    5.9957   -2.2285    0.5803 C   0  0  0  0  0  0  0  0  0  0  0  0
    6.3739   -3.2859   -0.2097 C   0  0  0  0  0  0  0  0  0  0  0  0
    7.5897   -3.9386   -0.0164 C   0  0  0  0  0  0  0  0  0  0  0  0
    8.4246   -3.5091    0.9896 C   0  0  0  0  0  0  0  0  0  0  0  0
    9.6387   -3.9213    1.4204 N   0  0  0  0  0  0  0  0  0  0  0  0
   10.0242   -3.1686    2.4361 N   0  0  0  0  0  0  0  0  0  0  0  0
    9.0917   -2.2401    2.7139 C   0  0  0  0  0  0  0  0  0  0  0  0
    8.0664   -2.4372    1.8078 C   0  0  0  0  0  0  0  0  0  0  0  0
    6.8363   -1.8088    1.5805 C   0  0  0  0  0  0  0  0  0  0  0  0
    4.6279   -0.2060    0.6520 C   0  0  0  0  0  0  0  0  0  0  0  0
    3.4318    0.4899    0.4705 C   0  0  0  0  0  0  0  0  0  0  0  0
   -0.1341    0.0234   -0.7135 C   0  0  0  0  0  0  0  0  0  0  0  0
   -0.2768   -1.0182   -1.3506 O   0  0  0  0  0  0  0  0  0  0  0  0
   -1.2413    0.9475   -0.3641 C   0  0  0  0  0  0  0  0  0  0  0  0
   -1.8865    0.6696    0.9498 C   0  0  0  0  0  0  0  0  0  0  0  0
   -2.7442   -0.5644    0.8502 C   0  0  0  0  0  0  0  0  0  0  0  0
   -2.7632   -1.1988   -0.3825 N   0  0  0  0  0  0  0  0  0  0  0  0
   -3.6227   -2.3316   -0.4658 C   0  0  0  0  0  0  0  0  0  0  0  0
   -5.0434   -2.1323   -0.2148 C   0  0  0  0  0  0  0  0  0  0  0  0
   -5.8515   -1.8476   -1.2904 N   0  0  0  0  0  0  0  0  0  0  0  0
   -7.1505   -1.5998   -1.1937 C   0  0  0  0  0  0  0  0  0  0  0  0
   -7.7617   -1.6190    0.0328 C   0  0  0  0  0  0  0  0  0  0  0  0
   -6.9874   -1.9020    1.1439 C   0  0  0  0  0  0  0  0  0  0  0  0
   -5.6216   -2.1602    1.0141 C   0  0  0  0  0  0  0  0  0  0  0  0
   -4.8966   -2.4982    2.2267 C   0  0  0  0  0  0  0  0  0  0  0  0
   -2.9430   -0.3768   -1.5449 C   0  0  0  0  0  0  0  0  0  0  0  0
   -2.3319    0.9905   -1.4090 C   0  0  0  0  0  0  0  0  0  0  0  0
   -1.5634    4.2206    0.5893 N   0  0  0  0  0  0  0  0  0  0  0  0
   -2.0280    5.4659    0.4601 C   0  0  0  0  0  0  0  0  0  0  0  0
   -2.0138    6.1038   -0.7213 N   0  0  0  0  0  0  0  0  0  0  0  0
   -2.3492    7.6824   -4.1471 H   0  0  0  0  0  0  0  0  0  0  0  0
   -1.2077    8.1974   -2.8517 H   0  0  0  0  0  0  0  0  0  0  0  0
   -2.8433    7.6395   -2.4438 H   0  0  0  0  0  0  0  0  0  0  0  0
   -0.6334    3.6712   -2.5634 H   0  0  0  0  0  0  0  0  0  0  0  0
    1.6078   -2.0745   -0.6251 H   0  0  0  0  0  0  0  0  0  0  0  0
    3.6836   -3.2349   -0.3022 H   0  0  0  0  0  0  0  0  0  0  0  0
    5.7561   -3.6624   -1.0123 H   0  0  0  0  0  0  0  0  0  0  0  0
    7.9188   -4.7722   -0.6180 H   0  0  0  0  0  0  0  0  0  0  0  0
   10.1579   -4.7026    1.0030 H   0  0  0  0  0  0  0  0  0  0  0  0
    9.0934   -1.4691    3.4815 H   0  0  0  0  0  0  0  0  0  0  0  0
    6.6166   -0.9803    2.2526 H   0  0  0  0  0  0  0  0  0  0  0  0
    5.4869    0.3161    1.0143 H   0  0  0  0  0  0  0  0  0  0  0  0
    3.4555    1.5407    0.7141 H   0  0  0  0  0  0  0  0  0  0  0  0
   -2.4804    1.5643    1.2216 H   0  0  0  0  0  0  0  0  0  0  0  0
   -1.1154    0.4881    1.7304 H   0  0  0  0  0  0  0  0  0  0  0  0
   -3.7902   -0.2007    1.0777 H   0  0  0  0  0  0  0  0  0  0  0  0
   -2.4598   -1.2247    1.6902 H   0  0  0  0  0  0  0  0  0  0  0  0
   -3.5604   -2.8220   -1.4952 H   0  0  0  0  0  0  0  0  0  0  0  0
   -3.2057   -3.1845    0.1794 H   0  0  0  0  0  0  0  0  0  0  0  0
   -7.7295   -1.3810   -2.0931 H   0  0  0  0  0  0  0  0  0  0  0  0
   -8.8132   -1.4201    0.1327 H   0  0  0  0  0  0  0  0  0  0  0  0
   -7.4653   -1.9179    2.1125 H   0  0  0  0  0  0  0  0  0  0  0  0
   -3.9565   -3.0613    2.0716 H   0  0  0  0  0  0  0  0  0  0  0  0
   -5.5382   -3.1715    2.8666 H   0  0  0  0  0  0  0  0  0  0  0  0
   -4.7530   -1.5841    2.8291 H   0  0  0  0  0  0  0  0  0  0  0  0
   -4.0349   -0.2332   -1.6842 H   0  0  0  0  0  0  0  0  0  0  0  0
   -2.5731   -0.8670   -2.4681 H   0  0  0  0  0  0  0  0  0  0  0  0
   -3.0471    1.7651   -1.0989 H   0  0  0  0  0  0  0  0  0  0  0  0
   -1.9210    1.2823   -2.3956 H   0  0  0  0  0  0  0  0  0  0  0  0
   -2.4267    5.9804    1.3198 H   0  0  0  0  0  0  0  0  0  0  0  0
  1  2  1  0
  2  3  1  0
  3  4  2  0
  4  5  1  0
  5  6  1  0
  6  7  1  0
  7  8  2  0
  7  9  1  0
  9 10  1  0
 10 11  2  0
 11 12  1  0
 12 13  2  0
 13 14  1  0
 14 15  2  0
 15 16  1  0
 16 17  2  0
 17 18  1  0
 18 19  1  0
 19 20  2  0
 20 21  1  0
 21 22  2  0
 13 23  1  0
 23 24  2  0
  9 25  1  0
 25 26  2  0
 25 27  1  0
 27 28  1  0
 28 29  1  0
 29 30  1  0
 30 31  1  0
 31 32  1  0
 32 33  2  0
 33 34  1  0
 34 35  2  0
 35 36  1  0
 36 37  2  0
 37 38  1  0
 30 39  1  0
 39 40  1  0
  5 41  2  0
 41 42  1  0
 42 43  2  0
 43  3  1  0
 27  6  1  0
 37 32  1  0
 24 10  1  0
 40 27  1  0
 22 14  1  0
 21 17  1  0
  1 44  1  0
  1 45  1  0
  1 46  1  0
  4 47  1  0
 11 48  1  0
 12 49  1  0
 15 50  1  0
 16 51  1  0
 18 52  1  0
 20 53  1  0
 22 54  1  0
 23 55  1  0
 24 56  1  0
 28 57  1  0
 28 58  1  0
 29 59  1  0
 29 60  1  0
 31 61  1  0
 31 62  1  0
 34 63  1  0
 35 64  1  0
 36 65  1  0
 38 66  1  0
 38 67  1  0
 38 68  1  0
 39 69  1  0
 39 70  1  0
 40 71  1  0
 40 72  1  0
 42 73  1  0
M  END
$$$$
