@<TRIPOS>MOLECULE
*****
 69 74 0 0 0
SMALL
GASTEIGER

@<TRIPOS>ATOM
      1 C           2.1007   -4.0550    0.7686 C.3     1  UNL1       -0.0391
      2 C           1.1222   -2.9707    0.4866 C.ar    1  UNL1       -0.0427
      3 C          -0.2045   -3.2560    0.6480 C.ar    1  UNL1       -0.0575
      4 C          -1.1994   -2.3206    0.4210 C.ar    1  UNL1       -0.0493
      5 C          -0.8784   -1.0584    0.0207 C.ar    1  UNL1        0.0376
      6 C          -1.8824   -0.0271   -0.2325 C.2     1  UNL1        0.2483
      7 O          -1.4750    1.1031   -0.6184 O.2     1  UNL1       -0.2699
      8 N          -3.2526   -0.2860   -0.0522 N.am    1  UNL1       -0.2814
      9 C          -4.2881    0.6295   -0.2674 C.ar    1  UNL1        0.0354
     10 C          -4.1095    1.9075   -0.6971 C.ar    1  UNL1       -0.0404
     11 C          -5.1931    2.7807   -0.8923 C.ar    1  UNL1       -0.0583
     12 C          -6.4717    2.3567   -0.6501 C.ar    1  UNL1       -0.0405
     13 C          -6.6678    1.0627   -0.2138 C.ar    1  UNL1        0.0316
     14 N          -8.0175    0.6587    0.0321 N.pl3   1  UNL1       -0.3255
     15 C          -9.1191    1.5934   -0.0732 C.3     1  UNL1        0.0357
     16 C         -10.2687    0.9974    0.7484 C.3     1  UNL1        0.0634
     17 O         -10.7243   -0.1885    0.2267 O.3     1  UNL1       -0.3767
     18 C          -9.7151   -1.0089   -0.2448 C.3     1  UNL1        0.0634
     19 C          -8.3696   -0.7076    0.3979 C.3     1  UNL1        0.0357
     20 C          -5.6076    0.2115   -0.0239 C.ar    1  UNL1       -0.0194
     21 C           0.4658   -0.7569   -0.1467 C.ar    1  UNL1       -0.0416
     22 C           1.4509   -1.7073    0.0852 C.ar    1  UNL1       -0.0141
     23 C           2.8639   -1.3729   -0.1038 C.ar    1  UNL1       -0.0140
     24 C           3.3798   -0.2088    0.4569 C.ar    1  UNL1       -0.0532
     25 C           4.7255    0.1324    0.2791 C.ar    1  UNL1       -0.0486
     26 C           5.5027   -0.7278   -0.4666 C.ar    1  UNL1        0.0446
     27 C           6.8377   -0.6451   -0.7990 C.ar    1  UNL1        0.0945
     28 C           7.7986    0.3867   -0.4271 C.3     1  UNL1        0.0075
     29 C           7.7179    1.6504   -1.2584 C.3     1  UNL1       -0.0320
     30 C           8.9483    2.4736   -0.9177 C.3     1  UNL1       -0.0035
     31 N           8.8769    2.9162    0.4562 N.3     1  UNL1       -0.3159
     32 C           7.8154    2.2493    1.1877 C.3     1  UNL1       -0.0035
     33 C           7.8815    0.7453    1.0122 C.3     1  UNL1       -0.0320
     34 N           7.0830   -1.7631   -1.5513 N.ar    1  UNL1       -0.0818
     35 O           6.0096   -2.4665   -1.6719 O.2     1  UNL1       -0.3544
     36 C           5.0101   -1.8822   -1.0287 C.ar    1  UNL1        0.1681
     37 C           3.6843   -2.1957   -0.8398 C.ar    1  UNL1       -0.0083
     38 H           1.7215   -4.5747    1.6879 H       1  UNL1        0.0278
     39 H           3.1071   -3.6875    1.0107 H       1  UNL1        0.0278
     40 H           2.1175   -4.7648   -0.0785 H       1  UNL1        0.0278
     41 H          -0.4906   -4.2629    0.9690 H       1  UNL1        0.0621
     42 H          -2.2114   -2.6558    0.5792 H       1  UNL1        0.0625
     43 H          -3.5091   -1.2808    0.2812 H       1  UNL1        0.1551
     44 H          -3.1459    2.3337   -0.9152 H       1  UNL1        0.0636
     45 H          -5.0187    3.7751   -1.2294 H       1  UNL1        0.0619
     46 H          -7.3263    3.0336   -0.8016 H       1  UNL1        0.0636
     47 H          -8.8964    2.5773    0.3923 H       1  UNL1        0.0486
     48 H          -9.4022    1.6826   -1.1428 H       1  UNL1        0.0486
     49 H          -9.8089    0.7814    1.7532 H       1  UNL1        0.0575
     50 H         -11.0980    1.7111    0.8493 H       1  UNL1        0.0575
     51 H         -10.0225   -2.0606   -0.0018 H       1  UNL1        0.0575
     52 H          -9.6228   -0.9450   -1.3294 H       1  UNL1        0.0575
     53 H          -7.6507   -1.3998   -0.1230 H       1  UNL1        0.0486
     54 H          -8.3858   -0.8781    1.4774 H       1  UNL1        0.0486
     55 H          -5.7715   -0.7936    0.3175 H       1  UNL1        0.0655
     56 H           0.7984    0.2345   -0.4658 H       1  UNL1        0.0631
     57 H           2.7614    0.4598    1.0406 H       1  UNL1        0.0624
     58 H           5.0919    1.0500    0.7251 H       1  UNL1        0.0625
     59 H           8.8289   -0.0349   -0.6909 H       1  UNL1        0.0366
     60 H           7.7115    1.4257   -2.3480 H       1  UNL1        0.0284
     61 H           6.8406    2.2656   -1.0499 H       1  UNL1        0.0284
     62 H           9.0248    3.3022   -1.6314 H       1  UNL1        0.0424
     63 H           9.8175    1.8070   -1.0050 H       1  UNL1        0.0424
     64 H           8.5930    3.9342    0.4173 H       1  UNL1        0.1219
     65 H           7.9862    2.4568    2.2645 H       1  UNL1        0.0424
     66 H           6.8210    2.6682    0.9476 H       1  UNL1        0.0424
     67 H           7.1114    0.2978    1.6653 H       1  UNL1        0.0284
     68 H           8.8684    0.4155    1.4720 H       1  UNL1        0.0284
     69 H           3.3294   -3.1233   -1.3069 H       1  UNL1        0.0661
@<TRIPOS>BOND
     1     1     2    1
     2     2     3   ar
     3     3     4   ar
     4     4     5   ar
     5     5     6    1
     6     6     7    2
     7     6     8   am
     8     8     9    1
     9     9    10   ar
    10    10    11   ar
    11    11    12   ar
    12    12    13   ar
    13    13    14    1
    14    14    15    1
    15    15    16    1
    16    16    17    1
    17    17    18    1
    18    18    19    1
    19    13    20   ar
    20     5    21   ar
    21    21    22   ar
    22    22    23    1
    23    23    24   ar
    24    24    25   ar
    25    25    26   ar
    26    26    27   ar
    27    27    28    1
    28    28    29    1
    29    29    30    1
    30    30    31    1
    31    31    32    1
    32    32    33    1
    33    27    34   ar
    34    34    35   ar
    35    35    36   ar
    36    36    37   ar
    37    22     2   ar
    38    37    23   ar
    39    20     9   ar
    40    36    26   ar
    41    19    14    1
    42    33    28    1
    43     1    38    1
    44     1    39    1
    45     1    40    1
    46     3    41    1
    47     4    42    1
    48     8    43    1
    49    10    44    1
    50    11    45    1
    51    12    46    1
    52    15    47    1
    53    15    48    1
    54    16    49    1
    55    16    50    1
    56    18    51    1
    57    18    52    1
    58    19    53    1
    59    19    54    1
    60    20    55    1
    61    21    56    1
    62    24    57    1
    63    25    58    1
    64    28    59    1
    65    29    60    1
    66    29    61    1
    67    30    62    1
    68    30    63    1
    69    31    64    1
    70    32    65    1
    71    32    66    1
    72    33    67    1
    73    33    68    1
    74    37    69    1
