
     RDKit          3D

 69 74  0  0  0  0  0  0  0  0999 V2000
    2.1007   -4.0550    0.7686 C   0  0  0  0  0  0  0  0  0  0  0  0
    1.1222   -2.9707    0.4866 C   0  0  0  0  0  0  0  0  0  0  0  0
   -0.2045   -3.2560    0.6480 C   0  0  0  0  0  0  0  0  0  0  0  0
   -1.1994   -2.3206    0.4210 C   0  0  0  0  0  0  0  0  0  0  0  0
   -0.8784   -1.0584    0.0207 C   0  0  0  0  0  0  0  0  0  0  0  0
   -1.8824   -0.0271   -0.2325 C   0  0  0  0  0  0  0  0  0  0  0  0
   -1.4750    1.1031   -0.6184 O   0  0  0  0  0  0  0  0  0  0  0  0
   -3.2526   -0.2860   -0.0522 N   0  0  0  0  0  0  0  0  0  0  0  0
   -4.2881    0.6295   -0.2674 C   0  0  0  0  0  0  0  0  0  0  0  0
   -4.1095    1.9075   -0.6971 C   0  0  0  0  0  0  0  0  0  0  0  0
   -5.1931    2.7807   -0.8923 C   0  0  0  0  0  0  0  0  0  0  0  0
   -6.4717    2.3567   -0.6501 C   0  0  0  0  0  0  0  0  0  0  0  0
   -6.6678    1.0627   -0.2138 C   0  0  0  0  0  0  0  0  0  0  0  0
   -8.0175    0.6587    0.0321 N   0  0  0  0  0  0  0  0  0  0  0  0
   -9.1191    1.5934   -0.0732 C   0  0  0  0  0  0  0  0  0  0  0  0
  -10.2687    0.9974    0.7484 C   0  0  0  0  0  0  0  0  0  0  0  0
  -10.7243   -0.1885    0.2267 O   0  0  0  0  0  0  0  0  0  0  0  0
   -9.7151   -1.0089   -0.2448 C   0  0  0  0  0  0  0  0  0  0  0  0
   -8.3696   -0.7076    0.3979 C   0  0  0  0  0  0  0  0  0  0  0  0
   -5.6076    0.2115   -0.0239 C   0  0  0  0  0  0  0  0  0  0  0  0
    0.4658   -0.7569   -0.1467 C   0  0  0  0  0  0  0  0  0  0  0  0
    1.4509   -1.7073    0.0852 C   0  0  0  0  0  0  0  0  0  0  0  0
    2.8639   -1.3729   -0.1038 C   0  0  0  0  0  0  0  0  0  0  0  0
    3.3798   -0.2088    0.4569 C   0  0  0  0  0  0  0  0  0  0  0  0
    4.7255    0.1324    0.2791 C   0  0  0  0  0  0  0  0  0  0  0  0
    5.5027   -0.7278   -0.4666 C   0  0  0  0  0  0  0  0  0  0  0  0
    6.8377   -0.6451   -0.7990 C   0  0  0  0  0  0  0  0  0  0  0  0
    7.7986    0.3867   -0.4271 C   0  0  0  0  0  0  0  0  0  0  0  0
    7.7179    1.6504   -1.2584 C   0  0  0  0  0  0  0  0  0  0  0  0
    8.9483    2.4736   -0.9177 C   0  0  0  0  0  0  0  0  0  0  0  0
    8.8769    2.9162    0.4562 N   0  0  0  0  0  0  0  0  0  0  0  0
    7.8154    2.2493    1.1877 C   0  0  0  0  0  0  0  0  0  0  0  0
    7.8815    0.7453    1.0122 C   0  0  0  0  0  0  0  0  0  0  0  0
    7.0830   -1.7631   -1.5513 N   0  0  0  0  0  0  0  0  0  0  0  0
    6.0096   -2.4665   -1.6719 O   0  0  0  0  0  0  0  0  0  0  0  0
    5.0101   -1.8822   -1.0287 C   0  0  0  0  0  0  0  0  0  0  0  0
    3.6843   -2.1957   -0.8398 C   0  0  0  0  0  0  0  0  0  0  0  0
    1.7215   -4.5747    1.6879 H   0  0  0  0  0  0  0  0  0  0  0  0
    3.1071   -3.6875    1.0107 H   0  0  0  0  0  0  0  0  0  0  0  0
    2.1175   -4.7648   -0.0785 H   0  0  0  0  0  0  0  0  0  0  0  0
   -0.4906   -4.2629    0.9690 H   0  0  0  0  0  0  0  0  0  0  0  0
   -2.2114   -2.6558    0.5792 H   0  0  0  0  0  0  0  0  0  0  0  0
   -3.5091   -1.2808    0.2812 H   0  0  0  0  0  0  0  0  0  0  0  0
   -3.1459    2.3337   -0.9152 H   0  0  0  0  0  0  0  0  0  0  0  0
   -5.0187    3.7751   -1.2294 H   0  0  0  0  0  0  0  0  0  0  0  0
   -7.3263    3.0336   -0.8016 H   0  0  0  0  0  0  0  0  0  0  0  0
   -8.8964    2.5773    0.3923 H   0  0  0  0  0  0  0  0  0  0  0  0
   -9.4022    1.6826   -1.1428 H   0  0  0  0  0  0  0  0  0  0  0  0
   -9.8089    0.7814    1.7532 H   0  0  0  0  0  0  0  0  0  0  0  0
  -11.0980    1.7111    0.8493 H   0  0  0  0  0  0  0  0  0  0  0  0
  -10.0225   -2.0606   -0.0018 H   0  0  0  0  0  0  0  0  0  0  0  0
   -9.6228   -0.9450   -1.3294 H   0  0  0  0  0  0  0  0  0  0  0  0
   -7.6507   -1.3998   -0.1230 H   0  0  0  0  0  0  0  0  0  0  0  0
   -8.3858   -0.8781    1.4774 H   0  0  0  0  0  0  0  0  0  0  0  0
   -5.7715   -0.7936    0.3175 H   0  0  0  0  0  0  0  0  0  0  0  0
    0.7984    0.2345   -0.4658 H   0  0  0  0  0  0  0  0  0  0  0  0
    2.7614    0.4598    1.0406 H   0  0  0  0  0  0  0  0  0  0  0  0
    5.0919    1.0500    0.7251 H   0  0  0  0  0  0  0  0  0  0  0  0
    8.8289   -0.0349   -0.6909 H   0  0  0  0  0  0  0  0  0  0  0  0
    7.7115    1.4257   -2.3480 H   0  0  0  0  0  0  0  0  0  0  0  0
    6.8406    2.2656   -1.0499 H   0  0  0  0  0  0  0  0  0  0  0  0
    9.0248    3.3022   -1.6314 H   0  0  0  0  0  0  0  0  0  0  0  0
    9.8175    1.8070   -1.0050 H   0  0  0  0  0  0  0  0  0  0  0  0
    8.5930    3.9342    0.4173 H   0  0  0  0  0  0  0  0  0  0  0  0
    7.9862    2.4568    2.2645 H   0  0  0  0  0  0  0  0  0  0  0  0
    6.8210    2.6682    0.9476 H   0  0  0  0  0  0  0  0  0  0  0  0
    7.1114    0.2978    1.6653 H   0  0  0  0  0  0  0  0  0  0  0  0
    8.8684    0.4155    1.4720 H   0  0  0  0  0  0  0  0  0  0  0  0
    3.3294   -3.1233   -1.3069 H   0  0  0  0  0  0  0  0  0  0  0  0
  1  2  1  0
  2  3  2  0
  3  4  1  0
  4  5  2  0
  5  6  1  0
  6  7  2  0
  6  8  1  0
  8  9  1  0
  9 10  2  0
 10 11  1  0
 11 12  2  0
 12 13  1  0
 13 14  1  0
 14 15  1  0
 15 16  1  0
 16 17  1  0
 17 18  1  0
 18 19  1  0
 13 20  2  0
  5 21  1  0
 21 22  2  0
 22 23  1  0
 23 24  2  0
 24 25  1  0
 25 26  2  0
 26 27  1  0
 27 28  1  0
 28 29  1  0
 29 30  1  0
 30 31  1  0
 31 32  1  0
 32 33  1  0
 27 34  2  0
 34 35  1  0
 35 36  1  0
 36 37  2  0
 22  2  1  0
 37 23  1  0
 20  9  1  0
 36 26  1  0
 19 14  1  0
 33 28  1  0
  1 38  1  0
  1 39  1  0
  1 40  1  0
  3 41  1  0
  4 42  1  0
  8 43  1  0
 10 44  1  0
 11 45  1  0
 12 46  1  0
 15 47  1  0
 15 48  1  0
 16 49  1  0
 16 50  1  0
 18 51  1  0
 18 52  1  0
 19 53  1  0
 19 54  1  0
 20 55  1  0
 21 56  1  0
 24 57  1  0
 25 58  1  0
 28 59  1  0
 29 60  1  0
 29 61  1  0
 30 62  1  0
 30 63  1  0
 31 64  1  0
 32 65  1  0
 32 66  1  0
 33 67  1  0
 33 68  1  0
 37 69  1  0
M  END
$$$$
