@<TRIPOS>MOLECULE
*****
 53 56 0 0 0
SMALL
GASTEIGER

@<TRIPOS>ATOM
      1 C           5.1079    0.1510   -1.3339 C.3     1  UNL1       -0.0058
      2 C           4.1596   -0.9725   -1.2817 C.2     1  UNL1        0.1339
      3 O           4.3333   -1.8807   -2.1218 O.2     1  UNL1       -0.2974
      4 C           3.0504   -1.1447   -0.3677 C.3     1  UNL1        0.0229
      5 C           3.3765   -1.1462    1.1040 C.3     1  UNL1       -0.0427
      6 C           2.1056   -0.6651    1.8207 C.3     1  UNL1       -0.0488
      7 C           1.1248   -0.6958    0.7238 C.3     1  UNL1       -0.0319
      8 C          -0.1082    0.0829    0.8435 C.3     1  UNL1       -0.0338
      9 C          -0.8457   -0.1208    2.1504 C.3     1  UNL1       -0.0459
     10 C          -1.9270    0.9683    2.1475 C.3     1  UNL1       -0.0305
     11 C          -2.8323    0.5854    1.0326 C.2     1  UNL1       -0.0601
     12 C          -4.1341    0.6178    1.2798 C.2     1  UNL1       -0.0194
     13 C          -5.1314    0.2675    0.2800 C.2     1  UNL1        0.1561
     14 O          -6.3094    0.6686    0.3520 O.2     1  UNL1       -0.2927
     15 C          -4.7064   -0.5838   -0.8324 C.3     1  UNL1        0.0107
     16 C          -3.2501   -0.9504   -0.7774 C.3     1  UNL1       -0.0367
     17 C          -2.3736    0.1856   -0.2947 C.3     1  UNL1       -0.0072
     18 C          -2.6375    1.3819   -1.2199 C.3     1  UNL1       -0.0556
     19 C          -0.9572   -0.2684   -0.3703 C.3     1  UNL1       -0.0288
     20 C          -0.2293    0.3434   -1.5760 C.3     1  UNL1       -0.0486
     21 C           1.1809   -0.0961   -1.6771 C.3     1  UNL1       -0.0464
     22 C           1.9653   -0.0897   -0.4190 C.3     1  UNL1       -0.0195
     23 C           2.5571    1.2151   -0.0315 C.3     1  UNL1       -0.0587
     24 H           5.6702    0.3115   -0.3892 H       1  UNL1        0.0306
     25 H           5.9230   -0.1147   -2.0717 H       1  UNL1        0.0306
     26 H           4.6889    1.0916   -1.7469 H       1  UNL1        0.0306
     27 H           2.5099   -2.1157   -0.6120 H       1  UNL1        0.0383
     28 H           4.1905   -0.4978    1.4035 H       1  UNL1        0.0272
     29 H           3.5415   -2.2156    1.3909 H       1  UNL1        0.0272
     30 H           1.8853   -1.3609    2.6599 H       1  UNL1        0.0268
     31 H           2.2594    0.3571    2.1978 H       1  UNL1        0.0268
     32 H           0.8882   -1.7308    0.4055 H       1  UNL1        0.0309
     33 H           0.0388    1.2002    0.7626 H       1  UNL1        0.0307
     34 H          -1.3393   -1.0994    2.1173 H       1  UNL1        0.0271
     35 H          -0.1269    0.0078    2.9565 H       1  UNL1        0.0271
     36 H          -2.3991    0.9344    3.1218 H       1  UNL1        0.0310
     37 H          -1.4617    1.9333    1.8776 H       1  UNL1        0.0310
     38 H          -4.4897    0.9200    2.2760 H       1  UNL1        0.0652
     39 H          -4.9269   -0.1361   -1.8267 H       1  UNL1        0.0345
     40 H          -5.2885   -1.5285   -0.7803 H       1  UNL1        0.0345
     41 H          -2.9046   -1.1939   -1.8094 H       1  UNL1        0.0278
     42 H          -3.0657   -1.8607   -0.1617 H       1  UNL1        0.0278
     43 H          -2.1737    2.2669   -0.7425 H       1  UNL1        0.0238
     44 H          -3.7264    1.5809   -1.2526 H       1  UNL1        0.0238
     45 H          -2.3088    1.1999   -2.2417 H       1  UNL1        0.0238
     46 H          -0.8765   -1.3653   -0.5262 H       1  UNL1        0.0312
     47 H          -0.7597   -0.1053   -2.4688 H       1  UNL1        0.0268
     48 H          -0.3835    1.4265   -1.6073 H       1  UNL1        0.0268
     49 H           1.2541   -1.1226   -2.1430 H       1  UNL1        0.0271
     50 H           1.6941    0.5728   -2.4070 H       1  UNL1        0.0271
     51 H           1.9857    1.7648    0.7448 H       1  UNL1        0.0235
     52 H           3.5852    1.1462    0.3724 H       1  UNL1        0.0235
     53 H           2.5968    1.8803   -0.9247 H       1  UNL1        0.0235
@<TRIPOS>BOND
     1     1     2    1
     2     2     3    2
     3     2     4    1
     4     4     5    1
     5     5     6    1
     6     6     7    1
     7     7     8    1
     8     8     9    1
     9     9    10    1
    10    10    11    1
    11    11    12    2
    12    12    13    1
    13    13    14    2
    14    13    15    1
    15    15    16    1
    16    16    17    1
    17    17    18    1
    18    17    19    1
    19    19    20    1
    20    20    21    1
    21    21    22    1
    22    22    23    1
    23    22     4    1
    24    22     7    1
    25    19     8    1
    26    17    11    1
    27     1    24    1
    28     1    25    1
    29     1    26    1
    30     4    27    1
    31     5    28    1
    32     5    29    1
    33     6    30    1
    34     6    31    1
    35     7    32    1
    36     8    33    1
    37     9    34    1
    38     9    35    1
    39    10    36    1
    40    10    37    1
    41    12    38    1
    42    15    39    1
    43    15    40    1
    44    16    41    1
    45    16    42    1
    46    18    43    1
    47    18    44    1
    48    18    45    1
    49    19    46    1
    50    20    47    1
    51    20    48    1
    52    21    49    1
    53    21    50    1
    54    23    51    1
    55    23    52    1
    56    23    53    1
