@<TRIPOS>MOLECULE
*****
 72 77 0 0 0
SMALL
GASTEIGER

@<TRIPOS>ATOM
      1 O           8.5629    3.7674    2.4744 O.2     1  UNL1       -0.2399
      2 C           8.5354    3.3030    1.3261 C.2     1  UNL1        0.3926
      3 O           8.8152    4.0974    0.2272 O.3     1  UNL1       -0.4740
      4 C           8.2026    1.8988    1.1319 C.2     1  UNL1        0.3254
      5 O           7.9459    1.1638    2.1195 O.2     1  UNL1       -0.2627
      6 N           8.1560    1.3148   -0.1597 N.am    1  UNL1       -0.2761
      7 C           7.8238   -0.0610   -0.2691 C.ar    1  UNL1        0.0346
      8 C           8.7902   -1.0223   -0.2437 C.ar    1  UNL1       -0.0385
      9 C           8.4015   -2.3369   -0.3516 C.ar    1  UNL1       -0.0360
     10 C           7.0930   -2.7040   -0.4819 C.ar    1  UNL1        0.0468
     11 N           6.4591   -3.8768   -0.6171 N.ar    1  UNL1       -0.3604
     12 C           5.1467   -3.6958   -0.7254 C.ar    1  UNL1        0.0060
     13 C           4.9017   -2.3247   -0.6567 C.ar    1  UNL1       -0.0200
     14 C           3.5659   -1.7545   -0.7075 C.3     1  UNL1        0.0032
     15 CA          2.9512   -1.5269    0.6329 C.3     1  UNL1        0.1245
     16 N           1.6192   -0.9210    0.3841 N.am    1  UNL1       -0.2981
     17 C           0.4225   -1.6176    0.6639 C.2     1  UNL1        0.2448
     18 O           0.5869   -2.7993    1.1416 O.2     1  UNL1       -0.2702
     19 C          -0.9136   -1.0940    0.4507 C.ar    1  UNL1        0.0388
     20 C          -2.0568   -1.8085    0.7135 C.ar    1  UNL1       -0.0476
     21 C          -3.3271   -1.3126    0.5154 C.ar    1  UNL1       -0.0353
     22 C          -3.4632   -0.0394    0.0302 C.ar    1  UNL1        0.0694
     23 C          -2.3478    0.7124   -0.2470 C.ar    1  UNL1        0.0904
     24 C          -1.0688    0.1787   -0.0343 C.ar    1  UNL1       -0.0221
     25 N          -2.7553    1.9069   -0.7038 N.ar    1  UNL1       -0.2274
     26 C          -4.0794    1.8837   -0.7052 C.ar    1  UNL1        0.1451
     27 C          -4.9394    2.9795   -1.1299 C.ar    1  UNL1        0.0551
     28 C          -5.4374    4.0056   -0.3715 C.ar    1  UNL1       -0.0132
     29 C          -6.2066    4.8049   -1.2250 C.ar    1  UNL1        0.0924
     30 O          -6.1402    4.2511   -2.4001 O.2     1  UNL1       -0.4703
     31 C          -5.4113    3.1761   -2.4107 C.ar    1  UNL1        0.1023
     32 N          -4.5643    0.6980   -0.2585 N.ar    1  UNL1       -0.3204
     33 C          -5.9329    0.3153   -0.1260 C.3     1  UNL1        0.0365
     34 C          -6.3836    0.0076    1.2706 C.3     1  UNL1       -0.0320
     35 C          -7.8982    0.2619    1.3191 C.3     1  UNL1       -0.0512
     36 C          -8.5294   -0.2529    0.0436 C.3     1  UNL1       -0.0529
     37 C          -7.6546   -1.3452   -0.5818 C.3     1  UNL1       -0.0512
     38 C          -6.3425   -0.7797   -1.0860 C.3     1  UNL1       -0.0320
     39 C           3.7115   -0.7586    1.5951 C.2     1  UNL1        0.3256
     40 O           4.8062   -1.1034    2.0950 O.2     1  UNL1       -0.2489
     41 OXT         3.2157    0.4753    2.0256 O.3     1  UNL1       -0.4793
     42 C           6.1209   -1.7020   -0.5047 C.ar    1  UNL1        0.0046
     43 C           6.5027   -0.3845   -0.3977 C.ar    1  UNL1       -0.0310
     44 H           8.9506    5.0804    0.3463 H       1  UNL1        0.2956
     45 H           8.3566    1.8617   -1.0214 H       1  UNL1        0.1553
     46 H           9.8452   -0.7351   -0.1399 H       1  UNL1        0.0637
     47 H           9.1714   -3.1045   -0.3315 H       1  UNL1        0.0639
     48 H           6.9053   -4.8296   -0.6389 H       1  UNL1        0.1653
     49 H           4.3972   -4.4629   -0.8442 H       1  UNL1        0.0810
     50 H           2.8605   -2.4433   -1.2591 H       1  UNL1        0.0337
     51 H           3.5669   -0.7683   -1.2552 H       1  UNL1        0.0337
     52 HA          2.7798   -2.5603    1.0756 H       1  UNL1        0.0618
     53 H           1.5621    0.0396   -0.0055 H       1  UNL1        0.1498
     54 H          -1.9576   -2.8057    1.0929 H       1  UNL1        0.0626
     55 H          -4.2182   -1.9030    0.7329 H       1  UNL1        0.0639
     56 H          -0.2559    0.8428   -0.2807 H       1  UNL1        0.0647
     57 H          -5.2781    4.1828    0.6884 H       1  UNL1        0.0656
     58 H          -6.7239    5.6828   -0.9213 H       1  UNL1        0.1029
     59 H          -5.1992    2.5317   -3.2680 H       1  UNL1        0.1036
     60 H          -6.5611    1.2017   -0.4481 H       1  UNL1        0.0528
     61 H          -6.2747   -1.0474    1.5748 H       1  UNL1        0.0285
     62 H          -5.9281    0.7070    1.9870 H       1  UNL1        0.0285
     63 H          -8.0831    1.3562    1.3843 H       1  UNL1        0.0266
     64 H          -8.3416   -0.2083    2.2198 H       1  UNL1        0.0266
     65 H          -9.4658   -0.8022    0.3547 H       1  UNL1        0.0265
     66 H          -8.7592    0.5535   -0.6685 H       1  UNL1        0.0265
     67 H          -8.2320   -1.8376   -1.3843 H       1  UNL1        0.0266
     68 H          -7.4652   -2.0783    0.2466 H       1  UNL1        0.0266
     69 H          -6.5266   -0.3811   -2.1075 H       1  UNL1        0.0285
     70 H          -5.6286   -1.5945   -1.1724 H       1  UNL1        0.0285
     71 HXT         3.8793    1.1720    2.3724 H       1  UNL1        0.2951
     72 H           5.7398    0.3686   -0.4186 H       1  UNL1        0.0643
@<TRIPOS>BOND
     1     1     2    2
     2     2     3    1
     3     2     4    1
     4     4     5    2
     5     4     6   am
     6     6     7    1
     7     7     8   ar
     8     8     9   ar
     9     9    10   ar
    10    10    11   ar
    11    11    12   ar
    12    12    13   ar
    13    13    14    1
    14    14    15    1
    15    15    16    1
    16    16    17   am
    17    17    18    2
    18    17    19    1
    19    19    20   ar
    20    20    21   ar
    21    21    22   ar
    22    22    23   ar
    23    23    24   ar
    24    23    25   ar
    25    25    26   ar
    26    26    27    1
    27    27    28   ar
    28    28    29   ar
    29    29    30   ar
    30    30    31   ar
    31    26    32   ar
    32    32    33    1
    33    33    34    1
    34    34    35    1
    35    35    36    1
    36    36    37    1
    37    37    38    1
    38    15    39    1
    39    39    40    2
    40    39    41    1
    41    13    42   ar
    42    42    43   ar
    43    43     7   ar
    44    42    10   ar
    45    24    19   ar
    46    31    27   ar
    47    38    33    1
    48    32    22   ar
    49     3    44    1
    50     6    45    1
    51     8    46    1
    52     9    47    1
    53    11    48    1
    54    12    49    1
    55    14    50    1
    56    14    51    1
    57    15    52    1
    58    16    53    1
    59    20    54    1
    60    21    55    1
    61    24    56    1
    62    28    57    1
    63    29    58    1
    64    31    59    1
    65    33    60    1
    66    34    61    1
    67    34    62    1
    68    35    63    1
    69    35    64    1
    70    36    65    1
    71    36    66    1
    72    37    67    1
    73    37    68    1
    74    38    69    1
    75    38    70    1
    76    41    71    1
    77    43    72    1
