
     RDKit          3D

 72 77  0  0  0  0  0  0  0  0999 V2000
    8.5629    3.7674    2.4744 O   0  0  0  0  0  0  0  0  0  0  0  0
    8.5354    3.3030    1.3261 C   0  0  0  0  0  0  0  0  0  0  0  0
    8.8152    4.0974    0.2272 O   0  0  0  0  0  0  0  0  0  0  0  0
    8.2026    1.8988    1.1319 C   0  0  0  0  0  0  0  0  0  0  0  0
    7.9459    1.1638    2.1195 O   0  0  0  0  0  0  0  0  0  0  0  0
    8.1560    1.3148   -0.1597 N   0  0  0  0  0  0  0  0  0  0  0  0
    7.8238   -0.0610   -0.2691 C   0  0  0  0  0  0  0  0  0  0  0  0
    8.7902   -1.0223   -0.2437 C   0  0  0  0  0  0  0  0  0  0  0  0
    8.4015   -2.3369   -0.3516 C   0  0  0  0  0  0  0  0  0  0  0  0
    7.0930   -2.7040   -0.4819 C   0  0  0  0  0  0  0  0  0  0  0  0
    6.4591   -3.8768   -0.6171 N   0  0  0  0  0  0  0  0  0  0  0  0
    5.1467   -3.6958   -0.7254 C   0  0  0  0  0  0  0  0  0  0  0  0
    4.9017   -2.3247   -0.6567 C   0  0  0  0  0  0  0  0  0  0  0  0
    3.5659   -1.7545   -0.7075 C   0  0  0  0  0  0  0  0  0  0  0  0
    2.9512   -1.5269    0.6329 C   0  0  2  0  0  0  0  0  0  0  0  0
    1.6192   -0.9210    0.3841 N   0  0  0  0  0  0  0  0  0  0  0  0
    0.4225   -1.6176    0.6639 C   0  0  0  0  0  0  0  0  0  0  0  0
    0.5869   -2.7993    1.1416 O   0  0  0  0  0  0  0  0  0  0  0  0
   -0.9136   -1.0940    0.4507 C   0  0  0  0  0  0  0  0  0  0  0  0
   -2.0568   -1.8085    0.7135 C   0  0  0  0  0  0  0  0  0  0  0  0
   -3.3271   -1.3126    0.5154 C   0  0  0  0  0  0  0  0  0  0  0  0
   -3.4632   -0.0394    0.0302 C   0  0  0  0  0  0  0  0  0  0  0  0
   -2.3478    0.7124   -0.2470 C   0  0  0  0  0  0  0  0  0  0  0  0
   -1.0688    0.1787   -0.0343 C   0  0  0  0  0  0  0  0  0  0  0  0
   -2.7553    1.9069   -0.7038 N   0  0  0  0  0  0  0  0  0  0  0  0
   -4.0794    1.8837   -0.7052 C   0  0  0  0  0  0  0  0  0  0  0  0
   -4.9394    2.9795   -1.1299 C   0  0  0  0  0  0  0  0  0  0  0  0
   -5.4374    4.0056   -0.3715 C   0  0  0  0  0  0  0  0  0  0  0  0
   -6.2066    4.8049   -1.2250 C   0  0  0  0  0  0  0  0  0  0  0  0
   -6.1402    4.2511   -2.4001 O   0  0  0  0  0  0  0  0  0  0  0  0
   -5.4113    3.1761   -2.4107 C   0  0  0  0  0  0  0  0  0  0  0  0
   -4.5643    0.6980   -0.2585 N   0  0  0  0  0  0  0  0  0  0  0  0
   -5.9329    0.3153   -0.1260 C   0  0  0  0  0  0  0  0  0  0  0  0
   -6.3836    0.0076    1.2706 C   0  0  0  0  0  0  0  0  0  0  0  0
   -7.8982    0.2619    1.3191 C   0  0  0  0  0  0  0  0  0  0  0  0
   -8.5294   -0.2529    0.0436 C   0  0  0  0  0  0  0  0  0  0  0  0
   -7.6546   -1.3452   -0.5818 C   0  0  0  0  0  0  0  0  0  0  0  0
   -6.3425   -0.7797   -1.0860 C   0  0  0  0  0  0  0  0  0  0  0  0
    3.7115   -0.7586    1.5951 C   0  0  0  0  0  0  0  0  0  0  0  0
    4.8062   -1.1034    2.0950 O   0  0  0  0  0  0  0  0  0  0  0  0
    3.2157    0.4753    2.0256 O   0  0  0  0  0  0  0  0  0  0  0  0
    6.1209   -1.7020   -0.5047 C   0  0  0  0  0  0  0  0  0  0  0  0
    6.5027   -0.3845   -0.3977 C   0  0  0  0  0  0  0  0  0  0  0  0
    8.9506    5.0804    0.3463 H   0  0  0  0  0  0  0  0  0  0  0  0
    8.3566    1.8617   -1.0214 H   0  0  0  0  0  0  0  0  0  0  0  0
    9.8452   -0.7351   -0.1399 H   0  0  0  0  0  0  0  0  0  0  0  0
    9.1714   -3.1045   -0.3315 H   0  0  0  0  0  0  0  0  0  0  0  0
    6.9053   -4.8296   -0.6389 H   0  0  0  0  0  0  0  0  0  0  0  0
    4.3972   -4.4629   -0.8442 H   0  0  0  0  0  0  0  0  0  0  0  0
    2.8605   -2.4433   -1.2591 H   0  0  0  0  0  0  0  0  0  0  0  0
    3.5669   -0.7683   -1.2552 H   0  0  0  0  0  0  0  0  0  0  0  0
    2.7798   -2.5603    1.0756 H   0  0  0  0  0  0  0  0  0  0  0  0
    1.5621    0.0396   -0.0055 H   0  0  0  0  0  0  0  0  0  0  0  0
   -1.9576   -2.8057    1.0929 H   0  0  0  0  0  0  0  0  0  0  0  0
   -4.2182   -1.9030    0.7329 H   0  0  0  0  0  0  0  0  0  0  0  0
   -0.2559    0.8428   -0.2807 H   0  0  0  0  0  0  0  0  0  0  0  0
   -5.2781    4.1828    0.6884 H   0  0  0  0  0  0  0  0  0  0  0  0
   -6.7239    5.6828   -0.9213 H   0  0  0  0  0  0  0  0  0  0  0  0
   -5.1992    2.5317   -3.2680 H   0  0  0  0  0  0  0  0  0  0  0  0
   -6.5611    1.2017   -0.4481 H   0  0  0  0  0  0  0  0  0  0  0  0
   -6.2747   -1.0474    1.5748 H   0  0  0  0  0  0  0  0  0  0  0  0
   -5.9281    0.7070    1.9870 H   0  0  0  0  0  0  0  0  0  0  0  0
   -8.0831    1.3562    1.3843 H   0  0  0  0  0  0  0  0  0  0  0  0
   -8.3416   -0.2083    2.2198 H   0  0  0  0  0  0  0  0  0  0  0  0
   -9.4658   -0.8022    0.3547 H   0  0  0  0  0  0  0  0  0  0  0  0
   -8.7592    0.5535   -0.6685 H   0  0  0  0  0  0  0  0  0  0  0  0
   -8.2320   -1.8376   -1.3843 H   0  0  0  0  0  0  0  0  0  0  0  0
   -7.4652   -2.0783    0.2466 H   0  0  0  0  0  0  0  0  0  0  0  0
   -6.5266   -0.3811   -2.1075 H   0  0  0  0  0  0  0  0  0  0  0  0
   -5.6286   -1.5945   -1.1724 H   0  0  0  0  0  0  0  0  0  0  0  0
    3.8793    1.1720    2.3724 H   0  0  0  0  0  0  0  0  0  0  0  0
    5.7398    0.3686   -0.4186 H   0  0  0  0  0  0  0  0  0  0  0  0
  1  2  2  0
  2  3  1  0
  2  4  1  0
  4  5  2  0
  4  6  1  0
  6  7  1  0
  7  8  2  0
  8  9  1  0
  9 10  2  0
 10 11  1  0
 11 12  1  0
 12 13  2  0
 13 14  1  0
 14 15  1  0
 15 16  1  0
 16 17  1  0
 17 18  2  0
 17 19  1  0
 19 20  2  0
 20 21  1  0
 21 22  2  0
 22 23  1  0
 23 24  2  0
 23 25  1  0
 25 26  2  0
 26 27  1  0
 27 28  1  0
 28 29  2  0
 29 30  1  0
 30 31  1  0
 26 32  1  0
 32 33  1  0
 33 34  1  0
 34 35  1  0
 35 36  1  0
 36 37  1  0
 37 38  1  0
 15 39  1  0
 39 40  2  0
 39 41  1  0
 13 42  1  0
 42 43  2  0
 43  7  1  0
 42 10  1  0
 24 19  1  0
 31 27  2  0
 38 33  1  0
 32 22  1  0
  3 44  1  0
  6 45  1  0
  8 46  1  0
  9 47  1  0
 11 48  1  0
 12 49  1  0
 14 50  1  0
 14 51  1  0
 15 52  1  1
 16 53  1  0
 20 54  1  0
 21 55  1  0
 24 56  1  0
 28 57  1  0
 29 58  1  0
 31 59  1  0
 33 60  1  0
 34 61  1  0
 34 62  1  0
 35 63  1  0
 35 64  1  0
 36 65  1  0
 36 66  1  0
 37 67  1  0
 37 68  1  0
 38 69  1  0
 38 70  1  0
 41 71  1  0
 43 72  1  0
M  END
$$$$
