@<TRIPOS>MOLECULE
*****
 49 52 0 0 0
SMALL
GASTEIGER

@<TRIPOS>ATOM
      1 N          -7.7718    0.0735    1.0618 N.pl3   1  UNL1       -0.2466
      2 C          -6.4120    0.4496    1.0412 C.2     1  UNL1        0.3081
      3 N          -6.1275    1.2875    1.9804 N.2     1  UNL1       -0.0994
      4 C          -5.5430   -0.1220    0.0187 C.ar    1  UNL1        0.0650
      5 C          -4.4495    0.5523   -0.4889 C.ar    1  UNL1       -0.0422
      6 C          -3.6332   -0.0185   -1.4683 C.ar    1  UNL1       -0.0293
      7 C          -2.5181    0.8146   -1.9031 C.3     1  UNL1        0.0398
      8 N          -1.3091    0.6151   -1.1302 N.am    1  UNL1       -0.2948
      9 C          -0.1355   -0.2702   -1.2371 C.3     1  UNL1        0.0295
     10 C           1.0487    0.6105   -0.8267 C.3     1  UNL1        0.0368
     11 N           1.0385    0.7095    0.5888 N.3     1  UNL1       -0.1658
     12 C          -0.2628    0.9273    1.1233 C.3     1  UNL1        0.0971
     13 C          -1.1366    1.4435    0.0389 C.2     1  UNL1        0.2317
     14 O          -1.6839    2.5703    0.1850 O.2     1  UNL1       -0.2741
     15 S           1.9946   -0.3916    1.4487 S.O2    1  UNL1        0.0676
     16 O           1.4692   -1.7854    1.1250 O.2     1  UNL1       -0.1523
     17 O           1.7205   -0.2092    2.9147 O.2     1  UNL1       -0.1523
     18 C           3.6481   -0.3386    1.1688 C.ar    1  UNL1        0.1438
     19 C           4.7940   -0.1170    1.8600 C.ar    1  UNL1       -0.0203
     20 C           6.0361   -0.1467    1.3006 C.ar    1  UNL1       -0.0088
     21 C           6.0425   -0.4370   -0.1092 C.ar    1  UNL1        0.0226
     22 S           4.2796   -0.6466   -0.5354 S.2     1  UNL1       -0.0685
     23 C           7.2325   -0.5176   -0.8972 C.ar    1  UNL1       -0.0290
     24 C           8.4192   -0.3008   -0.2426 C.ar    1  UNL1        0.0421
     25 CL          9.8488   -0.4065   -1.2328 Cl      1  UNL1       -0.0835
     26 C           8.3621   -0.0271    1.1033 C.ar    1  UNL1       -0.0428
     27 C           7.2610    0.0583    1.8851 C.ar    1  UNL1       -0.0521
     28 C          -3.9546   -1.2778   -1.9122 C.ar    1  UNL1       -0.0570
     29 C          -5.0485   -1.9814   -1.4207 C.ar    1  UNL1       -0.0606
     30 C          -5.8348   -1.3852   -0.4515 C.ar    1  UNL1       -0.0469
     31 H          -8.7729   -0.1917    1.0644 H       1  UNL1        0.2884
     32 H          -8.7992    0.0641    0.7855 H       1  UNL1        0.2884
     33 H          -5.1785    1.6920    2.1427 H       1  UNL1        0.3633
     34 H          -4.3099    1.5380   -0.0514 H       1  UNL1        0.0629
     35 H          -2.2601    0.4920   -2.9541 H       1  UNL1        0.0514
     36 H          -2.7305    1.8812   -1.9311 H       1  UNL1        0.0514
     37 H          -0.2706   -1.0693   -0.5063 H       1  UNL1        0.0478
     38 H          -0.0365   -0.6082   -2.2749 H       1  UNL1        0.0478
     39 H           0.8411    1.6140   -1.2629 H       1  UNL1        0.0459
     40 H           1.9836    0.1880   -1.2479 H       1  UNL1        0.0459
     41 H          -0.2590    1.5991    2.0061 H       1  UNL1        0.0539
     42 H          -0.7182   -0.0391    1.4909 H       1  UNL1        0.0539
     43 H           4.5888    0.0830    2.8978 H       1  UNL1        0.0649
     44 H           7.0334   -0.7450   -1.9329 H       1  UNL1        0.0643
     45 H           9.3324    0.1395    1.5875 H       1  UNL1        0.0632
     46 H           7.3489    0.2815    2.9376 H       1  UNL1        0.0624
     47 H          -3.2957   -1.6890   -2.6746 H       1  UNL1        0.0621
     48 H          -5.1939   -2.9612   -1.8510 H       1  UNL1        0.0618
     49 H          -6.6777   -2.0013   -0.1140 H       1  UNL1        0.0626
@<TRIPOS>BOND
     1     1     2    1
     2     2     3    2
     3     2     4    1
     4     4     5   ar
     5     5     6   ar
     6     6     7    1
     7     7     8    1
     8     8     9    1
     9     9    10    1
    10    10    11    1
    11    11    12    1
    12    12    13    1
    13    13    14    2
    14    11    15    1
    15    15    16    2
    16    15    17    2
    17    15    18    1
    18    18    19   ar
    19    19    20   ar
    20    20    21   ar
    21    21    22   ar
    22    21    23   ar
    23    23    24   ar
    24    24    25    1
    25    24    26   ar
    26    26    27   ar
    27     6    28   ar
    28    28    29   ar
    29    29    30   ar
    30    30     4   ar
    31    13     8   am
    32    22    18   ar
    33    27    20   ar
    34     1    31    1
    35     1    32    1
    36     3    33    1
    37     5    34    1
    38     7    35    1
    39     7    36    1
    40     9    37    1
    41     9    38    1
    42    10    39    1
    43    10    40    1
    44    12    41    1
    45    12    42    1
    46    19    43    1
    47    23    44    1
    48    26    45    1
    49    27    46    1
    50    28    47    1
    51    29    48    1
    52    30    49    1
