
     RDKit          3D

 49 52  0  0  0  0  0  0  0  0999 V2000
   -7.7718    0.0735    1.0618 N   0  0  0  0  0  0  0  0  0  0  0  0
   -6.4120    0.4496    1.0412 C   0  0  0  0  0  0  0  0  0  0  0  0
   -6.1275    1.2875    1.9804 N   0  0  0  0  0  0  0  0  0  0  0  0
   -5.5430   -0.1220    0.0187 C   0  0  0  0  0  0  0  0  0  0  0  0
   -4.4495    0.5523   -0.4889 C   0  0  0  0  0  0  0  0  0  0  0  0
   -3.6332   -0.0185   -1.4683 C   0  0  0  0  0  0  0  0  0  0  0  0
   -2.5181    0.8146   -1.9031 C   0  0  0  0  0  0  0  0  0  0  0  0
   -1.3091    0.6151   -1.1302 N   0  0  0  0  0  0  0  0  0  0  0  0
   -0.1355   -0.2702   -1.2371 C   0  0  0  0  0  0  0  0  0  0  0  0
    1.0487    0.6105   -0.8267 C   0  0  0  0  0  0  0  0  0  0  0  0
    1.0385    0.7095    0.5888 N   0  0  0  0  0  0  0  0  0  0  0  0
   -0.2628    0.9273    1.1233 C   0  0  0  0  0  0  0  0  0  0  0  0
   -1.1366    1.4435    0.0389 C   0  0  0  0  0  0  0  0  0  0  0  0
   -1.6839    2.5703    0.1850 O   0  0  0  0  0  0  0  0  0  0  0  0
    1.9946   -0.3916    1.4487 S   0  0  0  0  0  0  0  0  0  0  0  0
    1.4692   -1.7854    1.1250 O   0  0  0  0  0  0  0  0  0  0  0  0
    1.7205   -0.2092    2.9147 O   0  0  0  0  0  0  0  0  0  0  0  0
    3.6481   -0.3386    1.1688 C   0  0  0  0  0  0  0  0  0  0  0  0
    4.7940   -0.1170    1.8600 C   0  0  0  0  0  0  0  0  0  0  0  0
    6.0361   -0.1467    1.3006 C   0  0  0  0  0  0  0  0  0  0  0  0
    6.0425   -0.4370   -0.1092 C   0  0  0  0  0  0  0  0  0  0  0  0
    4.2796   -0.6466   -0.5354 S   0  0  0  0  0  0  0  0  0  0  0  0
    7.2325   -0.5176   -0.8972 C   0  0  0  0  0  0  0  0  0  0  0  0
    8.4192   -0.3008   -0.2426 C   0  0  0  0  0  0  0  0  0  0  0  0
    9.8488   -0.4065   -1.2328 Cl  0  0  0  0  0  0  0  0  0  0  0  0
    8.3621   -0.0271    1.1033 C   0  0  0  0  0  0  0  0  0  0  0  0
    7.2610    0.0583    1.8851 C   0  0  0  0  0  0  0  0  0  0  0  0
   -3.9546   -1.2778   -1.9122 C   0  0  0  0  0  0  0  0  0  0  0  0
   -5.0485   -1.9814   -1.4207 C   0  0  0  0  0  0  0  0  0  0  0  0
   -5.8348   -1.3852   -0.4515 C   0  0  0  0  0  0  0  0  0  0  0  0
   -8.7729   -0.1917    1.0644 H   0  0  0  0  0  0  0  0  0  0  0  0
   -8.7992    0.0641    0.7855 H   0  0  0  0  0  0  0  0  0  0  0  0
   -5.1785    1.6920    2.1427 H   0  0  0  0  0  0  0  0  0  0  0  0
   -4.3099    1.5380   -0.0514 H   0  0  0  0  0  0  0  0  0  0  0  0
   -2.2601    0.4920   -2.9541 H   0  0  0  0  0  0  0  0  0  0  0  0
   -2.7305    1.8812   -1.9311 H   0  0  0  0  0  0  0  0  0  0  0  0
   -0.2706   -1.0693   -0.5063 H   0  0  0  0  0  0  0  0  0  0  0  0
   -0.0365   -0.6082   -2.2749 H   0  0  0  0  0  0  0  0  0  0  0  0
    0.8411    1.6140   -1.2629 H   0  0  0  0  0  0  0  0  0  0  0  0
    1.9836    0.1880   -1.2479 H   0  0  0  0  0  0  0  0  0  0  0  0
   -0.2590    1.5991    2.0061 H   0  0  0  0  0  0  0  0  0  0  0  0
   -0.7182   -0.0391    1.4909 H   0  0  0  0  0  0  0  0  0  0  0  0
    4.5888    0.0830    2.8978 H   0  0  0  0  0  0  0  0  0  0  0  0
    7.0334   -0.7450   -1.9329 H   0  0  0  0  0  0  0  0  0  0  0  0
    9.3324    0.1395    1.5875 H   0  0  0  0  0  0  0  0  0  0  0  0
    7.3489    0.2815    2.9376 H   0  0  0  0  0  0  0  0  0  0  0  0
   -3.2957   -1.6890   -2.6746 H   0  0  0  0  0  0  0  0  0  0  0  0
   -5.1939   -2.9612   -1.8510 H   0  0  0  0  0  0  0  0  0  0  0  0
   -6.6777   -2.0013   -0.1140 H   0  0  0  0  0  0  0  0  0  0  0  0
  1  2  1  0
  2  3  2  3
  2  4  1  0
  4  5  2  0
  5  6  1  0
  6  7  1  0
  7  8  1  0
  8  9  1  0
  9 10  1  0
 10 11  1  0
 11 12  1  0
 12 13  1  0
 13 14  2  0
 11 15  1  0
 15 16  2  0
 15 17  2  0
 15 18  1  0
 18 19  2  0
 19 20  1  0
 20 21  2  0
 21 22  1  0
 21 23  1  0
 23 24  2  0
 24 25  1  0
 24 26  1  0
 26 27  2  0
  6 28  2  0
 28 29  1  0
 29 30  2  0
 30  4  1  0
 13  8  1  0
 22 18  1  0
 27 20  1  0
  1 31  1  0
  1 32  1  0
  3 33  1  0
  5 34  1  0
  7 35  1  0
  7 36  1  0
  9 37  1  0
  9 38  1  0
 10 39  1  0
 10 40  1  0
 12 41  1  0
 12 42  1  0
 19 43  1  0
 23 44  1  0
 26 45  1  0
 27 46  1  0
 28 47  1  0
 29 48  1  0
 30 49  1  0
M  END
$$$$
