
     RDKit          3D

 41 45  0  0  0  0  0  0  0  0999 V2000
   -5.2251    2.4102    0.6812 C   0  0  0  0  0  0  0  0  0  0  0  0
   -4.3103    1.1720    0.7144 C   0  0  2  0  0  0  0  0  0  0  0  0
   -2.9394    1.5646    0.3414 C   0  0  0  0  0  0  0  0  0  0  0  0
   -2.1157    0.6592   -0.3405 N   0  0  0  0  0  0  0  0  0  0  0  0
   -1.9213   -0.7951   -0.2469 C   0  0  0  0  0  0  0  0  0  0  0  0
   -3.0732   -1.5754   -0.2565 C   0  0  0  0  0  0  0  0  0  0  0  0
   -2.4892   -3.2408   -0.3032 S   0  0  0  0  0  0  0  0  0  0  0  0
   -0.7732   -2.8161   -0.3025 C   0  0  0  0  0  0  0  0  0  0  0  0
    0.3285   -3.6641   -0.3337 C   0  0  0  0  0  0  0  0  0  0  0  0
    1.5723   -3.1521   -0.3237 C   0  0  0  0  0  0  0  0  0  0  0  0
    1.6693   -1.7717   -0.2777 C   0  0  0  0  0  0  0  0  0  0  0  0
    2.9248   -1.2871   -0.2204 N   0  0  0  0  0  0  0  0  0  0  0  0
    3.2098    0.0164   -0.1259 C   0  0  0  0  0  0  0  0  0  0  0  0
    4.6149    0.4786   -0.0688 C   0  0  0  0  0  0  0  0  0  0  0  0
    5.6297   -0.4536   -0.1143 C   0  0  0  0  0  0  0  0  0  0  0  0
    6.9253   -0.0918   -0.0661 N   0  0  0  0  0  0  0  0  0  0  0  0
    7.2558    1.1937    0.0279 C   0  0  0  0  0  0  0  0  0  0  0  0
    6.2873    2.1134    0.0734 N   0  0  0  0  0  0  0  0  0  0  0  0
    4.9624    1.7988    0.0279 C   0  0  0  0  0  0  0  0  0  0  0  0
    2.1653    0.8819   -0.0853 C   0  0  0  0  0  0  0  0  0  0  0  0
    0.8391    0.4007   -0.1448 C   0  0  0  0  0  0  0  0  0  0  0  0
    0.5670   -0.9351   -0.2469 C   0  0  0  0  0  0  0  0  0  0  0  0
   -0.7452   -1.4508   -0.2653 C   0  0  0  0  0  0  0  0  0  0  0  0
   -4.5201   -1.2126   -0.2089 C   0  0  0  0  0  0  0  0  0  0  0  0
   -5.3247   -2.1296   -0.3891 O   0  0  0  0  0  0  0  0  0  0  0  0
   -4.9761    0.1360    0.0345 N   0  0  0  0  0  0  0  0  0  0  0  0
   -6.2522    2.0101    0.8003 H   0  0  0  0  0  0  0  0  0  0  0  0
   -5.0781    2.8717   -0.3027 H   0  0  0  0  0  0  0  0  0  0  0  0
   -4.9408    3.1309    1.4506 H   0  0  0  0  0  0  0  0  0  0  0  0
   -4.3007    0.8933    1.8129 H   0  0  0  0  0  0  0  0  0  0  0  0
   -2.3815    1.9267    1.2578 H   0  0  0  0  0  0  0  0  0  0  0  0
   -3.0155    2.4967   -0.2899 H   0  0  0  0  0  0  0  0  0  0  0  0
   -1.5069    1.0416   -1.1154 H   0  0  0  0  0  0  0  0  0  0  0  0
    0.1457   -4.7169   -0.3653 H   0  0  0  0  0  0  0  0  0  0  0  0
    2.4468   -3.7797   -0.3503 H   0  0  0  0  0  0  0  0  0  0  0  0
    5.3854   -1.4958   -0.1901 H   0  0  0  0  0  0  0  0  0  0  0  0
    8.3199    1.4619    0.0656 H   0  0  0  0  0  0  0  0  0  0  0  0
    4.2058    2.5466    0.0654 H   0  0  0  0  0  0  0  0  0  0  0  0
    2.2885    1.9458   -0.0083 H   0  0  0  0  0  0  0  0  0  0  0  0
    0.0612    1.1106   -0.0498 H   0  0  0  0  0  0  0  0  0  0  0  0
   -5.9155    0.3072   -0.3611 H   0  0  0  0  0  0  0  0  0  0  0  0
  1  2  1  0
  2  3  1  0
  3  4  1  0
  4  5  1  0
  5  6  2  0
  6  7  1  0
  7  8  1  0
  8  9  2  0
  9 10  1  0
 10 11  2  0
 11 12  1  0
 12 13  2  0
 13 14  1  0
 14 15  2  0
 15 16  1  0
 16 17  2  0
 17 18  1  0
 18 19  2  0
 13 20  1  0
 20 21  2  0
 21 22  1  0
 22 23  2  0
  6 24  1  0
 24 25  2  0
 24 26  1  0
 26  2  1  0
 23  5  1  0
 23  8  1  0
 22 11  1  0
 19 14  1  0
  1 27  1  0
  1 28  1  0
  1 29  1  0
  2 30  1  1
  3 31  1  0
  3 32  1  0
  4 33  1  0
  9 34  1  0
 10 35  1  0
 15 36  1  0
 17 37  1  0
 19 38  1  0
 20 39  1  0
 21 40  1  0
 26 41  1  0
M  END
$$$$
