@<TRIPOS>MOLECULE
*****
 41 45 0 0 0
SMALL
GASTEIGER

@<TRIPOS>ATOM
      1 C          -5.2251    2.4102    0.6812 C.3     1  UNL1       -0.0452
      2 C          -4.3103    1.1720    0.7144 C.3     1  UNL1        0.0360
      3 C          -2.9394    1.5646    0.3414 C.3     1  UNL1        0.0273
      4 N          -2.1157    0.6592   -0.3405 N.pl3   1  UNL1       -0.3406
      5 C          -1.9213   -0.7951   -0.2469 C.ar    1  UNL1        0.0551
      6 C          -3.0732   -1.5754   -0.2565 C.ar    1  UNL1        0.0958
      7 S          -2.4892   -3.2408   -0.3032 S.2     1  UNL1       -0.0818
      8 C          -0.7732   -2.8161   -0.3025 C.ar    1  UNL1        0.0226
      9 C           0.3285   -3.6641   -0.3337 C.ar    1  UNL1       -0.0453
     10 C           1.5723   -3.1521   -0.3237 C.ar    1  UNL1       -0.0346
     11 C           1.6693   -1.7717   -0.2777 C.ar    1  UNL1        0.0724
     12 N           2.9248   -1.2871   -0.2204 N.ar    1  UNL1       -0.2466
     13 C           3.2098    0.0164   -0.1259 C.ar    1  UNL1        0.0746
     14 C           4.6149    0.4786   -0.0688 C.ar    1  UNL1        0.0365
     15 C           5.6297   -0.4536   -0.1143 C.ar    1  UNL1        0.0399
     16 N           6.9253   -0.0918   -0.0661 N.ar    1  UNL1       -0.2431
     17 C           7.2558    1.1937    0.0279 C.ar    1  UNL1        0.1159
     18 N           6.2873    2.1134    0.0734 N.ar    1  UNL1       -0.2431
     19 C           4.9624    1.7988    0.0279 C.ar    1  UNL1        0.0399
     20 C           2.1653    0.8819   -0.0853 C.ar    1  UNL1       -0.0350
     21 C           0.8391    0.4007   -0.1448 C.ar    1  UNL1       -0.0499
     22 C           0.5670   -0.9351   -0.2469 C.ar    1  UNL1        0.0104
     23 C          -0.7452   -1.4508   -0.2653 C.ar    1  UNL1        0.0200
     24 C          -4.5201   -1.2126   -0.2089 C.2     1  UNL1        0.2528
     25 O          -5.3247   -2.1296   -0.3891 O.2     1  UNL1       -0.2696
     26 N          -4.9761    0.1360    0.0345 N.am    1  UNL1       -0.3068
     27 H          -6.2522    2.0101    0.8003 H       1  UNL1        0.0248
     28 H          -5.0781    2.8717   -0.3027 H       1  UNL1        0.0248
     29 H          -4.9408    3.1309    1.4506 H       1  UNL1        0.0248
     30 H          -4.3007    0.8933    1.8129 H       1  UNL1        0.0511
     31 H          -2.3815    1.9267    1.2578 H       1  UNL1        0.0479
     32 H          -3.0155    2.4967   -0.2899 H       1  UNL1        0.0479
     33 H          -1.5069    1.0416   -1.1154 H       1  UNL1        0.1462
     34 H           0.1457   -4.7169   -0.3653 H       1  UNL1        0.0629
     35 H           2.4468   -3.7797   -0.3503 H       1  UNL1        0.0639
     36 H           5.3854   -1.4958   -0.1901 H       1  UNL1        0.0837
     37 H           8.3199    1.4619    0.0656 H       1  UNL1        0.1047
     38 H           4.2058    2.5466    0.0654 H       1  UNL1        0.0837
     39 H           2.2885    1.9458   -0.0083 H       1  UNL1        0.0639
     40 H           0.0612    1.1106   -0.0498 H       1  UNL1        0.0625
     41 H          -5.9155    0.3072   -0.3611 H       1  UNL1        0.1494
@<TRIPOS>BOND
     1     1     2    1
     2     2     3    1
     3     3     4    1
     4     4     5    1
     5     5     6   ar
     6     6     7   ar
     7     7     8   ar
     8     8     9   ar
     9     9    10   ar
    10    10    11   ar
    11    11    12   ar
    12    12    13   ar
    13    13    14    1
    14    14    15   ar
    15    15    16   ar
    16    16    17   ar
    17    17    18   ar
    18    18    19   ar
    19    13    20   ar
    20    20    21   ar
    21    21    22   ar
    22    22    23   ar
    23     6    24    1
    24    24    25    2
    25    24    26   am
    26    26     2    1
    27    23     5   ar
    28    23     8   ar
    29    22    11   ar
    30    19    14   ar
    31     1    27    1
    32     1    28    1
    33     1    29    1
    34     2    30    1
    35     3    31    1
    36     3    32    1
    37     4    33    1
    38     9    34    1
    39    10    35    1
    40    15    36    1
    41    17    37    1
    42    19    38    1
    43    20    39    1
    44    21    40    1
    45    26    41    1
