
     RDKit          3D

 41 44  0  0  0  0  0  0  0  0999 V2000
    4.8131    4.7892   -2.4192 N   0  0  0  0  0  0  0  0  0  0  0  0
    3.7587    4.3332   -2.3125 C   0  0  0  0  0  0  0  0  0  0  0  0
    2.3881    3.7545   -2.1513 C   0  0  0  0  0  0  0  0  0  0  0  0
    1.3845    4.6690   -1.9325 C   0  0  0  0  0  0  0  0  0  0  0  0
   -0.0963    3.6809   -1.8009 S   0  0  0  0  0  0  0  0  0  0  0  0
    0.7406    2.1171   -2.0476 C   0  0  0  0  0  0  0  0  0  0  0  0
    0.0992    0.8562   -2.0769 N   0  0  0  0  0  0  0  0  0  0  0  0
   -0.1714    0.1898   -0.8579 C   0  0  0  0  0  0  0  0  0  0  0  0
    0.1511    0.7230    0.2276 O   0  0  0  0  0  0  0  0  0  0  0  0
   -0.8306   -1.1319   -0.8342 C   0  0  0  0  0  0  0  0  0  0  0  0
   -1.0296   -1.6359    0.4841 N   0  0  0  0  0  0  0  0  0  0  0  0
   -0.0334   -2.4451    1.1147 C   0  0  0  0  0  0  0  0  0  0  0  0
    1.1399   -2.3970    0.7146 O   0  0  0  0  0  0  0  0  0  0  0  0
   -0.4421   -3.3178    2.2327 C   0  0  0  0  0  0  0  0  0  0  0  0
   -1.4088   -2.6119    3.1218 C   0  0  0  0  0  0  0  0  0  0  0  0
   -2.4361   -1.8050    2.4695 C   0  0  0  0  0  0  0  0  0  0  0  0
   -3.6255   -1.4820    3.1345 C   0  0  0  0  0  0  0  0  0  0  0  0
   -4.6120   -0.7100    2.5839 C   0  0  0  0  0  0  0  0  0  0  0  0
   -4.3996   -0.2396    1.3116 C   0  0  0  0  0  0  0  0  0  0  0  0
   -3.2409   -0.5314    0.6121 C   0  0  0  0  0  0  0  0  0  0  0  0
   -2.2469   -1.3167    1.1817 C   0  0  0  0  0  0  0  0  0  0  0  0
    2.0613    2.4535   -2.2099 C   0  0  0  0  0  0  0  0  0  0  0  0
    3.0384    1.3475   -2.4362 C   0  0  0  0  0  0  0  0  0  0  0  0
    2.7321    0.0287   -2.4906 N   0  0  0  0  0  0  0  0  0  0  0  0
    3.7882   -0.7157   -2.7114 N   0  0  0  0  0  0  0  0  0  0  0  0
    4.8298    0.1067   -2.8086 C   0  0  0  0  0  0  0  0  0  0  0  0
    4.3532    1.3798   -2.6366 N   0  0  0  0  0  0  0  0  0  0  0  0
    1.4035    5.7490   -1.8471 H   0  0  0  0  0  0  0  0  0  0  0  0
   -0.1558    0.4466   -3.0084 H   0  0  0  0  0  0  0  0  0  0  0  0
   -1.7890   -1.0859   -1.3775 H   0  0  0  0  0  0  0  0  0  0  0  0
   -0.2020   -1.8877   -1.3899 H   0  0  0  0  0  0  0  0  0  0  0  0
   -0.9143   -4.2673    1.8824 H   0  0  0  0  0  0  0  0  0  0  0  0
    0.4392   -3.5957    2.8822 H   0  0  0  0  0  0  0  0  0  0  0  0
   -0.8554   -1.9800    3.8667 H   0  0  0  0  0  0  0  0  0  0  0  0
   -1.9303   -3.4038    3.7227 H   0  0  0  0  0  0  0  0  0  0  0  0
   -3.7156   -1.8962    4.1448 H   0  0  0  0  0  0  0  0  0  0  0  0
   -5.5268   -0.4846    3.1472 H   0  0  0  0  0  0  0  0  0  0  0  0
   -5.1595    0.3912    0.8205 H   0  0  0  0  0  0  0  0  0  0  0  0
   -3.1257   -0.1302   -0.3783 H   0  0  0  0  0  0  0  0  0  0  0  0
    5.8606   -0.1516   -2.9870 H   0  0  0  0  0  0  0  0  0  0  0  0
    4.9661    2.2071   -2.6680 H   0  0  0  0  0  0  0  0  0  0  0  0
  1  2  3  0
  2  3  1  0
  3  4  2  0
  4  5  1  0
  5  6  1  0
  6  7  1  0
  7  8  1  0
  8  9  2  0
  8 10  1  0
 10 11  1  0
 11 12  1  0
 12 13  2  0
 12 14  1  0
 14 15  1  0
 15 16  1  0
 16 17  2  0
 17 18  1  0
 18 19  2  0
 19 20  1  0
 20 21  2  0
  6 22  2  0
 22 23  1  0
 23 24  2  0
 24 25  1  0
 25 26  2  0
 26 27  1  0
 22  3  1  0
 27 23  1  0
 21 11  1  0
 21 16  1  0
  4 28  1  0
  7 29  1  0
 10 30  1  0
 10 31  1  0
 14 32  1  0
 14 33  1  0
 15 34  1  0
 15 35  1  0
 17 36  1  0
 18 37  1  0
 19 38  1  0
 20 39  1  0
 26 40  1  0
 27 41  1  0
M  END
$$$$
