@<TRIPOS>MOLECULE
*****
 41 44 0 0 0
SMALL
GASTEIGER

@<TRIPOS>ATOM
      1 N           4.8131    4.7892   -2.4192 N.1     1  UNL1       -0.1908
      2 C           3.7587    4.3332   -2.3125 C.1     1  UNL1        0.1005
      3 C           2.3881    3.7545   -2.1513 C.ar    1  UNL1        0.0713
      4 C           1.3845    4.6690   -1.9325 C.ar    1  UNL1       -0.0044
      5 S          -0.0963    3.6809   -1.8009 S.2     1  UNL1       -0.0799
      6 C           0.7406    2.1171   -2.0476 C.ar    1  UNL1        0.0838
      7 N           0.0992    0.8562   -2.0769 N.am    1  UNL1       -0.2781
      8 C          -0.1714    0.1898   -0.8579 C.2     1  UNL1        0.2354
      9 O           0.1511    0.7230    0.2276 O.2     1  UNL1       -0.2737
     10 C          -0.8306   -1.1319   -0.8342 C.3     1  UNL1        0.0964
     11 N          -1.0296   -1.6359    0.4841 N.am    1  UNL1       -0.2623
     12 C          -0.0334   -2.4451    1.1147 C.2     1  UNL1        0.2205
     13 O           1.1399   -2.3970    0.7146 O.2     1  UNL1       -0.2752
     14 C          -0.4421   -3.3178    2.2327 C.3     1  UNL1        0.0285
     15 C          -1.4088   -2.6119    3.1218 C.3     1  UNL1       -0.0177
     16 C          -2.4361   -1.8050    2.4695 C.ar    1  UNL1       -0.0255
     17 C          -3.6255   -1.4820    3.1345 C.ar    1  UNL1       -0.0568
     18 C          -4.6120   -0.7100    2.5839 C.ar    1  UNL1       -0.0614
     19 C          -4.3996   -0.2396    1.3116 C.ar    1  UNL1       -0.0600
     20 C          -3.2409   -0.5314    0.6121 C.ar    1  UNL1       -0.0400
     21 C          -2.2469   -1.3167    1.1817 C.ar    1  UNL1        0.0400
     22 C           2.0613    2.4535   -2.2099 C.ar    1  UNL1        0.0648
     23 C           3.0384    1.3475   -2.4362 C.ar    1  UNL1        0.1650
     24 N           2.7321    0.0287   -2.4906 N.ar    1  UNL1       -0.1295
     25 N           3.7882   -0.7157   -2.7114 N.ar    1  UNL1       -0.1377
     26 C           4.8298    0.1067   -2.8086 C.ar    1  UNL1        0.1175
     27 N           4.3532    1.3798   -2.6366 N.ar    1  UNL1       -0.3276
     28 H           1.4035    5.7490   -1.8471 H       1  UNL1        0.0707
     29 H          -0.1558    0.4466   -3.0084 H       1  UNL1        0.1554
     30 H          -1.7890   -1.0859   -1.3775 H       1  UNL1        0.0564
     31 H          -0.2020   -1.8877   -1.3899 H       1  UNL1        0.0564
     32 H          -0.9143   -4.2673    1.8824 H       1  UNL1        0.0362
     33 H           0.4392   -3.5957    2.8822 H       1  UNL1        0.0362
     34 H          -0.8554   -1.9800    3.8667 H       1  UNL1        0.0318
     35 H          -1.9303   -3.4038    3.7227 H       1  UNL1        0.0318
     36 H          -3.7156   -1.8962    4.1448 H       1  UNL1        0.0621
     37 H          -5.5268   -0.4846    3.1472 H       1  UNL1        0.0618
     38 H          -5.1595    0.3912    0.8205 H       1  UNL1        0.0618
     39 H          -3.1257   -0.1302   -0.3783 H       1  UNL1        0.0636
     40 H           5.8606   -0.1516   -2.9870 H       1  UNL1        0.1046
     41 H           4.9661    2.2071   -2.6680 H       1  UNL1        0.1683
@<TRIPOS>BOND
     1     1     2    3
     2     2     3    1
     3     3     4   ar
     4     4     5   ar
     5     5     6   ar
     6     6     7    1
     7     7     8   am
     8     8     9    2
     9     8    10    1
    10    10    11    1
    11    11    12   am
    12    12    13    2
    13    12    14    1
    14    14    15    1
    15    15    16    1
    16    16    17   ar
    17    17    18   ar
    18    18    19   ar
    19    19    20   ar
    20    20    21   ar
    21     6    22   ar
    22    22    23    1
    23    23    24   ar
    24    24    25   ar
    25    25    26   ar
    26    26    27   ar
    27    22     3   ar
    28    27    23   ar
    29    21    11    1
    30    21    16   ar
    31     4    28    1
    32     7    29    1
    33    10    30    1
    34    10    31    1
    35    14    32    1
    36    14    33    1
    37    15    34    1
    38    15    35    1
    39    17    36    1
    40    18    37    1
    41    19    38    1
    42    20    39    1
    43    26    40    1
    44    27    41    1
