
     RDKit          3D

 67 70  0  0  0  0  0  0  0  0999 V2000
    5.1259   -1.9299   -2.3088 O   0  0  0  0  0  0  0  0  0  0  0  0
    6.1063   -1.1313   -1.7148 C   0  0  0  0  0  0  0  0  0  0  0  0
    5.7087   -0.8647   -0.2659 C   0  0  1  0  0  0  0  0  0  0  0  0
    6.8539   -0.2376    0.4706 C   0  0  1  0  0  0  0  0  0  0  0  0
    8.0356   -0.8190    0.0489 O   0  0  0  0  0  0  0  0  0  0  0  0
    6.8914    1.2461    0.1226 C   0  0  2  0  0  0  0  0  0  0  0  0
    8.0004    1.8753    0.6572 O   0  0  0  0  0  0  0  0  0  0  0  0
    5.5938    1.8185    0.6884 C   0  0  1  0  0  0  0  0  0  0  0  0
    5.5469    3.1870    0.5982 O   0  0  0  0  0  0  0  0  0  0  0  0
    4.4742    1.2195   -0.1681 C   0  0  0  0  0  0  0  0  0  0  0  0
    4.4642   -0.1954   -0.1360 N   0  0  0  0  0  0  0  0  0  0  0  0
    3.5057   -0.8296    0.6991 C   0  0  0  0  0  0  0  0  0  0  0  0
    2.1240   -0.6072    0.1346 C   0  0  0  0  0  0  0  0  0  0  0  0
    1.1041   -1.2872    1.0351 C   0  0  0  0  0  0  0  0  0  0  0  0
   -0.2682   -1.0147    0.3969 C   0  0  0  0  0  0  0  0  0  0  0  0
   -1.3351   -1.6468    1.2233 C   0  0  0  0  0  0  0  0  0  0  0  0
   -2.6115   -1.4906    0.7656 O   0  0  0  0  0  0  0  0  0  0  0  0
   -2.9495   -0.1453    0.6946 C   0  0  0  0  0  0  0  0  0  0  0  0
   -4.3797    0.0354    0.2103 C   0  0  0  0  0  0  0  0  0  0  0  0
   -5.3619   -0.6250    1.1219 C   0  0  0  0  0  0  0  0  0  0  0  0
   -6.7467   -0.4032    0.5652 C   0  0  0  0  0  0  0  0  0  0  0  0
   -7.1001    1.0581    0.5601 C   0  0  0  0  0  0  0  0  0  0  0  0
   -6.0802    1.7761   -0.2857 C   0  0  0  0  0  0  0  0  0  0  0  0
   -6.1660    1.2884   -1.7115 C   0  0  0  0  0  0  0  0  0  0  0  0
   -5.8746   -0.1845   -1.7343 C   0  0  0  0  0  0  0  0  0  0  0  0
   -6.8414   -0.9318   -0.8533 C   0  0  0  0  0  0  0  0  0  0  0  0
   -4.4747   -0.4475   -1.2103 C   0  0  0  0  0  0  0  0  0  0  0  0
   -4.6697    1.5314    0.1895 C   0  0  0  0  0  0  0  0  0  0  0  0
    4.8509   -2.5943   -1.6230 H   0  0  0  0  0  0  0  0  0  0  0  0
    6.1925   -0.1638   -2.2418 H   0  0  0  0  0  0  0  0  0  0  0  0
    7.0554   -1.6743   -1.7362 H   0  0  0  0  0  0  0  0  0  0  0  0
    5.5751   -1.8951    0.1792 H   0  0  0  0  0  0  0  0  0  0  0  0
    6.7544   -0.3804    1.5665 H   0  0  0  0  0  0  0  0  0  0  0  0
    8.8365   -0.3742    0.4355 H   0  0  0  0  0  0  0  0  0  0  0  0
    6.8295    1.3224   -0.9687 H   0  0  0  0  0  0  0  0  0  0  0  0
    8.1979    2.6634    0.1159 H   0  0  0  0  0  0  0  0  0  0  0  0
    5.4694    1.4450    1.7208 H   0  0  0  0  0  0  0  0  0  0  0  0
    6.3263    3.5697    1.0815 H   0  0  0  0  0  0  0  0  0  0  0  0
    4.6384    1.5841   -1.2053 H   0  0  0  0  0  0  0  0  0  0  0  0
    3.5270    1.6181    0.2324 H   0  0  0  0  0  0  0  0  0  0  0  0
    3.7269   -1.9233    0.7218 H   0  0  0  0  0  0  0  0  0  0  0  0
    3.5724   -0.4401    1.7337 H   0  0  0  0  0  0  0  0  0  0  0  0
    2.0844   -1.0707   -0.8833 H   0  0  0  0  0  0  0  0  0  0  0  0
    1.9070    0.4563    0.0279 H   0  0  0  0  0  0  0  0  0  0  0  0
    1.1642   -0.7929    2.0153 H   0  0  0  0  0  0  0  0  0  0  0  0
    1.3128   -2.3683    1.0735 H   0  0  0  0  0  0  0  0  0  0  0  0
   -0.2425   -1.4122   -0.6271 H   0  0  0  0  0  0  0  0  0  0  0  0
   -0.3142    0.0934    0.3324 H   0  0  0  0  0  0  0  0  0  0  0  0
   -1.2769   -1.2227    2.2553 H   0  0  0  0  0  0  0  0  0  0  0  0
   -1.0673   -2.7263    1.3392 H   0  0  0  0  0  0  0  0  0  0  0  0
   -2.8008    0.3407    1.6735 H   0  0  0  0  0  0  0  0  0  0  0  0
   -2.2667    0.3316   -0.0428 H   0  0  0  0  0  0  0  0  0  0  0  0
   -5.3225   -0.0909    2.0959 H   0  0  0  0  0  0  0  0  0  0  0  0
   -5.1921   -1.6978    1.2593 H   0  0  0  0  0  0  0  0  0  0  0  0
   -7.4605   -1.0036    1.1779 H   0  0  0  0  0  0  0  0  0  0  0  0
   -7.0870    1.4615    1.5818 H   0  0  0  0  0  0  0  0  0  0  0  0
   -8.0849    1.1675    0.0589 H   0  0  0  0  0  0  0  0  0  0  0  0
   -6.2459    2.8755   -0.3038 H   0  0  0  0  0  0  0  0  0  0  0  0
   -7.1356    1.5034   -2.1797 H   0  0  0  0  0  0  0  0  0  0  0  0
   -5.3684    1.7899   -2.3057 H   0  0  0  0  0  0  0  0  0  0  0  0
   -5.9129   -0.5979   -2.7521 H   0  0  0  0  0  0  0  0  0  0  0  0
   -7.8613   -0.6941   -1.2097 H   0  0  0  0  0  0  0  0  0  0  0  0
   -6.6343   -2.0110   -0.8761 H   0  0  0  0  0  0  0  0  0  0  0  0
   -4.1964   -1.4994   -1.3339 H   0  0  0  0  0  0  0  0  0  0  0  0
   -3.7931    0.2065   -1.8160 H   0  0  0  0  0  0  0  0  0  0  0  0
   -4.4411    2.0128    1.1545 H   0  0  0  0  0  0  0  0  0  0  0  0
   -3.9929    1.9473   -0.6058 H   0  0  0  0  0  0  0  0  0  0  0  0
  1  2  1  0
  2  3  1  0
  3  4  1  0
  4  5  1  0
  4  6  1  0
  6  7  1  0
  6  8  1  0
  8  9  1  0
  8 10  1  0
 10 11  1  0
 11 12  1  0
 12 13  1  0
 13 14  1  0
 14 15  1  0
 15 16  1  0
 16 17  1  0
 17 18  1  0
 18 19  1  0
 19 20  1  0
 20 21  1  0
 21 22  1  0
 22 23  1  0
 23 24  1  0
 24 25  1  0
 25 26  1  0
 25 27  1  0
 23 28  1  0
 11  3  1  0
 27 19  1  0
 28 19  1  0
 26 21  1  0
  1 29  1  0
  2 30  1  0
  2 31  1  0
  3 32  1  1
  4 33  1  1
  5 34  1  0
  6 35  1  6
  7 36  1  0
  8 37  1  1
  9 38  1  0
 10 39  1  0
 10 40  1  0
 12 41  1  0
 12 42  1  0
 13 43  1  0
 13 44  1  0
 14 45  1  0
 14 46  1  0
 15 47  1  0
 15 48  1  0
 16 49  1  0
 16 50  1  0
 18 51  1  0
 18 52  1  0
 20 53  1  0
 20 54  1  0
 21 55  1  0
 22 56  1  0
 22 57  1  0
 23 58  1  0
 24 59  1  0
 24 60  1  0
 25 61  1  0
 26 62  1  0
 26 63  1  0
 27 64  1  0
 27 65  1  0
 28 66  1  0
 28 67  1  0
M  END
$$$$
