@<TRIPOS>MOLECULE
*****
 67 70 0 0 0
SMALL
GASTEIGER

@<TRIPOS>ATOM
      1 O           5.1259   -1.9299   -2.3088 O.3     1  UNL1       -0.3934
      2 C           6.1063   -1.1313   -1.7148 C.3     1  UNL1        0.0622
      3 C           5.7087   -0.8647   -0.2659 C.3     1  UNL1        0.0621
      4 C           6.8539   -0.2376    0.4706 C.3     1  UNL1        0.1011
      5 O           8.0356   -0.8190    0.0489 O.3     1  UNL1       -0.3875
      6 C           6.8914    1.2461    0.1226 C.3     1  UNL1        0.1095
      7 O           8.0004    1.8753    0.6572 O.3     1  UNL1       -0.3866
      8 C           5.5938    1.8185    0.6884 C.3     1  UNL1        0.0962
      9 O           5.5469    3.1870    0.5982 O.3     1  UNL1       -0.3879
     10 C           4.4742    1.2195   -0.1681 C.3     1  UNL1        0.0279
     11 N           4.4642   -0.1954   -0.1360 N.3     1  UNL1       -0.2923
     12 C           3.5057   -0.8296    0.6991 C.3     1  UNL1       -0.0006
     13 C           2.1240   -0.6072    0.1346 C.3     1  UNL1       -0.0401
     14 C           1.1041   -1.2872    1.0351 C.3     1  UNL1       -0.0498
     15 C          -0.2682   -1.0147    0.3969 C.3     1  UNL1       -0.0294
     16 C          -1.3351   -1.6468    1.2233 C.3     1  UNL1        0.0477
     17 O          -2.6115   -1.4906    0.7656 O.3     1  UNL1       -0.3792
     18 C          -2.9495   -0.1453    0.6946 C.3     1  UNL1        0.0533
     19 C          -4.3797    0.0354    0.2103 C.3     1  UNL1       -0.0051
     20 C          -5.3619   -0.6250    1.1219 C.3     1  UNL1       -0.0424
     21 C          -6.7467   -0.4032    0.5652 C.3     1  UNL1       -0.0400
     22 C          -7.1001    1.0581    0.5601 C.3     1  UNL1       -0.0473
     23 C          -6.0802    1.7761   -0.2857 C.3     1  UNL1       -0.0400
     24 C          -6.1660    1.2884   -1.7115 C.3     1  UNL1       -0.0473
     25 C          -5.8746   -0.1845   -1.7343 C.3     1  UNL1       -0.0400
     26 C          -6.8414   -0.9318   -0.8533 C.3     1  UNL1       -0.0473
     27 C          -4.4747   -0.4475   -1.2103 C.3     1  UNL1       -0.0424
     28 C          -4.6697    1.5314    0.1895 C.3     1  UNL1       -0.0424
     29 H           4.8509   -2.5943   -1.6230 H       1  UNL1        0.2095
     30 H           6.1925   -0.1638   -2.2418 H       1  UNL1        0.0573
     31 H           7.0554   -1.6743   -1.7362 H       1  UNL1        0.0573
     32 H           5.5751   -1.8951    0.1792 H       1  UNL1        0.0511
     33 H           6.7544   -0.3804    1.5665 H       1  UNL1        0.0636
     34 H           8.8365   -0.3742    0.4355 H       1  UNL1        0.2100
     35 H           6.8295    1.3224   -0.9687 H       1  UNL1        0.0646
     36 H           8.1979    2.6634    0.1159 H       1  UNL1        0.2100
     37 H           5.4694    1.4450    1.7208 H       1  UNL1        0.0633
     38 H           6.3263    3.5697    1.0815 H       1  UNL1        0.2099
     39 H           4.6384    1.5841   -1.2053 H       1  UNL1        0.0453
     40 H           3.5270    1.6181    0.2324 H       1  UNL1        0.0453
     41 H           3.7269   -1.9233    0.7218 H       1  UNL1        0.0427
     42 H           3.5724   -0.4401    1.7337 H       1  UNL1        0.0427
     43 H           2.0844   -1.0707   -0.8833 H       1  UNL1        0.0278
     44 H           1.9070    0.4563    0.0279 H       1  UNL1        0.0278
     45 H           1.1642   -0.7929    2.0153 H       1  UNL1        0.0266
     46 H           1.3128   -2.3683    1.0735 H       1  UNL1        0.0266
     47 H          -0.2425   -1.4122   -0.6271 H       1  UNL1        0.0287
     48 H          -0.3142    0.0934    0.3324 H       1  UNL1        0.0287
     49 H          -1.2769   -1.2227    2.2553 H       1  UNL1        0.0560
     50 H          -1.0673   -2.7263    1.3392 H       1  UNL1        0.0560
     51 H          -2.8008    0.3407    1.6735 H       1  UNL1        0.0565
     52 H          -2.2667    0.3316   -0.0428 H       1  UNL1        0.0565
     53 H          -5.3225   -0.0909    2.0959 H       1  UNL1        0.0274
     54 H          -5.1921   -1.6978    1.2593 H       1  UNL1        0.0274
     55 H          -7.4605   -1.0036    1.1779 H       1  UNL1        0.0301
     56 H          -7.0870    1.4615    1.5818 H       1  UNL1        0.0271
     57 H          -8.0849    1.1675    0.0589 H       1  UNL1        0.0271
     58 H          -6.2459    2.8755   -0.3038 H       1  UNL1        0.0301
     59 H          -7.1356    1.5034   -2.1797 H       1  UNL1        0.0271
     60 H          -5.3684    1.7899   -2.3057 H       1  UNL1        0.0271
     61 H          -5.9129   -0.5979   -2.7521 H       1  UNL1        0.0301
     62 H          -7.8613   -0.6941   -1.2097 H       1  UNL1        0.0271
     63 H          -6.6343   -2.0110   -0.8761 H       1  UNL1        0.0271
     64 H          -4.1964   -1.4994   -1.3339 H       1  UNL1        0.0274
     65 H          -3.7931    0.2065   -1.8160 H       1  UNL1        0.0274
     66 H          -4.4411    2.0128    1.1545 H       1  UNL1        0.0274
     67 H          -3.9929    1.9473   -0.6058 H       1  UNL1        0.0274
@<TRIPOS>BOND
     1     1     2    1
     2     2     3    1
     3     3     4    1
     4     4     5    1
     5     4     6    1
     6     6     7    1
     7     6     8    1
     8     8     9    1
     9     8    10    1
    10    10    11    1
    11    11    12    1
    12    12    13    1
    13    13    14    1
    14    14    15    1
    15    15    16    1
    16    16    17    1
    17    17    18    1
    18    18    19    1
    19    19    20    1
    20    20    21    1
    21    21    22    1
    22    22    23    1
    23    23    24    1
    24    24    25    1
    25    25    26    1
    26    25    27    1
    27    23    28    1
    28    11     3    1
    29    27    19    1
    30    28    19    1
    31    26    21    1
    32     1    29    1
    33     2    30    1
    34     2    31    1
    35     3    32    1
    36     4    33    1
    37     5    34    1
    38     6    35    1
    39     7    36    1
    40     8    37    1
    41     9    38    1
    42    10    39    1
    43    10    40    1
    44    12    41    1
    45    12    42    1
    46    13    43    1
    47    13    44    1
    48    14    45    1
    49    14    46    1
    50    15    47    1
    51    15    48    1
    52    16    49    1
    53    16    50    1
    54    18    51    1
    55    18    52    1
    56    20    53    1
    57    20    54    1
    58    21    55    1
    59    22    56    1
    60    22    57    1
    61    23    58    1
    62    24    59    1
    63    24    60    1
    64    25    61    1
    65    26    62    1
    66    26    63    1
    67    27    64    1
    68    27    65    1
    69    28    66    1
    70    28    67    1
