@<TRIPOS>MOLECULE
*****
 36 36 0 0 0
SMALL
GASTEIGER

@<TRIPOS>ATOM
      1 C          -4.1197    0.4585    1.8104 C.3     1  UNL1       -0.0652
      2 C          -4.6379   -0.7610    1.1309 C.3     1  UNL1       -0.0545
      3 C          -4.5380   -0.7871   -0.3509 C.3     1  UNL1       -0.0376
      4 C          -3.1727   -0.6888   -0.9298 C.3     1  UNL1        0.0131
      5 N          -2.4449    0.5060   -0.6164 N.am    1  UNL1       -0.2982
      6 C          -1.1472    0.4512   -1.2429 C.2     1  UNL1        0.3189
      7 O          -0.7839   -0.5296   -1.9421 O.2     1  UNL1       -0.2512
      8 N          -0.1747    1.4891   -1.1271 N.am    1  UNL1       -0.1693
      9 S           1.3804    1.4620   -1.8570 S.O2    1  UNL1        0.0756
     10 O           1.7278    2.8681   -2.2537 O.2     1  UNL1       -0.1499
     11 O           1.2368    0.6959   -3.1490 O.2     1  UNL1       -0.1499
     12 C           2.5782    0.7381   -0.8177 C.ar    1  UNL1        0.1086
     13 C           3.3306    1.4568    0.0887 C.ar    1  UNL1       -0.0348
     14 C           4.2637    0.8125    0.8809 C.ar    1  UNL1       -0.0570
     15 C           4.4691   -0.5587    0.7897 C.ar    1  UNL1       -0.0503
     16 C           5.4602   -1.2910    1.6210 C.3     1  UNL1       -0.0397
     17 C           3.6962   -1.2342   -0.1278 C.ar    1  UNL1       -0.0570
     18 C           2.7521   -0.6434   -0.9426 C.ar    1  UNL1       -0.0348
     19 H          -4.4627    1.4062    1.3497 H       1  UNL1        0.0230
     20 H          -3.0332    0.4337    2.0445 H       1  UNL1        0.0230
     21 H          -4.6039    0.4649    2.8350 H       1  UNL1        0.0230
     22 H          -4.1870   -1.6462    1.6275 H       1  UNL1        0.0263
     23 H          -5.7338   -0.8380    1.3867 H       1  UNL1        0.0263
     24 H          -5.0021   -1.7377   -0.7030 H       1  UNL1        0.0280
     25 H          -5.1600    0.0525   -0.7341 H       1  UNL1        0.0280
     26 H          -2.5611   -1.5959   -0.7153 H       1  UNL1        0.0462
     27 H          -3.2973   -0.6871   -2.0461 H       1  UNL1        0.0462
     28 H          -2.5576    1.3947   -0.0845 H       1  UNL1        0.1503
     29 H          -0.4252    2.3267   -0.5573 H       1  UNL1        0.1781
     30 H           3.1670    2.5347    0.1582 H       1  UNL1        0.0637
     31 H           4.8471    1.3704    1.5838 H       1  UNL1        0.0621
     32 H           6.4734   -1.1814    1.1673 H       1  UNL1        0.0278
     33 H           5.1458   -2.3465    1.7414 H       1  UNL1        0.0278
     34 H           5.4962   -0.8267    2.6337 H       1  UNL1        0.0278
     35 H           3.8337   -2.3077   -0.2224 H       1  UNL1        0.0621
     36 H           2.1843   -1.2609   -1.6427 H       1  UNL1        0.0637
@<TRIPOS>BOND
     1     1     2    1
     2     2     3    1
     3     3     4    1
     4     4     5    1
     5     5     6   am
     6     6     7    2
     7     6     8   am
     8     8     9    1
     9     9    10    2
    10     9    11    2
    11     9    12    1
    12    12    13   ar
    13    13    14   ar
    14    14    15   ar
    15    15    16    1
    16    15    17   ar
    17    17    18   ar
    18    18    12   ar
    19     1    19    1
    20     1    20    1
    21     1    21    1
    22     2    22    1
    23     2    23    1
    24     3    24    1
    25     3    25    1
    26     4    26    1
    27     4    27    1
    28     5    28    1
    29     8    29    1
    30    13    30    1
    31    14    31    1
    32    16    32    1
    33    16    33    1
    34    16    34    1
    35    17    35    1
    36    18    36    1
