
     RDKit          3D

 43 47  0  0  0  0  0  0  0  0999 V2000
    7.8216    1.0971   -0.2724 C   0  0  0  0  0  0  0  0  0  0  0  0
    7.0534    0.1519   -0.9827 O   0  0  0  0  0  0  0  0  0  0  0  0
    5.6894    0.0425   -0.6690 C   0  0  0  0  0  0  0  0  0  0  0  0
    4.9045   -0.8712   -1.3426 C   0  0  0  0  0  0  0  0  0  0  0  0
    3.5577   -1.0176   -1.0714 C   0  0  0  0  0  0  0  0  0  0  0  0
    2.9591   -0.2332   -0.0981 C   0  0  0  0  0  0  0  0  0  0  0  0
    1.5462   -0.3445    0.2277 C   0  0  0  0  0  0  0  0  0  0  0  0
    0.6652   -0.6900   -0.7714 C   0  0  0  0  0  0  0  0  0  0  0  0
   -0.6331   -0.7840   -0.4390 N   0  0  0  0  0  0  0  0  0  0  0  0
   -1.0568   -0.5491    0.8250 C   0  0  0  0  0  0  0  0  0  0  0  0
   -2.3501   -0.6033    1.3273 C   0  0  0  0  0  0  0  0  0  0  0  0
   -3.5476   -0.9382    0.5577 C   0  0  0  0  0  0  0  0  0  0  0  0
   -4.0055   -2.2278    0.4289 C   0  0  0  0  0  0  0  0  0  0  0  0
   -5.1289   -2.5436   -0.2941 C   0  0  0  0  0  0  0  0  0  0  0  0
   -5.8015   -1.5679   -0.8935 N   0  0  0  0  0  0  0  0  0  0  0  0
   -5.3845   -0.3042   -0.7889 C   0  0  0  0  0  0  0  0  0  0  0  0
   -6.1533    0.6554   -1.4514 C   0  0  0  0  0  0  0  0  0  0  0  0
   -5.7480    1.9534   -1.3594 C   0  0  0  0  0  0  0  0  0  0  0  0
   -4.6227    2.3318   -0.6442 C   0  0  0  0  0  0  0  0  0  0  0  0
   -3.8558    1.3761    0.0165 C   0  0  0  0  0  0  0  0  0  0  0  0
   -4.2661    0.0738   -0.0782 C   0  0  0  0  0  0  0  0  0  0  0  0
   -2.2165   -0.2791    2.6607 C   0  0  0  0  0  0  0  0  0  0  0  0
   -0.9169   -0.0463    2.9318 N   0  0  0  0  0  0  0  0  0  0  0  0
   -0.2025   -0.2109    1.8081 N   0  0  0  0  0  0  0  0  0  0  0  0
    1.1115   -0.1059    1.5142 C   0  0  0  0  0  0  0  0  0  0  0  0
    3.7732    0.6664    0.5523 C   0  0  0  0  0  0  0  0  0  0  0  0
    5.1148    0.8315    0.3015 C   0  0  0  0  0  0  0  0  0  0  0  0
    8.8333    1.2115   -0.7141 H   0  0  0  0  0  0  0  0  0  0  0  0
    8.0070    0.7087    0.7705 H   0  0  0  0  0  0  0  0  0  0  0  0
    7.3366    2.0798   -0.2634 H   0  0  0  0  0  0  0  0  0  0  0  0
    5.3713   -1.4960   -2.1146 H   0  0  0  0  0  0  0  0  0  0  0  0
    2.9709   -1.7417   -1.6157 H   0  0  0  0  0  0  0  0  0  0  0  0
    0.9663   -0.8846   -1.7907 H   0  0  0  0  0  0  0  0  0  0  0  0
   -3.4675   -3.0276    0.9112 H   0  0  0  0  0  0  0  0  0  0  0  0
   -5.4902   -3.5746   -0.3937 H   0  0  0  0  0  0  0  0  0  0  0  0
   -7.0372    0.3514   -2.0127 H   0  0  0  0  0  0  0  0  0  0  0  0
   -6.3391    2.7007   -1.8702 H   0  0  0  0  0  0  0  0  0  0  0  0
   -4.3244    3.3795   -0.5899 H   0  0  0  0  0  0  0  0  0  0  0  0
   -2.9825    1.6308    0.5770 H   0  0  0  0  0  0  0  0  0  0  0  0
   -3.0083   -0.2202    3.3689 H   0  0  0  0  0  0  0  0  0  0  0  0
    1.8323    0.1624    2.2702 H   0  0  0  0  0  0  0  0  0  0  0  0
    3.3148    1.2941    1.3246 H   0  0  0  0  0  0  0  0  0  0  0  0
    5.7096    1.5628    0.8513 H   0  0  0  0  0  0  0  0  0  0  0  0
  1  2  1  0
  2  3  1  0
  3  4  2  0
  4  5  1  0
  5  6  2  0
  6  7  1  0
  7  8  1  0
  8  9  2  0
  9 10  1  0
 10 11  2  0
 11 12  1  0
 12 13  2  0
 13 14  1  0
 14 15  2  0
 15 16  1  0
 16 17  2  0
 17 18  1  0
 18 19  2  0
 19 20  1  0
 20 21  2  0
 11 22  1  0
 22 23  2  0
 23 24  1  0
 24 25  1  0
  6 26  1  0
 26 27  2  0
 27  3  1  0
 25  7  2  0
 24 10  1  0
 21 12  1  0
 21 16  1  0
  1 28  1  0
  1 29  1  0
  1 30  1  0
  4 31  1  0
  5 32  1  0
  8 33  1  0
 13 34  1  0
 14 35  1  0
 17 36  1  0
 18 37  1  0
 19 38  1  0
 20 39  1  0
 22 40  1  0
 25 41  1  0
 26 42  1  0
 27 43  1  0
M  END
$$$$
