@<TRIPOS>MOLECULE
*****
 43 47 0 0 0
SMALL
GASTEIGER

@<TRIPOS>ATOM
      1 C           7.8216    1.0971   -0.2724 C.3     1  UNL1        0.0788
      2 O           7.0534    0.1519   -0.9827 O.3     1  UNL1       -0.4951
      3 C           5.6894    0.0425   -0.6690 C.ar    1  UNL1        0.1201
      4 C           4.9045   -0.8712   -1.3426 C.ar    1  UNL1       -0.0194
      5 C           3.5577   -1.0176   -1.0714 C.ar    1  UNL1       -0.0505
      6 C           2.9591   -0.2332   -0.0981 C.ar    1  UNL1       -0.0148
      7 C           1.5462   -0.3445    0.2277 C.ar    1  UNL1        0.0184
      8 C           0.6652   -0.6900   -0.7714 C.ar    1  UNL1        0.0391
      9 N          -0.6331   -0.7840   -0.4390 N.ar    1  UNL1       -0.2350
     10 C          -1.0568   -0.5491    0.8250 C.ar    1  UNL1        0.1632
     11 C          -2.3501   -0.6033    1.3273 C.ar    1  UNL1        0.0467
     12 C          -3.5476   -0.9382    0.5577 C.ar    1  UNL1       -0.0022
     13 C          -4.0055   -2.2278    0.4289 C.ar    1  UNL1       -0.0351
     14 C          -5.1289   -2.5436   -0.2941 C.ar    1  UNL1        0.0288
     15 N          -5.8015   -1.5679   -0.8935 N.ar    1  UNL1       -0.2549
     16 C          -5.3845   -0.3042   -0.7889 C.ar    1  UNL1        0.0715
     17 C          -6.1533    0.6554   -1.4514 C.ar    1  UNL1       -0.0357
     18 C          -5.7480    1.9534   -1.3594 C.ar    1  UNL1       -0.0597
     19 C          -4.6227    2.3318   -0.6442 C.ar    1  UNL1       -0.0611
     20 C          -3.8558    1.3761    0.0165 C.ar    1  UNL1       -0.0520
     21 C          -4.2661    0.0738   -0.0782 C.ar    1  UNL1        0.0082
     22 C          -2.2165   -0.2791    2.6607 C.ar    1  UNL1        0.0597
     23 N          -0.9169   -0.0463    2.9318 N.ar    1  UNL1       -0.1727
     24 N          -0.2025   -0.2109    1.8081 N.ar    1  UNL1       -0.2206
     25 C           1.1115   -0.1059    1.5142 C.ar    1  UNL1        0.0406
     26 C           3.7732    0.6664    0.5523 C.ar    1  UNL1       -0.0505
     27 C           5.1148    0.8315    0.3015 C.ar    1  UNL1       -0.0194
     28 H           8.8333    1.2115   -0.7141 H       1  UNL1        0.0660
     29 H           8.0070    0.7087    0.7705 H       1  UNL1        0.0660
     30 H           7.3366    2.0798   -0.2634 H       1  UNL1        0.0660
     31 H           5.3713   -1.4960   -2.1146 H       1  UNL1        0.0654
     32 H           2.9709   -1.7417   -1.6157 H       1  UNL1        0.0625
     33 H           0.9663   -0.8846   -1.7907 H       1  UNL1        0.0837
     34 H          -3.4675   -3.0276    0.9112 H       1  UNL1        0.0639
     35 H          -5.4902   -3.5746   -0.3937 H       1  UNL1        0.0830
     36 H          -7.0372    0.3514   -2.0127 H       1  UNL1        0.0639
     37 H          -6.3391    2.7007   -1.8702 H       1  UNL1        0.0618
     38 H          -4.3244    3.3795   -0.5899 H       1  UNL1        0.0618
     39 H          -2.9825    1.6308    0.5770 H       1  UNL1        0.0624
     40 H          -3.0083   -0.2202    3.3689 H       1  UNL1        0.0855
     41 H           1.8323    0.1624    2.2702 H       1  UNL1        0.0837
     42 H           3.3148    1.2941    1.3246 H       1  UNL1        0.0625
     43 H           5.7096    1.5628    0.8513 H       1  UNL1        0.0654
@<TRIPOS>BOND
     1     1     2    1
     2     2     3    1
     3     3     4   ar
     4     4     5   ar
     5     5     6   ar
     6     6     7    1
     7     7     8   ar
     8     8     9   ar
     9     9    10   ar
    10    10    11   ar
    11    11    12    1
    12    12    13   ar
    13    13    14   ar
    14    14    15   ar
    15    15    16   ar
    16    16    17   ar
    17    17    18   ar
    18    18    19   ar
    19    19    20   ar
    20    20    21   ar
    21    11    22   ar
    22    22    23   ar
    23    23    24   ar
    24    24    25   ar
    25     6    26   ar
    26    26    27   ar
    27    27     3   ar
    28    25     7   ar
    29    24    10   ar
    30    21    12   ar
    31    21    16   ar
    32     1    28    1
    33     1    29    1
    34     1    30    1
    35     4    31    1
    36     5    32    1
    37     8    33    1
    38    13    34    1
    39    14    35    1
    40    17    36    1
    41    18    37    1
    42    19    38    1
    43    20    39    1
    44    22    40    1
    45    25    41    1
    46    26    42    1
    47    27    43    1
