
     RDKit          3D

 62 65  0  0  0  0  0  0  0  0999 V2000
   -9.1326    0.2684    0.2920 C   0  0  0  0  0  0  0  0  0  0  0  0
   -7.8701    1.0679    0.3744 C   0  0  0  0  0  0  0  0  0  0  0  0
   -7.7045    1.9120   -0.8951 C   0  0  0  0  0  0  0  0  0  0  0  0
   -7.9551    2.0144    1.4832 N   0  0  0  0  0  0  0  0  0  0  0  0
   -6.6821    0.2002    0.5745 C   0  0  0  0  0  0  0  0  0  0  0  0
   -6.2808   -0.1845    1.8385 C   0  0  0  0  0  0  0  0  0  0  0  0
   -5.1472   -0.9634    1.9817 C   0  0  0  0  0  0  0  0  0  0  0  0
   -4.4721   -1.3158    0.8313 C   0  0  0  0  0  0  0  0  0  0  0  0
   -4.8814   -0.9265   -0.4380 C   0  0  0  0  0  0  0  0  0  0  0  0
   -6.0106   -0.1522   -0.5716 C   0  0  0  0  0  0  0  0  0  0  0  0
   -3.2355   -2.1187    0.9745 C   0  0  0  0  0  0  0  0  0  0  0  0
   -2.2390   -1.6242    0.2003 N   0  0  0  0  0  0  0  0  0  0  0  0
   -0.9999   -2.1353    0.1422 C   0  0  0  0  0  0  0  0  0  0  0  0
   -0.0661   -1.4858   -0.7481 N   0  0  0  0  0  0  0  0  0  0  0  0
    1.3088   -1.2035   -0.5491 C   0  0  0  0  0  0  0  0  0  0  0  0
    1.9345   -1.4587    0.6589 C   0  0  0  0  0  0  0  0  0  0  0  0
    3.2766   -1.1204    0.7553 C   0  0  0  0  0  0  0  0  0  0  0  0
    3.9933   -0.5555   -0.2779 C   0  0  0  0  0  0  0  0  0  0  0  0
    5.4131   -0.1302   -0.2985 C   0  0  0  0  0  0  0  0  0  0  0  0
    5.4590    1.3250    0.0893 C   0  0  0  0  0  0  0  0  0  0  0  0
    6.7614    1.8973    0.1191 N   0  0  0  0  0  0  0  0  0  0  0  0
    7.6355    1.4431    1.1308 C   0  0  0  0  0  0  0  0  0  0  0  0
    8.9493    0.8943    0.6389 C   0  0  0  0  0  0  0  0  0  0  0  0
    9.4794    1.7987   -0.2797 O   0  0  0  0  0  0  0  0  0  0  0  0
    8.6949    1.7293   -1.4193 C   0  0  0  0  0  0  0  0  0  0  0  0
    7.3262    2.2649   -1.1315 C   0  0  0  0  0  0  0  0  0  0  0  0
    3.3195   -0.3202   -1.4740 C   0  0  0  0  0  0  0  0  0  0  0  0
    1.9958   -0.6439   -1.5962 C   0  0  0  0  0  0  0  0  0  0  0  0
   -0.6954   -3.2095    0.8879 N   0  0  0  0  0  0  0  0  0  0  0  0
   -1.6584   -3.7293    1.6680 C   0  0  0  0  0  0  0  0  0  0  0  0
   -2.9224   -3.2155    1.7338 C   0  0  0  0  0  0  0  0  0  0  0  0
   -4.2687   -3.7730    2.6872 Cl  0  0  0  0  0  0  0  0  0  0  0  0
   -8.9109   -0.7859    0.0872 H   0  0  0  0  0  0  0  0  0  0  0  0
   -9.7123    0.3525    1.2583 H   0  0  0  0  0  0  0  0  0  0  0  0
   -9.7876    0.6810   -0.5046 H   0  0  0  0  0  0  0  0  0  0  0  0
   -8.2152    1.3480   -1.7160 H   0  0  0  0  0  0  0  0  0  0  0  0
   -8.1956    2.8819   -0.6943 H   0  0  0  0  0  0  0  0  0  0  0  0
   -6.6369    2.0647   -1.0884 H   0  0  0  0  0  0  0  0  0  0  0  0
   -6.9484    2.3464    1.6068 H   0  0  0  0  0  0  0  0  0  0  0  0
   -8.2940    1.5469    2.3694 H   0  0  0  0  0  0  0  0  0  0  0  0
   -6.8618    0.1295    2.7007 H   0  0  0  0  0  0  0  0  0  0  0  0
   -4.7927   -1.2922    2.9679 H   0  0  0  0  0  0  0  0  0  0  0  0
   -4.2677   -1.2647   -1.2688 H   0  0  0  0  0  0  0  0  0  0  0  0
   -6.2693    0.1111   -1.5853 H   0  0  0  0  0  0  0  0  0  0  0  0
   -0.5280   -1.2064   -1.6645 H   0  0  0  0  0  0  0  0  0  0  0  0
    1.4278   -1.8933    1.4954 H   0  0  0  0  0  0  0  0  0  0  0  0
    3.8685   -1.2716    1.6476 H   0  0  0  0  0  0  0  0  0  0  0  0
    5.8467   -0.3363   -1.2875 H   0  0  0  0  0  0  0  0  0  0  0  0
    5.9498   -0.7769    0.4257 H   0  0  0  0  0  0  0  0  0  0  0  0
    4.8914    1.8575   -0.7306 H   0  0  0  0  0  0  0  0  0  0  0  0
    4.8721    1.4655    1.0042 H   0  0  0  0  0  0  0  0  0  0  0  0
    7.8977    2.3285    1.7746 H   0  0  0  0  0  0  0  0  0  0  0  0
    7.1244    0.7359    1.8121 H   0  0  0  0  0  0  0  0  0  0  0  0
    9.6553    0.9095    1.5226 H   0  0  0  0  0  0  0  0  0  0  0  0
    8.8602   -0.1284    0.2267 H   0  0  0  0  0  0  0  0  0  0  0  0
    9.1709    2.4256   -2.1705 H   0  0  0  0  0  0  0  0  0  0  0  0
    8.7120    0.7448   -1.9258 H   0  0  0  0  0  0  0  0  0  0  0  0
    7.4002    3.3934   -1.1628 H   0  0  0  0  0  0  0  0  0  0  0  0
    6.6144    2.0044   -1.9524 H   0  0  0  0  0  0  0  0  0  0  0  0
    3.8110    0.1178   -2.3357 H   0  0  0  0  0  0  0  0  0  0  0  0
    1.4922   -0.4474   -2.5554 H   0  0  0  0  0  0  0  0  0  0  0  0
   -1.4997   -4.5912    2.2959 H   0  0  0  0  0  0  0  0  0  0  0  0
  1  2  1  0
  2  3  1  0
  2  4  1  0
  2  5  1  0
  5  6  2  0
  6  7  1  0
  7  8  2  0
  8  9  1  0
  9 10  2  0
  8 11  1  0
 11 12  2  0
 12 13  1  0
 13 14  1  0
 14 15  1  0
 15 16  2  0
 16 17  1  0
 17 18  2  0
 18 19  1  0
 19 20  1  0
 20 21  1  0
 21 22  1  0
 22 23  1  0
 23 24  1  0
 24 25  1  0
 25 26  1  0
 18 27  1  0
 27 28  2  0
 13 29  2  0
 29 30  1  0
 30 31  2  0
 31 32  1  0
 10  5  1  0
 31 11  1  0
 28 15  1  0
 26 21  1  0
  1 33  1  0
  1 34  1  0
  1 35  1  0
  3 36  1  0
  3 37  1  0
  3 38  1  0
  4 39  1  0
  4 40  1  0
  6 41  1  0
  7 42  1  0
  9 43  1  0
 10 44  1  0
 14 45  1  0
 16 46  1  0
 17 47  1  0
 19 48  1  0
 19 49  1  0
 20 50  1  0
 20 51  1  0
 22 52  1  0
 22 53  1  0
 23 54  1  0
 23 55  1  0
 25 56  1  0
 25 57  1  0
 26 58  1  0
 26 59  1  0
 27 60  1  0
 28 61  1  0
 30 62  1  0
M  END
$$$$
