@<TRIPOS>MOLECULE
*****
 62 65 0 0 0
SMALL
GASTEIGER

@<TRIPOS>ATOM
      1 C          -9.1326    0.2684    0.2920 C.3     1  UNL1       -0.0431
      2 C          -7.8701    1.0679    0.3744 C.3     1  UNL1        0.0363
      3 C          -7.7045    1.9120   -0.8951 C.3     1  UNL1       -0.0431
      4 N          -7.9551    2.0144    1.4832 N.3     1  UNL1       -0.3215
      5 C          -6.6821    0.2002    0.5745 C.ar    1  UNL1       -0.0281
      6 C          -6.2808   -0.1845    1.8385 C.ar    1  UNL1       -0.0562
      7 C          -5.1472   -0.9634    1.9817 C.ar    1  UNL1       -0.0522
      8 C          -4.4721   -1.3158    0.8313 C.ar    1  UNL1        0.0020
      9 C          -4.8814   -0.9265   -0.4380 C.ar    1  UNL1       -0.0522
     10 C          -6.0106   -0.1522   -0.5716 C.ar    1  UNL1       -0.0562
     11 C          -3.2355   -2.1187    0.9745 C.ar    1  UNL1        0.0943
     12 N          -2.2390   -1.6242    0.2003 N.ar    1  UNL1       -0.2128
     13 C          -0.9999   -2.1353    0.1422 C.ar    1  UNL1        0.2201
     14 N          -0.0661   -1.4858   -0.7481 N.pl3   1  UNL1       -0.2836
     15 C           1.3088   -1.2035   -0.5491 C.ar    1  UNL1        0.0336
     16 C           1.9345   -1.4587    0.6589 C.ar    1  UNL1       -0.0402
     17 C           3.2766   -1.1204    0.7553 C.ar    1  UNL1       -0.0568
     18 C           3.9933   -0.5555   -0.2779 C.ar    1  UNL1       -0.0460
     19 C           5.4131   -0.1302   -0.2985 C.3     1  UNL1       -0.0149
     20 C           5.4590    1.3250    0.0893 C.3     1  UNL1        0.0030
     21 N           6.7614    1.8973    0.1191 N.3     1  UNL1       -0.2977
     22 C           7.6355    1.4431    1.1308 C.3     1  UNL1        0.0224
     23 C           8.9493    0.8943    0.6389 C.3     1  UNL1        0.0604
     24 O           9.4794    1.7987   -0.2797 O.3     1  UNL1       -0.3772
     25 C           8.6949    1.7293   -1.4193 C.3     1  UNL1        0.0604
     26 C           7.3262    2.2649   -1.1315 C.3     1  UNL1        0.0224
     27 C           3.3195   -0.3202   -1.4740 C.ar    1  UNL1       -0.0568
     28 C           1.9958   -0.6439   -1.5962 C.ar    1  UNL1       -0.0402
     29 N          -0.6954   -3.2095    0.8879 N.ar    1  UNL1       -0.2212
     30 C          -1.6584   -3.7293    1.6680 C.ar    1  UNL1        0.0516
     31 C          -2.9224   -3.2155    1.7338 C.ar    1  UNL1        0.0851
     32 CL         -4.2687   -3.7730    2.6872 Cl      1  UNL1       -0.0797
     33 H          -8.9109   -0.7859    0.0872 H       1  UNL1        0.0251
     34 H          -9.7123    0.3525    1.2583 H       1  UNL1        0.0251
     35 H          -9.7876    0.6810   -0.5046 H       1  UNL1        0.0251
     36 H          -8.2152    1.3480   -1.7160 H       1  UNL1        0.0251
     37 H          -8.1956    2.8819   -0.6943 H       1  UNL1        0.0251
     38 H          -6.6369    2.0647   -1.0884 H       1  UNL1        0.0251
     39 H          -6.9484    2.3464    1.6068 H       1  UNL1        0.1190
     40 H          -8.2940    1.5469    2.3694 H       1  UNL1        0.1190
     41 H          -6.8618    0.1295    2.7007 H       1  UNL1        0.0621
     42 H          -4.7927   -1.2922    2.9679 H       1  UNL1        0.0624
     43 H          -4.2677   -1.2647   -1.2688 H       1  UNL1        0.0624
     44 H          -6.2693    0.1111   -1.5853 H       1  UNL1        0.0621
     45 H          -0.5280   -1.2064   -1.6645 H       1  UNL1        0.1550
     46 H           1.4278   -1.8933    1.4954 H       1  UNL1        0.0636
     47 H           3.8685   -1.2716    1.6476 H       1  UNL1        0.0621
     48 H           5.8467   -0.3363   -1.2875 H       1  UNL1        0.0326
     49 H           5.9498   -0.7769    0.4257 H       1  UNL1        0.0326
     50 H           4.8914    1.8575   -0.7306 H       1  UNL1        0.0430
     51 H           4.8721    1.4655    1.0042 H       1  UNL1        0.0430
     52 H           7.8977    2.3285    1.7746 H       1  UNL1        0.0449
     53 H           7.1244    0.7359    1.8121 H       1  UNL1        0.0449
     54 H           9.6553    0.9095    1.5226 H       1  UNL1        0.0572
     55 H           8.8602   -0.1284    0.2267 H       1  UNL1        0.0572
     56 H           9.1709    2.4256   -2.1705 H       1  UNL1        0.0572
     57 H           8.7120    0.7448   -1.9258 H       1  UNL1        0.0572
     58 H           7.4002    3.3934   -1.1628 H       1  UNL1        0.0449
     59 H           6.6144    2.0044   -1.9524 H       1  UNL1        0.0449
     60 H           3.8110    0.1178   -2.3357 H       1  UNL1        0.0621
     61 H           1.4922   -0.4474   -2.5554 H       1  UNL1        0.0636
     62 H          -1.4997   -4.5912    2.2959 H       1  UNL1        0.0846
@<TRIPOS>BOND
     1     1     2    1
     2     2     3    1
     3     2     4    1
     4     2     5    1
     5     5     6   ar
     6     6     7   ar
     7     7     8   ar
     8     8     9   ar
     9     9    10   ar
    10     8    11    1
    11    11    12   ar
    12    12    13   ar
    13    13    14    1
    14    14    15    1
    15    15    16   ar
    16    16    17   ar
    17    17    18   ar
    18    18    19    1
    19    19    20    1
    20    20    21    1
    21    21    22    1
    22    22    23    1
    23    23    24    1
    24    24    25    1
    25    25    26    1
    26    18    27   ar
    27    27    28   ar
    28    13    29   ar
    29    29    30   ar
    30    30    31   ar
    31    31    32    1
    32    10     5   ar
    33    31    11   ar
    34    28    15   ar
    35    26    21    1
    36     1    33    1
    37     1    34    1
    38     1    35    1
    39     3    36    1
    40     3    37    1
    41     3    38    1
    42     4    39    1
    43     4    40    1
    44     6    41    1
    45     7    42    1
    46     9    43    1
    47    10    44    1
    48    14    45    1
    49    16    46    1
    50    17    47    1
    51    19    48    1
    52    19    49    1
    53    20    50    1
    54    20    51    1
    55    22    52    1
    56    22    53    1
    57    23    54    1
    58    23    55    1
    59    25    56    1
    60    25    57    1
    61    26    58    1
    62    26    59    1
    63    27    60    1
    64    28    61    1
    65    30    62    1
