
     RDKit          3D

 55 58  0  0  0  0  0  0  0  0999 V2000
   -4.7793    1.8108    1.9548 C   0  0  0  0  0  0  0  0  0  0  0  0
   -4.7854    1.9785    0.5205 N   0  0  0  0  0  0  0  0  0  0  0  0
   -3.5818    2.2989   -0.1785 C   0  0  0  0  0  0  0  0  0  0  0  0
   -2.5123    1.2813   -0.0154 C   0  0  0  0  0  0  0  0  0  0  0  0
   -2.3669    0.2067   -0.8679 C   0  0  0  0  0  0  0  0  0  0  0  0
   -1.3529   -0.7213   -0.6789 C   0  0  0  0  0  0  0  0  0  0  0  0
   -0.4514   -0.6141    0.3601 C   0  0  0  0  0  0  0  0  0  0  0  0
    0.5924   -1.6205    0.5071 C   0  0  0  0  0  0  0  0  0  0  0  0
    0.6608   -2.5724   -0.3108 O   0  0  0  0  0  0  0  0  0  0  0  0
    1.5627   -1.6007    1.5357 N   0  0  0  0  0  0  0  0  0  0  0  0
    2.5745   -2.6245    1.6331 C   0  0  0  0  0  0  0  0  0  0  0  0
    2.3815   -3.7762    2.3603 C   0  0  0  0  0  0  0  0  0  0  0  0
    3.3189   -4.7607    2.4705 C   0  0  0  0  0  0  0  0  0  0  0  0
    4.5097   -4.5800    1.8180 C   0  0  0  0  0  0  0  0  0  0  0  0
    5.7315   -5.8093    1.9319 Cl  0  0  0  0  0  0  0  0  0  0  0  0
    4.7423   -3.4379    1.0778 C   0  0  0  0  0  0  0  0  0  0  0  0
    3.7950   -2.4452    0.9676 C   0  0  0  0  0  0  0  0  0  0  0  0
    4.0367   -1.2524    0.1950 C   0  0  0  0  0  0  0  0  0  0  0  0
    3.1404   -0.3653    0.1195 O   0  0  0  0  0  0  0  0  0  0  0  0
    5.2448   -1.0191   -0.4945 N   0  0  0  0  0  0  0  0  0  0  0  0
    5.4067    0.1981   -1.2437 C   0  0  0  0  0  0  0  0  0  0  0  0
    6.5671    0.4692   -1.9319 C   0  0  0  0  0  0  0  0  0  0  0  0
    6.7319    1.6397   -2.6565 C   0  0  0  0  0  0  0  0  0  0  0  0
    5.6801    2.5387   -2.6666 C   0  0  0  0  0  0  0  0  0  0  0  0
    5.8468    4.0446   -3.5780 Cl  0  0  0  0  0  0  0  0  0  0  0  0
    4.5294    2.2512   -1.9739 C   0  0  0  0  0  0  0  0  0  0  0  0
    4.4276    1.1088   -1.2940 N   0  0  0  0  0  0  0  0  0  0  0  0
   -0.5928    0.4502    1.2071 C   0  0  0  0  0  0  0  0  0  0  0  0
   -1.6076    1.3791    1.0181 C   0  0  0  0  0  0  0  0  0  0  0  0
   -6.0216    1.8197   -0.2057 C   0  0  0  0  0  0  0  0  0  0  0  0
   -6.3430    0.8136   -0.9306 N   0  0  0  0  0  0  0  0  0  0  0  0
   -7.6423    0.9282   -1.5373 C   0  0  0  0  0  0  0  0  0  0  0  0
   -8.2250    2.1114   -0.7729 C   0  0  0  0  0  0  0  0  0  0  0  0
   -7.0644    2.7213   -0.2429 O   0  0  0  0  0  0  0  0  0  0  0  0
   -5.8231    1.9097    2.3722 H   0  0  0  0  0  0  0  0  0  0  0  0
   -4.4186    0.7948    2.2594 H   0  0  0  0  0  0  0  0  0  0  0  0
   -4.1568    2.5662    2.4744 H   0  0  0  0  0  0  0  0  0  0  0  0
   -3.7897    2.3692   -1.2830 H   0  0  0  0  0  0  0  0  0  0  0  0
   -3.1753    3.3015    0.0965 H   0  0  0  0  0  0  0  0  0  0  0  0
   -3.0661    0.1165   -1.6802 H   0  0  0  0  0  0  0  0  0  0  0  0
   -1.3067   -1.5337   -1.3897 H   0  0  0  0  0  0  0  0  0  0  0  0
    1.5339   -0.8261    2.2291 H   0  0  0  0  0  0  0  0  0  0  0  0
    1.4388   -3.8998    2.8661 H   0  0  0  0  0  0  0  0  0  0  0  0
    3.1046   -5.6595    3.0676 H   0  0  0  0  0  0  0  0  0  0  0  0
    5.7246   -3.3721    0.5857 H   0  0  0  0  0  0  0  0  0  0  0  0
    6.0293   -1.6983   -0.4824 H   0  0  0  0  0  0  0  0  0  0  0  0
    7.3561   -0.2697   -1.8885 H   0  0  0  0  0  0  0  0  0  0  0  0
    7.6488    1.8542   -3.2005 H   0  0  0  0  0  0  0  0  0  0  0  0
    3.7391    2.9941   -2.0189 H   0  0  0  0  0  0  0  0  0  0  0  0
    0.0815    0.5840    2.0342 H   0  0  0  0  0  0  0  0  0  0  0  0
   -1.7081    2.2215    1.7003 H   0  0  0  0  0  0  0  0  0  0  0  0
   -7.5111    1.1528   -2.6107 H   0  0  0  0  0  0  0  0  0  0  0  0
   -8.2342    0.0093   -1.3729 H   0  0  0  0  0  0  0  0  0  0  0  0
   -8.8836    1.7122    0.0080 H   0  0  0  0  0  0  0  0  0  0  0  0
   -8.7376    2.8228   -1.4662 H   0  0  0  0  0  0  0  0  0  0  0  0
  1  2  1  0
  2  3  1  0
  3  4  1  0
  4  5  2  0
  5  6  1  0
  6  7  2  0
  7  8  1  0
  8  9  2  0
  8 10  1  0
 10 11  1  0
 11 12  2  0
 12 13  1  0
 13 14  2  0
 14 15  1  0
 14 16  1  0
 16 17  2  0
 17 18  1  0
 18 19  2  0
 18 20  1  0
 20 21  1  0
 21 22  2  0
 22 23  1  0
 23 24  2  0
 24 25  1  0
 24 26  1  0
 26 27  2  0
  7 28  1  0
 28 29  2  0
  2 30  1  0
 30 31  2  0
 31 32  1  0
 32 33  1  0
 33 34  1  0
 29  4  1  0
 34 30  1  0
 17 11  1  0
 27 21  1  0
  1 35  1  0
  1 36  1  0
  1 37  1  0
  3 38  1  0
  3 39  1  0
  5 40  1  0
  6 41  1  0
 10 42  1  0
 12 43  1  0
 13 44  1  0
 16 45  1  0
 20 46  1  0
 22 47  1  0
 23 48  1  0
 26 49  1  0
 28 50  1  0
 29 51  1  0
 32 52  1  0
 32 53  1  0
 33 54  1  0
 33 55  1  0
M  END
$$$$
