@<TRIPOS>MOLECULE
*****
 55 58 0 0 0
SMALL
GASTEIGER

@<TRIPOS>ATOM
      1 C          -4.7793    1.8108    1.9548 C.3     1  UNL1        0.0051
      2 N          -4.7854    1.9785    0.5205 N.pl3   1  UNL1       -0.2844
      3 C          -3.5818    2.2989   -0.1785 C.3     1  UNL1        0.0410
      4 C          -2.5123    1.2813   -0.0154 C.ar    1  UNL1       -0.0300
      5 C          -2.3669    0.2067   -0.8679 C.ar    1  UNL1       -0.0564
      6 C          -1.3529   -0.7213   -0.6789 C.ar    1  UNL1       -0.0493
      7 C          -0.4514   -0.6141    0.3601 C.ar    1  UNL1        0.0370
      8 C           0.5924   -1.6205    0.5071 C.2     1  UNL1        0.2483
      9 O           0.6608   -2.5724   -0.3108 O.2     1  UNL1       -0.2699
     10 N           1.5627   -1.6007    1.5357 N.am    1  UNL1       -0.2808
     11 C           2.5745   -2.6245    1.6331 C.ar    1  UNL1        0.0459
     12 C           2.3815   -3.7762    2.3603 C.ar    1  UNL1       -0.0384
     13 C           3.3189   -4.7607    2.4705 C.ar    1  UNL1       -0.0416
     14 C           4.5097   -4.5800    1.8180 C.ar    1  UNL1        0.0418
     15 CL          5.7315   -5.8093    1.9319 Cl      1  UNL1       -0.0835
     16 C           4.7423   -3.4379    1.0778 C.ar    1  UNL1       -0.0295
     17 C           3.7950   -2.4452    0.9676 C.ar    1  UNL1        0.0596
     18 C           4.0367   -1.2524    0.1950 C.2     1  UNL1        0.2511
     19 O           3.1404   -0.3653    0.1195 O.2     1  UNL1       -0.2697
     20 N           5.2448   -1.0191   -0.4945 N.am    1  UNL1       -0.2663
     21 C           5.4067    0.1981   -1.2437 C.ar    1  UNL1        0.1252
     22 C           6.5671    0.4692   -1.9319 C.ar    1  UNL1       -0.0201
     23 C           6.7319    1.6397   -2.6565 C.ar    1  UNL1       -0.0387
     24 C           5.6801    2.5387   -2.6666 C.ar    1  UNL1        0.0592
     25 CL          5.8468    4.0446   -3.5780 Cl      1  UNL1       -0.0820
     26 C           4.5294    2.2512   -1.9739 C.ar    1  UNL1        0.0480
     27 N           4.4276    1.1088   -1.2940 N.ar    1  UNL1       -0.2387
     28 C          -0.5928    0.4502    1.2071 C.ar    1  UNL1       -0.0493
     29 C          -1.6076    1.3791    1.0181 C.ar    1  UNL1       -0.0564
     30 C          -6.0216    1.8197   -0.2057 C.2     1  UNL1        0.2806
     31 N          -6.3430    0.8136   -0.9306 N.2     1  UNL1       -0.2333
     32 C          -7.6423    0.9282   -1.5373 C.3     1  UNL1        0.0788
     33 C          -8.2250    2.1114   -0.7729 C.3     1  UNL1        0.1120
     34 O          -7.0644    2.7213   -0.2429 O.2     1  UNL1       -0.4638
     35 H          -5.8231    1.9097    2.3722 H       1  UNL1        0.0429
     36 H          -4.4186    0.7948    2.2594 H       1  UNL1        0.0429
     37 H          -4.1568    2.5662    2.4744 H       1  UNL1        0.0429
     38 H          -3.7897    2.3692   -1.2830 H       1  UNL1        0.0514
     39 H          -3.1753    3.3015    0.0965 H       1  UNL1        0.0514
     40 H          -3.0661    0.1165   -1.6802 H       1  UNL1        0.0621
     41 H          -1.3067   -1.5337   -1.3897 H       1  UNL1        0.0625
     42 H           1.5339   -0.8261    2.2291 H       1  UNL1        0.1552
     43 H           1.4388   -3.8998    2.8661 H       1  UNL1        0.0637
     44 H           3.1046   -5.6595    3.0676 H       1  UNL1        0.0633
     45 H           5.7246   -3.3721    0.5857 H       1  UNL1        0.0640
     46 H           6.0293   -1.6983   -0.4824 H       1  UNL1        0.1566
     47 H           7.3561   -0.2697   -1.8885 H       1  UNL1        0.0652
     48 H           7.6488    1.8542   -3.2005 H       1  UNL1        0.0634
     49 H           3.7391    2.9941   -2.0189 H       1  UNL1        0.0845
     50 H           0.0815    0.5840    2.0342 H       1  UNL1        0.0625
     51 H          -1.7081    2.2215    1.7003 H       1  UNL1        0.0621
     52 H          -7.5111    1.1528   -2.6107 H       1  UNL1        0.0543
     53 H          -8.2342    0.0093   -1.3729 H       1  UNL1        0.0543
     54 H          -8.8836    1.7122    0.0080 H       1  UNL1        0.0716
     55 H          -8.7376    2.8228   -1.4662 H       1  UNL1        0.0716
@<TRIPOS>BOND
     1     1     2    1
     2     2     3    1
     3     3     4    1
     4     4     5   ar
     5     5     6   ar
     6     6     7   ar
     7     7     8    1
     8     8     9    2
     9     8    10   am
    10    10    11    1
    11    11    12   ar
    12    12    13   ar
    13    13    14   ar
    14    14    15    1
    15    14    16   ar
    16    16    17   ar
    17    17    18    1
    18    18    19    2
    19    18    20   am
    20    20    21    1
    21    21    22   ar
    22    22    23   ar
    23    23    24   ar
    24    24    25    1
    25    24    26   ar
    26    26    27   ar
    27     7    28   ar
    28    28    29   ar
    29     2    30    1
    30    30    31    2
    31    31    32    1
    32    32    33    1
    33    33    34    1
    34    29     4   ar
    35    34    30    1
    36    17    11   ar
    37    27    21   ar
    38     1    35    1
    39     1    36    1
    40     1    37    1
    41     3    38    1
    42     3    39    1
    43     5    40    1
    44     6    41    1
    45    10    42    1
    46    12    43    1
    47    13    44    1
    48    16    45    1
    49    20    46    1
    50    22    47    1
    51    23    48    1
    52    26    49    1
    53    28    50    1
    54    29    51    1
    55    32    52    1
    56    32    53    1
    57    33    54    1
    58    33    55    1
