@<TRIPOS>MOLECULE
*****
 67 71 0 0 0
SMALL
GASTEIGER

@<TRIPOS>ATOM
      1 C           8.9555    1.6369    3.2755 C.3     1  UNL1        0.0805
      2 O           8.1108    1.4239    2.1847 O.3     1  UNL1       -0.4774
      3 C           7.4259    0.2431    1.9277 C.ar    1  UNL1        0.2552
      4 N           7.4137   -0.9059    2.6251 N.ar    1  UNL1       -0.1317
      5 N           6.6388   -1.7982    2.0583 N.ar    1  UNL1       -0.2692
      6 C           6.3731   -3.1485    2.5151 C.3     1  UNL1        0.0304
      7 C           6.1176   -1.2189    0.9427 C.ar    1  UNL1        0.0503
      8 C           6.5998    0.0696    0.8394 C.ar    1  UNL1        0.1152
      9 N           6.2911    1.0194   -0.1952 N.pl3   1  UNL1       -0.2782
     10 C           5.4191    0.6634   -1.2476 C.ar    1  UNL1        0.2201
     11 N           5.9276    0.1319   -2.3668 N.ar    1  UNL1       -0.2226
     12 C           5.1880   -0.2314   -3.4065 C.ar    1  UNL1        0.0332
     13 C           3.8074   -0.0592   -3.3510 C.ar    1  UNL1       -0.0173
     14 C           3.2504    0.4768   -2.2289 C.ar    1  UNL1        0.0780
     15 C           1.8325    0.7553   -2.0706 C.ar    1  UNL1        0.0256
     16 C           1.3482    1.7031   -1.1705 C.ar    1  UNL1        0.0120
     17 N           0.0289    1.7192   -1.2105 N.ar    1  UNL1       -0.3586
     18 C          -0.3975    0.8045   -2.1149 C.ar    1  UNL1        0.0686
     19 C          -1.6500    0.4472   -2.4943 C.ar    1  UNL1        0.0576
     20 N          -2.7721    1.1089   -1.9031 N.am    1  UNL1       -0.2825
     21 C          -3.3531    0.5602   -0.7140 C.2     1  UNL1        0.2342
     22 O          -2.8421   -0.4786   -0.2542 O.2     1  UNL1       -0.2738
     23 C          -4.5126    1.2218   -0.0798 C.3     1  UNL1        0.0848
     24 C          -5.6014    1.4849   -1.0981 C.3     1  UNL1       -0.0409
     25 N          -4.9845    0.4001    1.0129 N.3     1  UNL1       -0.2893
     26 C          -6.0027    1.0386    1.7886 C.3     1  UNL1        0.0124
     27 C          -7.3463    0.4224    1.7804 C.3     1  UNL1        0.0114
     28 N          -7.2254   -0.9897    2.0514 N.3     1  UNL1       -0.3029
     29 C          -6.6603   -1.3236    3.3137 C.3     1  UNL1       -0.0127
     30 C          -6.5103   -1.5655    0.9517 C.3     1  UNL1        0.0114
     31 C          -5.1954   -0.9574    0.6595 C.3     1  UNL1        0.0124
     32 C          -1.8290   -0.5465   -3.4404 C.ar    1  UNL1       -0.0384
     33 C          -0.7310   -1.1513   -3.9752 C.ar    1  UNL1       -0.0593
     34 C           0.5494   -0.7854   -3.5876 C.ar    1  UNL1       -0.0518
     35 C           0.7279    0.2021   -2.6507 C.ar    1  UNL1        0.0107
     36 N           4.1025    0.8266   -1.1947 N.ar    1  UNL1       -0.2142
     37 H          10.0110    1.8760    2.9833 H       1  UNL1        0.0660
     38 H           8.6124    2.4925    3.8989 H       1  UNL1        0.0660
     39 H           9.0395    0.7515    3.9549 H       1  UNL1        0.0660
     40 H           7.1473   -3.5218    3.1826 H       1  UNL1        0.0473
     41 H           6.2536   -3.7885    1.5927 H       1  UNL1        0.0473
     42 H           5.3471   -3.1310    2.9730 H       1  UNL1        0.0473
     43 H           5.4464   -1.6940    0.2668 H       1  UNL1        0.0846
     44 H           6.6965    1.9730   -0.1911 H       1  UNL1        0.1552
     45 H           5.6029   -0.6525   -4.2902 H       1  UNL1        0.0831
     46 H           3.2256   -0.3306   -4.2225 H       1  UNL1        0.0654
     47 H           1.9659    2.3165   -0.5495 H       1  UNL1        0.0814
     48 H          -0.6036    2.3239   -0.6512 H       1  UNL1        0.1654
     49 H          -3.1479    1.9752   -2.3436 H       1  UNL1        0.1549
     50 H          -4.2350    2.2085    0.3472 H       1  UNL1        0.0556
     51 H          -5.9880    0.5105   -1.4786 H       1  UNL1        0.0249
     52 H          -5.1357    2.0900   -1.9022 H       1  UNL1        0.0249
     53 H          -6.4189    2.0287   -0.6185 H       1  UNL1        0.0249
     54 H          -5.6398    1.1485    2.8190 H       1  UNL1        0.0439
     55 H          -6.1054    2.0832    1.3862 H       1  UNL1        0.0439
     56 H          -7.9277    0.8533    2.6350 H       1  UNL1        0.0439
     57 H          -7.8932    0.5305    0.8206 H       1  UNL1        0.0439
     58 H          -5.9398   -2.1580    3.1536 H       1  UNL1        0.0391
     59 H          -6.1241   -0.5328    3.8422 H       1  UNL1        0.0391
     60 H          -7.4322   -1.7239    4.0080 H       1  UNL1        0.0391
     61 H          -7.1923   -1.5015    0.0670 H       1  UNL1        0.0439
     62 H          -6.3589   -2.6571    1.1398 H       1  UNL1        0.0439
     63 H          -4.3733   -1.6069    1.0758 H       1  UNL1        0.0439
     64 H          -5.0607   -1.0187   -0.4642 H       1  UNL1        0.0439
     65 H          -2.8282   -0.8069   -3.7200 H       1  UNL1        0.0637
     66 H          -0.8211   -1.9339   -4.7177 H       1  UNL1        0.0618
     67 H           1.3827   -1.3039   -4.0122 H       1  UNL1        0.0624
@<TRIPOS>BOND
     1     1     2    1
     2     2     3    1
     3     3     4   ar
     4     4     5   ar
     5     5     6    1
     6     5     7   ar
     7     7     8   ar
     8     8     9    1
     9     9    10    1
    10    10    11   ar
    11    11    12   ar
    12    12    13   ar
    13    13    14   ar
    14    14    15    1
    15    15    16   ar
    16    16    17   ar
    17    17    18   ar
    18    18    19   ar
    19    19    20    1
    20    20    21   am
    21    21    22    2
    22    21    23    1
    23    23    24    1
    24    23    25    1
    25    25    26    1
    26    26    27    1
    27    27    28    1
    28    28    29    1
    29    28    30    1
    30    30    31    1
    31    19    32   ar
    32    32    33   ar
    33    33    34   ar
    34    34    35   ar
    35    14    36   ar
    36     8     3   ar
    37    36    10   ar
    38    35    15   ar
    39    35    18   ar
    40    31    25    1
    41     1    37    1
    42     1    38    1
    43     1    39    1
    44     6    40    1
    45     6    41    1
    46     6    42    1
    47     7    43    1
    48     9    44    1
    49    12    45    1
    50    13    46    1
    51    16    47    1
    52    17    48    1
    53    20    49    1
    54    23    50    1
    55    24    51    1
    56    24    52    1
    57    24    53    1
    58    26    54    1
    59    26    55    1
    60    27    56    1
    61    27    57    1
    62    29    58    1
    63    29    59    1
    64    29    60    1
    65    30    61    1
    66    30    62    1
    67    31    63    1
    68    31    64    1
    69    32    65    1
    70    33    66    1
    71    34    67    1
