@<TRIPOS>MOLECULE
*****
 51 53 0 0 0
SMALL
GASTEIGER

@<TRIPOS>ATOM
      1 C          -6.2243   -1.8042   -1.7013 C.3     1  UNL1        0.0134
      2 N          -6.1343   -0.3974   -1.3030 N.ar    1  UNL1       -0.3296
      3 C          -6.8293    0.6049   -1.8429 C.ar    1  UNL1        0.0962
      4 N          -6.4682    1.7299   -1.2108 N.ar    1  UNL1       -0.2433
      5 C          -5.5499    1.4466   -0.2752 C.ar    1  UNL1        0.0579
      6 C          -5.3530    0.0953   -0.3503 C.ar    1  UNL1        0.1237
      7 C          -4.4286   -0.6482    0.4955 C.2     1  UNL1        0.2646
      8 O          -4.8851   -1.5537    1.2363 O.2     1  UNL1       -0.2683
      9 N          -3.0387   -0.3848    0.5095 N.am    1  UNL1       -0.2963
     10 C          -2.5231    0.6613   -0.3468 C.3     1  UNL1        0.0156
     11 C          -1.0363    0.4081   -0.4691 C.3     1  UNL1       -0.0302
     12 C          -0.3214    0.6268    0.8443 C.3     1  UNL1       -0.0125
     13 C           1.0992    0.2399    0.6651 C.ar    1  UNL1       -0.0325
     14 C           1.4828   -1.1005    0.7178 C.ar    1  UNL1       -0.0570
     15 C           2.7983   -1.4741    0.5341 C.ar    1  UNL1       -0.0479
     16 C           3.7828   -0.5497    0.2926 C.ar    1  UNL1        0.0536
     17 C           5.1419   -0.9730    0.1115 C.2     1  UNL1        0.3066
     18 O           5.4030   -2.2115    0.2162 O.2     1  UNL1       -0.2516
     19 N           6.1802   -0.0673   -0.1750 N.am    1  UNL1       -0.1709
     20 C           7.5356   -0.4159   -0.3624 C.2     1  UNL1        0.3751
     21 N           7.9411   -1.5946   -0.2851 N.pl3   1  UNL1       -0.1313
     22 N           8.4694    0.6687   -0.6546 N.pl3   1  UNL1       -0.2906
     23 C           3.4172    0.7611    0.2399 C.ar    1  UNL1       -0.0363
     24 C           2.0748    1.1742    0.4250 C.ar    1  UNL1        0.0590
     25 C           1.7360    2.6164    0.3808 C.3     1  UNL1        0.4177
     26 F           1.2071    3.0776    1.5883 F       1  UNL1       -0.1659
     27 F           0.9729    2.9885   -0.6822 F       1  UNL1       -0.1659
     28 F           2.9368    3.3332    0.2497 F       1  UNL1       -0.1659
     29 C          -1.0078   -0.2029    1.8965 C.3     1  UNL1       -0.0302
     30 C          -2.0862   -1.0999    1.3288 C.3     1  UNL1        0.0156
     31 H          -5.2446   -2.2361   -1.9361 H       1  UNL1        0.0456
     32 H          -6.6570   -2.3836   -0.8347 H       1  UNL1        0.0456
     33 H          -6.8737   -1.8949   -2.5882 H       1  UNL1        0.0456
     34 H          -7.5603    0.5043   -2.6569 H       1  UNL1        0.1029
     35 H          -5.0599    2.1488    0.4068 H       1  UNL1        0.0853
     36 H          -2.9613    0.5173   -1.3528 H       1  UNL1        0.0465
     37 H          -2.7373    1.6641    0.0730 H       1  UNL1        0.0465
     38 H          -0.9418   -0.6922   -0.7088 H       1  UNL1        0.0286
     39 H          -0.5784    0.9184   -1.3298 H       1  UNL1        0.0286
     40 H          -0.4744    1.6719    1.1196 H       1  UNL1        0.0350
     41 H           0.7403   -1.8562    0.9057 H       1  UNL1        0.0621
     42 H           3.0818   -2.5188    0.5771 H       1  UNL1        0.0626
     43 H           5.9661    0.9678   -0.2666 H       1  UNL1        0.2545
     44 H           7.4593   -2.4355   -0.0986 H       1  UNL1        0.3060
     45 H           9.0836    0.6017   -1.4702 H       1  UNL1        0.2545
     46 H           8.4435    1.4604    0.0100 H       1  UNL1        0.2545
     47 H           4.1345    1.5655    0.0531 H       1  UNL1        0.0631
     48 H          -0.2691   -0.8505    2.4113 H       1  UNL1        0.0286
     49 H          -1.5103    0.4261    2.6839 H       1  UNL1        0.0286
     50 H          -1.6518   -1.9720    0.7729 H       1  UNL1        0.0465
     51 H          -2.6822   -1.5609    2.1563 H       1  UNL1        0.0465
@<TRIPOS>BOND
     1     1     2    1
     2     2     3   ar
     3     3     4   ar
     4     4     5   ar
     5     5     6   ar
     6     6     7    1
     7     7     8    2
     8     7     9   am
     9     9    10    1
    10    10    11    1
    11    11    12    1
    12    12    13    1
    13    13    14   ar
    14    14    15   ar
    15    15    16   ar
    16    16    17    1
    17    17    18    2
    18    17    19   am
    19    19    20    1
    20    20    21    2
    21    20    22    1
    22    16    23   ar
    23    23    24   ar
    24    24    25    1
    25    25    26    1
    26    25    27    1
    27    25    28    1
    28    12    29    1
    29    29    30    1
    30     6     2   ar
    31    30     9    1
    32    24    13   ar
    33     1    31    1
    34     1    32    1
    35     1    33    1
    36     3    34    1
    37     5    35    1
    38    10    36    1
    39    10    37    1
    40    11    38    1
    41    11    39    1
    42    12    40    1
    43    14    41    1
    44    15    42    1
    45    19    43    1
    46    21    44    1
    47    22    45    1
    48    22    46    1
    49    23    47    1
    50    29    48    1
    51    29    49    1
    52    30    50    1
    53    30    51    1
