@<TRIPOS>MOLECULE
*****
 38 38 0 0 0
SMALL
GASTEIGER

@<TRIPOS>ATOM
      1 C           1.3883   -0.2685   -0.6584 C.3     1  UNL1        0.0983
      2 O           1.4469    0.6995   -1.6595 O.3     1  UNL1       -0.3878
      3 C           0.3027    0.1814    0.3096 C.3     1  UNL1        0.0281
      4 N          -0.9248    0.2569   -0.4186 N.3     1  UNL1       -0.2897
      5 C          -1.4405   -1.0059   -0.8496 C.3     1  UNL1        0.0280
      6 C          -2.8739   -0.6849   -1.2123 C.3     1  UNL1        0.0952
      7 O          -3.6989   -1.5295   -0.4596 O.3     1  UNL1       -0.3879
      8 C          -3.0967    0.7644   -0.8374 C.3     1  UNL1        0.0998
      9 O          -2.8895    1.6128   -1.9357 O.3     1  UNL1       -0.3876
     10 C          -1.9822    0.9965    0.1597 C.3     1  UNL1        0.0621
     11 C          -2.4680    0.5051    1.5046 C.3     1  UNL1        0.0622
     12 O          -1.4495    0.5233    2.4682 O.3     1  UNL1       -0.3934
     13 C           2.7382   -0.3851   -0.0346 C.3     1  UNL1        0.1341
     14 C           2.7417   -1.4002    1.1085 C.3     1  UNL1        0.0751
     15 O           2.3633   -2.6592    0.6813 O.3     1  UNL1       -0.3923
     16 O           3.1220    0.8123    0.5100 O.3     1  UNL1       -0.2607
     17 S           3.9849    1.6972    0.4782 S.3     1  UNL1       -0.0919
     18 O           5.2744    0.9483   -1.0630 O.co2   1  UNL1       -0.2838
     19 O           5.1892    2.2705    1.2796 O.co2   1  UNL1       -0.2838
     20 O           3.6515    3.0011   -0.8263 O.co2   1  UNL1       -0.2838
     21 H           1.0465   -1.2216   -1.1270 H       1  UNL1        0.0633
     22 H           1.3885    0.3026   -2.5704 H       1  UNL1        0.2099
     23 H           0.5638    1.2170    0.6098 H       1  UNL1        0.0453
     24 H           0.2799   -0.4200    1.2208 H       1  UNL1        0.0453
     25 H          -1.3668   -1.8116   -0.0931 H       1  UNL1        0.0453
     26 H          -0.8899   -1.3464   -1.7577 H       1  UNL1        0.0453
     27 H          -3.0494   -0.8556   -2.3015 H       1  UNL1        0.0632
     28 H          -4.5614   -1.0351   -0.3600 H       1  UNL1        0.2099
     29 H          -4.1008    0.9303   -0.3975 H       1  UNL1        0.0636
     30 H          -2.7869    1.0219   -2.7252 H       1  UNL1        0.2100
     31 H          -1.6971    2.0679    0.1910 H       1  UNL1        0.0511
     32 H          -3.2555    1.1832    1.8979 H       1  UNL1        0.0573
     33 H          -2.8876   -0.5003    1.4675 H       1  UNL1        0.0573
     34 H          -1.8012    0.6766    3.3835 H       1  UNL1        0.2095
     35 H           3.4334   -0.7496   -0.8247 H       1  UNL1        0.0668
     36 H           2.0771   -1.0802    1.9108 H       1  UNL1        0.0584
     37 H           3.7919   -1.4579    1.4848 H       1  UNL1        0.0584
     38 H           2.4367   -3.2574    1.4463 H       1  UNL1        0.2095
@<TRIPOS>UNITY_ATOM_ATTR
18 1
charge -1
19 1
charge -1
20 1
charge -1
@<TRIPOS>BOND
     1     1     2    1
     2     1     3    1
     3     3     4    1
     4     4     5    1
     5     5     6    1
     6     6     7    1
     7     6     8    1
     8     8     9    1
     9     8    10    1
    10    10    11    1
    11    11    12    1
    12     1    13    1
    13    13    14    1
    14    14    15    1
    15    13    16    1
    16    16    17    1
    17    17    18    1
    18    17    19    1
    19    17    20    1
    20    10     4    1
    21     1    21    1
    22     2    22    1
    23     3    23    1
    24     3    24    1
    25     5    25    1
    26     5    26    1
    27     6    27    1
    28     7    28    1
    29     8    29    1
    30     9    30    1
    31    10    31    1
    32    11    32    1
    33    11    33    1
    34    12    34    1
    35    13    35    1
    36    14    36    1
    37    14    37    1
    38    15    38    1
