@<TRIPOS>MOLECULE
*****
 55 59 0 0 0
SMALL
GASTEIGER

@<TRIPOS>ATOM
      1 O          -3.3145    0.0372   -4.0255 O.2     1  UNL1       -0.2817
      2 C          -3.5681   -0.4507   -2.8947 C.2     1  UNL1        0.2496
      3 C          -4.8414   -0.5283   -2.1879 C.2     1  UNL1        0.2915
      4 O          -5.9223   -0.0861   -2.6523 O.2     1  UNL1       -0.2661
      5 N          -4.6041   -1.1700   -0.9448 N.am    1  UNL1       -0.2598
      6 C          -5.6253   -1.4363    0.0452 C.3     1  UNL1        0.0452
      7 C          -5.7366   -0.2856    0.9476 C.ar    1  UNL1       -0.0297
      8 C          -6.5964    0.7439    0.6631 C.ar    1  UNL1       -0.0571
      9 C          -6.7141    1.8469    1.5149 C.ar    1  UNL1       -0.0615
     10 C          -5.9324    1.8803    2.6714 C.ar    1  UNL1       -0.0617
     11 C          -5.0665    0.8521    2.9660 C.ar    1  UNL1       -0.0615
     12 C          -4.9851   -0.2194    2.0910 C.ar    1  UNL1       -0.0571
     13 C          -3.2174   -1.4919   -0.8636 C.ar    1  UNL1        0.0481
     14 C          -2.4351   -2.1131    0.1010 C.ar    1  UNL1       -0.0377
     15 C          -1.0752   -2.3020   -0.0864 C.ar    1  UNL1       -0.0335
     16 C          -0.4313   -1.8857   -1.2335 C.ar    1  UNL1        0.1063
     17 S           1.2853   -2.1331   -1.4515 S.O2    1  UNL1        0.0612
     18 O           1.6944   -3.3756   -0.6817 O.2     1  UNL1       -0.1528
     19 O           1.5940   -2.4370   -2.9112 O.2     1  UNL1       -0.1528
     20 N           2.2274   -0.8423   -0.8712 N.3     1  UNL1       -0.1702
     21 C           2.0508    0.4354   -1.4569 C.3     1  UNL1        0.0225
     22 C           3.2480    0.2398   -2.3252 C.3     1  UNL1       -0.0180
     23 C           3.5740   -0.9007   -1.4105 C.3     1  UNL1        0.0671
     24 C           4.6599   -0.5000   -0.4244 C.3     1  UNL1        0.1067
     25 O           4.4519    0.8313    0.0094 O.3     1  UNL1       -0.4904
     26 C           5.3379    1.3864    0.9148 C.ar    1  UNL1        0.1206
     27 C           6.4162    0.6631    1.3979 C.ar    1  UNL1       -0.0199
     28 C           7.3029    1.2081    2.2993 C.ar    1  UNL1       -0.0583
     29 C           7.1521    2.5036    2.7601 C.ar    1  UNL1       -0.0615
     30 C           6.0758    3.2206    2.2757 C.ar    1  UNL1       -0.0583
     31 C           5.1773    2.6795    1.3671 C.ar    1  UNL1       -0.0199
     32 C          -1.2123   -1.2689   -2.1897 C.ar    1  UNL1       -0.0226
     33 C          -2.5707   -1.0718   -2.0201 C.ar    1  UNL1        0.0502
     34 H          -5.3803   -2.3796    0.5845 H       1  UNL1        0.0518
     35 H          -6.5931   -1.5642   -0.5165 H       1  UNL1        0.0518
     36 H          -7.2042    0.7253   -0.2293 H       1  UNL1        0.0621
     37 H          -7.3759    2.6766    1.3305 H       1  UNL1        0.0618
     38 H          -6.0291    2.7477    3.3355 H       1  UNL1        0.0618
     39 H          -4.4852    0.9195    3.8655 H       1  UNL1        0.0618
     40 H          -4.2954   -1.0073    2.3558 H       1  UNL1        0.0621
     41 H          -2.9422   -2.4410    1.0019 H       1  UNL1        0.0637
     42 H          -0.5300   -2.7947    0.7109 H       1  UNL1        0.0638
     43 H           1.0932    0.6370   -1.9713 H       1  UNL1        0.0444
     44 H           2.1980    1.2439   -0.6817 H       1  UNL1        0.0444
     45 H           3.9673    1.0700   -2.3612 H       1  UNL1        0.0295
     46 H           2.9242   -0.1500   -3.3309 H       1  UNL1        0.0295
     47 H           3.8006   -1.8454   -1.9398 H       1  UNL1        0.0514
     48 H           4.7688   -1.2113    0.4020 H       1  UNL1        0.0713
     49 H           5.6123   -0.4844   -1.0124 H       1  UNL1        0.0713
     50 H           6.5324   -0.3462    1.0380 H       1  UNL1        0.0654
     51 H           8.1576    0.6451    2.6868 H       1  UNL1        0.0619
     52 H           7.8380    2.9470    3.4670 H       1  UNL1        0.0618
     53 H           5.9582    4.2363    2.6373 H       1  UNL1        0.0619
     54 H           4.3442    3.2732    1.0093 H       1  UNL1        0.0654
     55 H          -0.7585   -0.9271   -3.0995 H       1  UNL1        0.0645
@<TRIPOS>BOND
     1     1     2    2
     2     2     3    1
     3     3     4    2
     4     3     5   am
     5     5     6    1
     6     6     7    1
     7     7     8   ar
     8     8     9   ar
     9     9    10   ar
    10    10    11   ar
    11    11    12   ar
    12     5    13    1
    13    13    14   ar
    14    14    15   ar
    15    15    16   ar
    16    16    17    1
    17    17    18    2
    18    17    19    2
    19    17    20    1
    20    20    21    1
    21    21    22    1
    22    22    23    1
    23    23    24    1
    24    24    25    1
    25    25    26    1
    26    26    27   ar
    27    27    28   ar
    28    28    29   ar
    29    29    30   ar
    30    30    31   ar
    31    16    32   ar
    32    32    33   ar
    33    33     2    1
    34    12     7   ar
    35    33    13   ar
    36    23    20    1
    37    31    26   ar
    38     6    34    1
    39     6    35    1
    40     8    36    1
    41     9    37    1
    42    10    38    1
    43    11    39    1
    44    12    40    1
    45    14    41    1
    46    15    42    1
    47    21    43    1
    48    21    44    1
    49    22    45    1
    50    22    46    1
    51    23    47    1
    52    24    48    1
    53    24    49    1
    54    27    50    1
    55    28    51    1
    56    29    52    1
    57    30    53    1
    58    31    54    1
    59    32    55    1
