
     RDKit          3D

 55 59  0  0  0  0  0  0  0  0999 V2000
   -3.3145    0.0372   -4.0255 O   0  0  0  0  0  0  0  0  0  0  0  0
   -3.5681   -0.4507   -2.8947 C   0  0  0  0  0  0  0  0  0  0  0  0
   -4.8414   -0.5283   -2.1879 C   0  0  0  0  0  0  0  0  0  0  0  0
   -5.9223   -0.0861   -2.6523 O   0  0  0  0  0  0  0  0  0  0  0  0
   -4.6041   -1.1700   -0.9448 N   0  0  0  0  0  0  0  0  0  0  0  0
   -5.6253   -1.4363    0.0452 C   0  0  0  0  0  0  0  0  0  0  0  0
   -5.7366   -0.2856    0.9476 C   0  0  0  0  0  0  0  0  0  0  0  0
   -6.5964    0.7439    0.6631 C   0  0  0  0  0  0  0  0  0  0  0  0
   -6.7141    1.8469    1.5149 C   0  0  0  0  0  0  0  0  0  0  0  0
   -5.9324    1.8803    2.6714 C   0  0  0  0  0  0  0  0  0  0  0  0
   -5.0665    0.8521    2.9660 C   0  0  0  0  0  0  0  0  0  0  0  0
   -4.9851   -0.2194    2.0910 C   0  0  0  0  0  0  0  0  0  0  0  0
   -3.2174   -1.4919   -0.8636 C   0  0  0  0  0  0  0  0  0  0  0  0
   -2.4351   -2.1131    0.1010 C   0  0  0  0  0  0  0  0  0  0  0  0
   -1.0752   -2.3020   -0.0864 C   0  0  0  0  0  0  0  0  0  0  0  0
   -0.4313   -1.8857   -1.2335 C   0  0  0  0  0  0  0  0  0  0  0  0
    1.2853   -2.1331   -1.4515 S   0  0  0  0  0  6  0  0  0  0  0  0
    1.6944   -3.3756   -0.6817 O   0  0  0  0  0  0  0  0  0  0  0  0
    1.5940   -2.4370   -2.9112 O   0  0  0  0  0  0  0  0  0  0  0  0
    2.2274   -0.8423   -0.8712 N   0  0  0  0  0  0  0  0  0  0  0  0
    2.0508    0.4354   -1.4569 C   0  0  0  0  0  0  0  0  0  0  0  0
    3.2480    0.2398   -2.3252 C   0  0  0  0  0  0  0  0  0  0  0  0
    3.5740   -0.9007   -1.4105 C   0  0  1  0  0  0  0  0  0  0  0  0
    4.6599   -0.5000   -0.4244 C   0  0  0  0  0  0  0  0  0  0  0  0
    4.4519    0.8313    0.0094 O   0  0  0  0  0  0  0  0  0  0  0  0
    5.3379    1.3864    0.9148 C   0  0  0  0  0  0  0  0  0  0  0  0
    6.4162    0.6631    1.3979 C   0  0  0  0  0  0  0  0  0  0  0  0
    7.3029    1.2081    2.2993 C   0  0  0  0  0  0  0  0  0  0  0  0
    7.1521    2.5036    2.7601 C   0  0  0  0  0  0  0  0  0  0  0  0
    6.0758    3.2206    2.2757 C   0  0  0  0  0  0  0  0  0  0  0  0
    5.1773    2.6795    1.3671 C   0  0  0  0  0  0  0  0  0  0  0  0
   -1.2123   -1.2689   -2.1897 C   0  0  0  0  0  0  0  0  0  0  0  0
   -2.5707   -1.0718   -2.0201 C   0  0  0  0  0  0  0  0  0  0  0  0
   -5.3803   -2.3796    0.5845 H   0  0  0  0  0  0  0  0  0  0  0  0
   -6.5931   -1.5642   -0.5165 H   0  0  0  0  0  0  0  0  0  0  0  0
   -7.2042    0.7253   -0.2293 H   0  0  0  0  0  0  0  0  0  0  0  0
   -7.3759    2.6766    1.3305 H   0  0  0  0  0  0  0  0  0  0  0  0
   -6.0291    2.7477    3.3355 H   0  0  0  0  0  0  0  0  0  0  0  0
   -4.4852    0.9195    3.8655 H   0  0  0  0  0  0  0  0  0  0  0  0
   -4.2954   -1.0073    2.3558 H   0  0  0  0  0  0  0  0  0  0  0  0
   -2.9422   -2.4410    1.0019 H   0  0  0  0  0  0  0  0  0  0  0  0
   -0.5300   -2.7947    0.7109 H   0  0  0  0  0  0  0  0  0  0  0  0
    1.0932    0.6370   -1.9713 H   0  0  0  0  0  0  0  0  0  0  0  0
    2.1980    1.2439   -0.6817 H   0  0  0  0  0  0  0  0  0  0  0  0
    3.9673    1.0700   -2.3612 H   0  0  0  0  0  0  0  0  0  0  0  0
    2.9242   -0.1500   -3.3309 H   0  0  0  0  0  0  0  0  0  0  0  0
    3.8006   -1.8454   -1.9398 H   0  0  0  0  0  0  0  0  0  0  0  0
    4.7688   -1.2113    0.4020 H   0  0  0  0  0  0  0  0  0  0  0  0
    5.6123   -0.4844   -1.0124 H   0  0  0  0  0  0  0  0  0  0  0  0
    6.5324   -0.3462    1.0380 H   0  0  0  0  0  0  0  0  0  0  0  0
    8.1576    0.6451    2.6868 H   0  0  0  0  0  0  0  0  0  0  0  0
    7.8380    2.9470    3.4670 H   0  0  0  0  0  0  0  0  0  0  0  0
    5.9582    4.2363    2.6373 H   0  0  0  0  0  0  0  0  0  0  0  0
    4.3442    3.2732    1.0093 H   0  0  0  0  0  0  0  0  0  0  0  0
   -0.7585   -0.9271   -3.0995 H   0  0  0  0  0  0  0  0  0  0  0  0
  1  2  2  0
  2  3  1  0
  3  4  2  0
  3  5  1  0
  5  6  1  0
  6  7  1  0
  7  8  2  0
  8  9  1  0
  9 10  2  0
 10 11  1  0
 11 12  2  0
  5 13  1  0
 13 14  2  0
 14 15  1  0
 15 16  2  0
 16 17  1  0
 17 18  2  0
 17 19  2  0
 17 20  1  0
 20 21  1  0
 21 22  1  0
 22 23  1  0
 23 24  1  0
 24 25  1  0
 25 26  1  0
 26 27  2  0
 27 28  1  0
 28 29  2  0
 29 30  1  0
 30 31  2  0
 16 32  1  0
 32 33  2  0
 33  2  1  0
 12  7  1  0
 33 13  1  0
 23 20  1  0
 31 26  1  0
  6 34  1  0
  6 35  1  0
  8 36  1  0
  9 37  1  0
 10 38  1  0
 11 39  1  0
 12 40  1  0
 14 41  1  0
 15 42  1  0
 21 43  1  0
 21 44  1  0
 22 45  1  0
 22 46  1  0
 23 47  1  6
 24 48  1  0
 24 49  1  0
 27 50  1  0
 28 51  1  0
 29 52  1  0
 30 53  1  0
 31 54  1  0
 32 55  1  0
M  END
$$$$
