
     RDKit          3D

 66 70  0  0  0  0  0  0  0  0999 V2000
   -9.9901    1.5571    2.7369 C   0  0  0  0  0  0  0  0  0  0  0  0
   -9.0254    1.1196    1.3120 S   0  0  0  0  0  6  0  0  0  0  0  0
   -9.7927    0.1046    0.5040 O   0  0  0  0  0  0  0  0  0  0  0  0
   -7.7148    0.5998    1.7961 O   0  0  0  0  0  0  0  0  0  0  0  0
   -8.7508    2.5363    0.3076 C   0  0  0  0  0  0  0  0  0  0  0  0
   -7.9452    2.2208   -0.9088 C   0  0  0  0  0  0  0  0  0  0  0  0
   -6.6442    1.6977   -0.6353 N   0  0  0  0  0  0  0  0  0  0  0  0
   -5.9055    1.3912   -1.8447 C   0  0  0  0  0  0  0  0  0  0  0  0
   -4.5389    0.8545   -1.5514 C   0  0  0  0  0  0  0  0  0  0  0  0
   -3.4074    1.6301   -1.4288 C   0  0  0  0  0  0  0  0  0  0  0  0
   -2.3759    0.7586   -1.1621 C   0  0  0  0  0  0  0  0  0  0  0  0
   -2.8981   -0.5174   -1.1283 C   0  0  0  0  0  0  0  0  0  0  0  0
   -2.1678   -1.7490   -0.8784 C   0  0  0  0  0  0  0  0  0  0  0  0
   -2.7446   -2.9881   -0.8321 C   0  0  0  0  0  0  0  0  0  0  0  0
   -2.0291   -4.1387   -0.5955 C   0  0  0  0  0  0  0  0  0  0  0  0
   -0.6676   -4.0611   -0.3935 C   0  0  0  0  0  0  0  0  0  0  0  0
    0.0795   -5.1478   -0.1569 N   0  0  0  0  0  0  0  0  0  0  0  0
    1.4055   -5.0622    0.0408 C   0  0  0  0  0  0  0  0  0  0  0  0
    1.9981   -3.8613    0.0002 N   0  0  0  0  0  0  0  0  0  0  0  0
    1.3226   -2.7019   -0.2336 C   0  0  0  0  0  0  0  0  0  0  0  0
    1.9753   -1.4615   -0.2781 N   0  0  0  0  0  0  0  0  0  0  0  0
    3.3685   -1.4009    0.0313 C   0  0  0  0  0  0  0  0  0  0  0  0
    4.1991   -0.5156   -0.6413 C   0  0  0  0  0  0  0  0  0  0  0  0
    5.5397   -0.3910   -0.3856 C   0  0  0  0  0  0  0  0  0  0  0  0
    6.1352   -1.1691    0.5860 C   0  0  0  0  0  0  0  0  0  0  0  0
    7.4539   -1.1107    0.9018 O   0  0  0  0  0  0  0  0  0  0  0  0
    8.5602   -0.4371    0.5351 C   0  0  0  0  0  0  0  0  0  0  0  0
    8.5255    1.0243    0.7569 C   0  0  0  0  0  0  0  0  0  0  0  0
    8.7838    1.5227    2.0364 C   0  0  0  0  0  0  0  0  0  0  0  0
    8.7970    2.8884    2.2822 C   0  0  0  0  0  0  0  0  0  0  0  0
    8.5559    3.7947    1.2713 C   0  0  0  0  0  0  0  0  0  0  0  0
    8.2999    3.3230    0.0047 C   0  0  0  0  0  0  0  0  0  0  0  0
    8.0652    4.2174   -0.9775 F   0  0  0  0  0  0  0  0  0  0  0  0
    8.2899    1.9434   -0.2282 C   0  0  0  0  0  0  0  0  0  0  0  0
    5.3136   -2.0708    1.2785 C   0  0  0  0  0  0  0  0  0  0  0  0
    6.0474   -3.0579    2.5034 Cl  0  0  0  0  0  0  0  0  0  0  0  0
    3.9908   -2.1634    0.9947 C   0  0  0  0  0  0  0  0  0  0  0  0
   -0.0313   -2.8096   -0.4322 C   0  0  0  0  0  0  0  0  0  0  0  0
   -0.7879   -1.6814   -0.6725 C   0  0  0  0  0  0  0  0  0  0  0  0
   -4.1803   -0.3848   -1.3666 O   0  0  0  0  0  0  0  0  0  0  0  0
  -10.9315    2.0718    2.4376 H   0  0  0  0  0  0  0  0  0  0  0  0
   -9.4102    2.1754    3.4341 H   0  0  0  0  0  0  0  0  0  0  0  0
  -10.3075    0.6237    3.2420 H   0  0  0  0  0  0  0  0  0  0  0  0
   -9.7397    2.9479    0.0326 H   0  0  0  0  0  0  0  0  0  0  0  0
   -8.2662    3.3509    0.9217 H   0  0  0  0  0  0  0  0  0  0  0  0
   -7.8737    3.1091   -1.5812 H   0  0  0  0  0  0  0  0  0  0  0  0
   -8.5119    1.4496   -1.4876 H   0  0  0  0  0  0  0  0  0  0  0  0
   -6.0928    2.2222    0.0622 H   0  0  0  0  0  0  0  0  0  0  0  0
   -5.8731    2.2107   -2.5651 H   0  0  0  0  0  0  0  0  0  0  0  0
   -6.4621    0.5556   -2.3434 H   0  0  0  0  0  0  0  0  0  0  0  0
   -3.2991    2.6956   -1.5142 H   0  0  0  0  0  0  0  0  0  0  0  0
   -1.3393    1.0617   -1.0093 H   0  0  0  0  0  0  0  0  0  0  0  0
   -3.8120   -3.0714   -0.9888 H   0  0  0  0  0  0  0  0  0  0  0  0
   -2.4829   -5.1262   -0.5577 H   0  0  0  0  0  0  0  0  0  0  0  0
    2.0298   -5.9415    0.2354 H   0  0  0  0  0  0  0  0  0  0  0  0
    1.5183   -0.5844   -0.5234 H   0  0  0  0  0  0  0  0  0  0  0  0
    3.7477    0.1034   -1.4069 H   0  0  0  0  0  0  0  0  0  0  0  0
    6.1503    0.3224   -0.9629 H   0  0  0  0  0  0  0  0  0  0  0  0
    9.5063   -0.8542    0.9801 H   0  0  0  0  0  0  0  0  0  0  0  0
    8.7047   -0.5895   -0.5837 H   0  0  0  0  0  0  0  0  0  0  0  0
    8.9741    0.7921    2.8318 H   0  0  0  0  0  0  0  0  0  0  0  0
    8.9976    3.2615    3.2755 H   0  0  0  0  0  0  0  0  0  0  0  0
    8.5672    4.8673    1.4709 H   0  0  0  0  0  0  0  0  0  0  0  0
    8.0933    1.6235   -1.2382 H   0  0  0  0  0  0  0  0  0  0  0  0
    3.3514   -2.8709    1.5591 H   0  0  0  0  0  0  0  0  0  0  0  0
   -0.3478   -0.7090   -0.7093 H   0  0  0  0  0  0  0  0  0  0  0  0
  1  2  1  0
  2  3  2  0
  2  4  2  0
  2  5  1  0
  5  6  1  0
  6  7  1  0
  7  8  1  0
  8  9  1  0
  9 10  2  0
 10 11  1  0
 11 12  2  0
 12 13  1  0
 13 14  2  0
 14 15  1  0
 15 16  2  0
 16 17  1  0
 17 18  2  0
 18 19  1  0
 19 20  2  0
 20 21  1  0
 21 22  1  0
 22 23  2  0
 23 24  1  0
 24 25  2  0
 25 26  1  0
 26 27  1  0
 27 28  1  0
 28 29  2  0
 29 30  1  0
 30 31  2  0
 31 32  1  0
 32 33  1  0
 32 34  2  0
 25 35  1  0
 35 36  1  0
 35 37  2  0
 20 38  1  0
 38 39  2  0
 12 40  1  0
 40  9  1  0
 39 13  1  0
 38 16  1  0
 37 22  1  0
 34 28  1  0
  1 41  1  0
  1 42  1  0
  1 43  1  0
  5 44  1  0
  5 45  1  0
  6 46  1  0
  6 47  1  0
  7 48  1  0
  8 49  1  0
  8 50  1  0
 10 51  1  0
 11 52  1  0
 14 53  1  0
 15 54  1  0
 18 55  1  0
 21 56  1  0
 23 57  1  0
 24 58  1  0
 27 59  1  0
 27 60  1  0
 29 61  1  0
 30 62  1  0
 31 63  1  0
 34 64  1  0
 37 65  1  0
 39 66  1  0
M  END
$$$$
