@<TRIPOS>MOLECULE
*****
 56 58 0 0 0
SMALL
GASTEIGER

@<TRIPOS>ATOM
      1 C           6.8112    2.9007    2.4400 C.3     1  UNL1       -0.0025
      2 C           6.4539    3.5548    1.1695 C.1     1  UNL1       -0.1022
      3 C           6.1792    4.0786    0.1253 C.1     1  UNL1       -0.0617
      4 C           5.8470    4.7196   -1.1672 C.3     1  UNL1        0.1499
      5 O           5.3706    3.8234   -2.1214 O.3     1  UNL1       -0.4780
      6 C           4.2135    3.0869   -1.9102 C.ar    1  UNL1        0.1402
      7 C           3.4770    3.1995   -0.7677 C.ar    1  UNL1        0.0701
      8 N           2.3785    2.4644   -0.6315 N.ar    1  UNL1       -0.2465
      9 C           1.9206    1.5795   -1.5794 C.ar    1  UNL1        0.1288
     10 C           0.7063    0.8214   -1.2597 C.2     1  UNL1        0.2668
     11 O           0.5491    0.6381    0.0086 O.2     1  UNL1       -0.2682
     12 N          -0.2333    0.3209   -2.1604 N.am    1  UNL1       -0.2801
     13 C          -1.3759   -0.4120   -1.8112 C.ar    1  UNL1        0.0369
     14 C          -2.1789   -0.8775   -2.8675 C.ar    1  UNL1       -0.0023
     15 C          -3.3045   -1.5917   -2.6524 C.ar    1  UNL1        0.1605
     16 F          -4.0511   -2.0209   -3.7007 F       1  UNL1       -0.2024
     17 C          -3.6922   -1.8819   -1.3656 C.ar    1  UNL1        0.1640
     18 F          -4.8319   -2.6039   -1.2136 F       1  UNL1       -0.2021
     19 C          -2.9426   -1.4509   -0.2783 C.ar    1  UNL1        0.0197
     20 C          -3.4764   -1.8228    1.0536 C.3     1  UNL1        0.0952
     21 C          -4.9138   -1.2663    1.0614 C.3     1  UNL1       -0.0352
     22 C          -2.7050   -1.3004    2.2148 C.3     1  UNL1        0.0223
     23 C          -2.7382   -2.1486    3.4482 C.3     1  UNL1        0.1997
     24 C          -4.0515   -2.2513    4.1391 C.3     1  UNL1        0.4266
     25 F          -3.9571   -3.0633    5.2858 F       1  UNL1       -0.1669
     26 F          -4.5955   -1.0679    4.5443 F       1  UNL1       -0.1669
     27 F          -5.0132   -2.9108    3.3613 F       1  UNL1       -0.1669
     28 O          -2.3492   -3.4721    3.0463 O.2     1  UNL1       -0.4534
     29 C          -3.0432   -4.0144    1.9802 C.2     1  UNL1        0.2765
     30 N          -3.1843   -5.4524    1.8990 N.pl3   1  UNL1       -0.3134
     31 N          -3.5408   -3.2572    1.0977 N.2     1  UNL1       -0.2257
     32 C          -1.8068   -0.7283   -0.5383 C.ar    1  UNL1       -0.0321
     33 C           2.6381    1.4580   -2.7072 C.ar    1  UNL1       -0.0165
     34 C           2.2894    0.5028   -3.7764 C.3     1  UNL1       -0.0374
     35 C           3.7926    2.2168   -2.8768 C.ar    1  UNL1       -0.0133
     36 H           7.9235    2.8336    2.5186 H       1  UNL1        0.0362
     37 H           6.4075    1.8811    2.4088 H       1  UNL1        0.0362
     38 H           6.3683    3.5073    3.2449 H       1  UNL1        0.0362
     39 H           5.0332    5.4532   -0.9158 H       1  UNL1        0.0837
     40 H           6.7492    5.2443   -1.5145 H       1  UNL1        0.0837
     41 H           3.7480    3.8639    0.0317 H       1  UNL1        0.0867
     42 H          -0.0950    0.5388   -3.1668 H       1  UNL1        0.1552
     43 H          -1.8951   -0.6620   -3.9018 H       1  UNL1        0.0666
     44 H          -5.1191   -0.6516    1.9385 H       1  UNL1        0.0256
     45 H          -5.0825   -0.5791    0.1817 H       1  UNL1        0.0256
     46 H          -5.6083   -2.1057    0.8846 H       1  UNL1        0.0256
     47 H          -1.6050   -1.1886    1.9725 H       1  UNL1        0.0330
     48 H          -3.0133   -0.2602    2.5217 H       1  UNL1        0.0330
     49 H          -1.9741   -1.7795    4.1518 H       1  UNL1        0.0826
     50 H          -2.9694   -6.0101    2.7338 H       1  UNL1        0.1466
     51 H          -3.4919   -5.9194    1.0319 H       1  UNL1        0.1466
     52 H          -1.2319   -0.3859    0.2892 H       1  UNL1        0.0640
     53 H           1.6416    0.9479   -4.5282 H       1  UNL1        0.0278
     54 H           1.9158   -0.4290   -3.3144 H       1  UNL1        0.0278
     55 H           3.2933    0.2168   -4.2635 H       1  UNL1        0.0278
     56 H           4.3637    2.1115   -3.7946 H       1  UNL1        0.0658
@<TRIPOS>BOND
     1     1     2    1
     2     2     3    3
     3     3     4    1
     4     4     5    1
     5     5     6    1
     6     6     7   ar
     7     7     8   ar
     8     8     9   ar
     9     9    10    1
    10    10    11    2
    11    10    12   am
    12    12    13    1
    13    13    14   ar
    14    14    15   ar
    15    15    16    1
    16    15    17   ar
    17    17    18    1
    18    17    19   ar
    19    19    20    1
    20    20    21    1
    21    20    22    1
    22    22    23    1
    23    23    24    1
    24    24    25    1
    25    24    26    1
    26    24    27    1
    27    23    28    1
    28    28    29    1
    29    29    30    1
    30    29    31    2
    31    19    32   ar
    32     9    33   ar
    33    33    34    1
    34    33    35   ar
    35    35     6   ar
    36    32    13   ar
    37    31    20    1
    38     1    36    1
    39     1    37    1
    40     1    38    1
    41     4    39    1
    42     4    40    1
    43     7    41    1
    44    12    42    1
    45    14    43    1
    46    21    44    1
    47    21    45    1
    48    21    46    1
    49    22    47    1
    50    22    48    1
    51    23    49    1
    52    30    50    1
    53    30    51    1
    54    32    52    1
    55    34    53    1
    56    34    54    1
    57    34    55    1
    58    35    56    1
