@<TRIPOS>MOLECULE
*****
 60 63 0 0 0
SMALL
GASTEIGER

@<TRIPOS>ATOM
      1 C           6.8588   -1.6733   -2.0088 C.3     1  UNL1       -0.0470
      2 C           6.0373   -2.1570   -0.8321 C.3     1  UNL1        0.0151
      3 C           6.8820   -2.5546    0.3398 C.3     1  UNL1       -0.0470
      4 N           4.9977   -1.2174   -0.4782 N.pl3   1  UNL1       -0.3389
      5 C           5.0552    0.1204   -0.0154 C.ar    1  UNL1        0.0678
      6 C           3.9753    0.9240    0.2860 C.ar    1  UNL1        0.1424
      7 N           4.1602    2.2095    0.7085 N.ar    1  UNL1       -0.2384
      8 C           5.4326    2.6890    0.8308 C.ar    1  UNL1        0.0298
      9 C           6.5381    1.9232    0.5419 C.ar    1  UNL1       -0.0417
     10 C           6.3594    0.6043    0.1071 C.ar    1  UNL1       -0.0361
     11 N           2.6779    0.3617    0.1825 N.pl3   1  UNL1       -0.3107
     12 C           2.3251   -0.6504    1.1950 C.3     1  UNL1        0.0294
     13 C           1.1280   -0.0521    1.9162 C.3     1  UNL1        0.0308
     14 N           0.0322    0.1386    0.9691 N.am    1  UNL1       -0.2933
     15 C           0.3491   -0.0733   -0.4329 C.3     1  UNL1        0.0308
     16 C           1.6279    0.6402   -0.7983 C.3     1  UNL1        0.0294
     17 C          -1.1885    0.5076    1.5593 C.2     1  UNL1        0.2630
     18 O          -1.1181    0.6126    2.8222 O.2     1  UNL1       -0.2684
     19 C          -2.4744    0.7731    0.9290 C.ar    1  UNL1        0.1030
     20 C          -3.6934    0.3214    1.4519 C.ar    1  UNL1       -0.0241
     21 C          -4.6918    0.7574    0.5853 C.ar    1  UNL1        0.0022
     22 C          -4.0877    1.4675   -0.4565 C.ar    1  UNL1        0.0471
     23 N          -2.7710    1.4422   -0.1958 N.ar    1  UNL1       -0.3506
     24 C          -4.8995    1.9896   -1.4348 C.ar    1  UNL1       -0.0360
     25 C          -6.2655    1.8258   -1.4017 C.ar    1  UNL1       -0.0374
     26 C          -6.9088    1.1321   -0.3918 C.ar    1  UNL1        0.0484
     27 N          -8.3104    0.9361   -0.3031 N.pl3   1  UNL1       -0.2209
     28 S          -9.0459   -0.5761    0.1081 S.O2    1  UNL1        0.0403
     29 C          -8.5927   -1.7589   -1.1244 C.3     1  UNL1        0.0736
     30 O          -8.5695   -1.0115    1.4583 O.2     1  UNL1       -0.1555
     31 O         -10.5292   -0.4625    0.1421 O.2     1  UNL1       -0.1555
     32 C          -6.0683    0.6083    0.5930 C.ar    1  UNL1       -0.0302
     33 H           6.8992   -2.4950   -2.7806 H       1  UNL1        0.0247
     34 H           7.8685   -1.3602   -1.7531 H       1  UNL1        0.0247
     35 H           6.2623   -0.8581   -2.4991 H       1  UNL1        0.0247
     36 H           5.5037   -3.0947   -1.1605 H       1  UNL1        0.0492
     37 H           7.9520   -2.6057    0.0896 H       1  UNL1        0.0247
     38 H           6.6116   -3.5809    0.7092 H       1  UNL1        0.0247
     39 H           6.6890   -1.8553    1.1805 H       1  UNL1        0.0247
     40 H           3.9857   -1.5189   -0.5588 H       1  UNL1        0.1464
     41 H           5.4317    3.7177    1.1756 H       1  UNL1        0.0830
     42 H           7.4753    2.4305    0.6826 H       1  UNL1        0.0633
     43 H           7.3063    0.1650   -0.0682 H       1  UNL1        0.0638
     44 H           3.1307   -0.7872    1.9249 H       1  UNL1        0.0480
     45 H           1.9965   -1.5923    0.7339 H       1  UNL1        0.0480
     46 H           0.8540   -0.6397    2.7883 H       1  UNL1        0.0480
     47 H           1.4501    0.9732    2.2408 H       1  UNL1        0.0480
     48 H           0.5276   -1.1768   -0.6028 H       1  UNL1        0.0480
     49 H          -0.4359    0.2025   -1.1311 H       1  UNL1        0.0480
     50 H           1.9769    0.2289   -1.7675 H       1  UNL1        0.0480
     51 H           1.4767    1.7326   -0.9218 H       1  UNL1        0.0480
     52 H          -3.8907   -0.2656    2.3643 H       1  UNL1        0.0646
     53 H          -2.0836    1.9079   -0.8258 H       1  UNL1        0.1660
     54 H          -4.4605    2.5425   -2.2456 H       1  UNL1        0.0639
     55 H          -6.8810    2.2512   -2.1908 H       1  UNL1        0.0637
     56 H          -8.9091    1.7792   -0.5082 H       1  UNL1        0.1733
     57 H          -7.5511   -2.0885   -0.9461 H       1  UNL1        0.0482
     58 H          -8.6318   -1.2410   -2.1211 H       1  UNL1        0.0482
     59 H          -9.2839   -2.6217   -1.1299 H       1  UNL1        0.0482
     60 H          -6.4925    0.0531    1.4143 H       1  UNL1        0.0643
@<TRIPOS>BOND
     1     1     2    1
     2     2     3    1
     3     2     4    1
     4     4     5    1
     5     5     6   ar
     6     6     7   ar
     7     7     8   ar
     8     8     9   ar
     9     9    10   ar
    10     6    11    1
    11    11    12    1
    12    12    13    1
    13    13    14    1
    14    14    15    1
    15    15    16    1
    16    14    17   am
    17    17    18    2
    18    17    19    1
    19    19    20   ar
    20    20    21   ar
    21    21    22   ar
    22    22    23   ar
    23    22    24   ar
    24    24    25   ar
    25    25    26   ar
    26    26    27    1
    27    27    28    1
    28    28    29    1
    29    28    30    2
    30    28    31    2
    31    26    32   ar
    32    10     5   ar
    33    16    11    1
    34    23    19   ar
    35    32    21   ar
    36     1    33    1
    37     1    34    1
    38     1    35    1
    39     2    36    1
    40     3    37    1
    41     3    38    1
    42     3    39    1
    43     4    40    1
    44     8    41    1
    45     9    42    1
    46    10    43    1
    47    12    44    1
    48    12    45    1
    49    13    46    1
    50    13    47    1
    51    15    48    1
    52    15    49    1
    53    16    50    1
    54    16    51    1
    55    20    52    1
    56    23    53    1
    57    24    54    1
    58    25    55    1
    59    27    56    1
    60    29    57    1
    61    29    58    1
    62    29    59    1
    63    32    60    1
