@<TRIPOS>MOLECULE
*****
 51 55 0 0 0
SMALL
GASTEIGER

@<TRIPOS>ATOM
      1 O          -2.8503    1.2232    1.9002 O.2     1  UNL1       -0.2699
      2 C          -2.4101    0.1869    1.3289 C.2     1  UNL1        0.2491
      3 C          -3.3055   -0.7087    0.6193 C.ar    1  UNL1        0.0653
      4 C          -3.8444   -1.8264    1.2680 C.ar    1  UNL1       -0.0292
      5 C          -4.6731   -2.6976    0.6181 C.ar    1  UNL1        0.0418
      6 CL         -5.3207   -4.0809    1.4761 Cl      1  UNL1       -0.0835
      7 C          -4.9800   -2.4605   -0.7108 C.ar    1  UNL1       -0.0413
      8 C          -4.4739   -1.3849   -1.3694 C.ar    1  UNL1       -0.0324
      9 C          -3.6258   -0.4967   -0.6960 C.ar    1  UNL1        0.0983
     10 N          -3.1029    0.6465   -1.3578 N.ar    1  UNL1       -0.1496
     11 N          -2.9559    1.8769   -0.8993 N.ar    1  UNL1       -0.1556
     12 C          -2.4402    2.6750   -1.8311 C.ar    1  UNL1        0.0697
     13 C          -2.2488    1.8919   -2.9551 C.ar    1  UNL1        0.0697
     14 N          -2.6706    0.6564   -2.6133 N.ar    1  UNL1       -0.1556
     15 N          -0.9910   -0.0649    1.4165 N.am    1  UNL1       -0.2897
     16 C          -0.4867   -1.2314    0.7761 C.3     1  UNL1        0.0388
     17 C           0.9003   -1.6384    1.1198 C.3     1  UNL1        0.0635
     18 O           1.5704   -0.8855    2.0358 O.3     1  UNL1       -0.3764
     19 C           0.8363   -0.1189    2.8904 C.3     1  UNL1        0.0666
     20 C          -0.1111    0.8072    2.1409 C.3     1  UNL1        0.0537
     21 C           0.5996    1.8156    1.3257 C.3     1  UNL1       -0.0068
     22 C           1.4941    1.3224    0.2782 C.ar    1  UNL1       -0.0449
     23 C           1.0443    1.0892   -1.0029 C.ar    1  UNL1       -0.0585
     24 C           1.8688    0.6318   -2.0060 C.ar    1  UNL1       -0.0608
     25 C           3.1899    0.3994   -1.7167 C.ar    1  UNL1       -0.0509
     26 C           3.7131    0.6151   -0.4363 C.ar    1  UNL1        0.0227
     27 C           5.1246    0.3587   -0.1581 C.ar    1  UNL1        0.2018
     28 N           5.8225   -0.6889   -0.5695 N.ar    1  UNL1       -0.1942
     29 C           7.1064   -0.5870   -0.1166 C.ar    1  UNL1        0.2147
     30 O           7.1494    0.5351    0.5655 O.2     1  UNL1       -0.3411
     31 N           5.9680    1.1219    0.5545 N.ar    1  UNL1       -0.0564
     32 C           2.8446    1.0710    0.5217 C.ar    1  UNL1       -0.0477
     33 H          -3.5831   -1.9798    2.3054 H       1  UNL1        0.0640
     34 H          -5.6457   -3.1846   -1.1870 H       1  UNL1        0.0633
     35 H          -4.7126   -1.2007   -2.4026 H       1  UNL1        0.0640
     36 H          -2.2343    3.7188   -1.6804 H       1  UNL1        0.0864
     37 H          -1.8454    2.2577   -3.8703 H       1  UNL1        0.0864
     38 H          -0.6565   -1.1132   -0.3355 H       1  UNL1        0.0487
     39 H          -1.1340   -2.1423    1.0075 H       1  UNL1        0.0487
     40 H           1.4954   -1.5694    0.1571 H       1  UNL1        0.0575
     41 H           0.9932   -2.7405    1.3669 H       1  UNL1        0.0575
     42 H           0.2305   -0.6707    3.6152 H       1  UNL1        0.0578
     43 H           1.5233    0.5344    3.4549 H       1  UNL1        0.0578
     44 H          -0.7196    1.3264    2.9158 H       1  UNL1        0.0526
     45 H          -0.1674    2.4840    0.8429 H       1  UNL1        0.0332
     46 H           1.2023    2.4963    1.9898 H       1  UNL1        0.0332
     47 H           0.0051    1.2594   -1.2701 H       1  UNL1        0.0620
     48 H           1.4750    0.4617   -2.9991 H       1  UNL1        0.0618
     49 H           3.8951    0.0379   -2.4620 H       1  UNL1        0.0625
     50 H           7.9168   -1.2768   -0.2804 H       1  UNL1        0.1283
     51 H           3.2204    1.2480    1.5213 H       1  UNL1        0.0627
@<TRIPOS>BOND
     1     1     2    2
     2     2     3    1
     3     3     4   ar
     4     4     5   ar
     5     5     6    1
     6     5     7   ar
     7     7     8   ar
     8     8     9   ar
     9     9    10    1
    10    10    11   ar
    11    11    12   ar
    12    12    13   ar
    13    13    14   ar
    14     2    15   am
    15    15    16    1
    16    16    17    1
    17    17    18    1
    18    18    19    1
    19    19    20    1
    20    20    21    1
    21    21    22    1
    22    22    23   ar
    23    23    24   ar
    24    24    25   ar
    25    25    26   ar
    26    26    27    1
    27    27    28   ar
    28    28    29   ar
    29    29    30   ar
    30    30    31   ar
    31    26    32   ar
    32     9     3   ar
    33    14    10   ar
    34    20    15    1
    35    32    22   ar
    36    31    27   ar
    37     4    33    1
    38     7    34    1
    39     8    35    1
    40    12    36    1
    41    13    37    1
    42    16    38    1
    43    16    39    1
    44    17    40    1
    45    17    41    1
    46    19    42    1
    47    19    43    1
    48    20    44    1
    49    21    45    1
    50    21    46    1
    51    23    47    1
    52    24    48    1
    53    25    49    1
    54    29    50    1
    55    32    51    1
