@<TRIPOS>MOLECULE
*****
 81 83 0 0 0
SMALL
GASTEIGER

@<TRIPOS>ATOM
      1 C          -1.2758   -1.3613   -1.0638 C.2     1  UNL1       -0.0802
      2 C          -0.6449   -2.3547   -0.5176 C.2     1  UNL1       -0.0568
      3 C          -0.7158   -3.2035    0.6841 C.3     1  UNL1        0.1025
      4 O          -1.6298   -4.2613    0.5726 O.3     1  UNL1       -0.3732
      5 C          -2.5230   -4.2722    1.6258 C.3     1  UNL1        0.0373
      6 C           0.6564   -3.8936    0.8032 C.3     1  UNL1        0.0879
      7 C           1.7392   -2.8474    0.8851 C.3     1  UNL1       -0.0239
      8 C           1.7351   -2.0479    2.1370 C.3     1  UNL1       -0.0505
      9 C           2.5842   -0.7614    1.8663 C.3     1  UNL1       -0.0493
     10 C           1.8143    0.0809    0.9128 C.3     1  UNL1       -0.0114
     11 C           2.4273    1.3820    0.4615 C.3     1  UNL1        0.1280
     12 O           1.4066    1.9602   -0.3747 O.3     1  UNL1       -0.4563
     13 C           0.8489    3.1801   -0.2497 C.2     1  UNL1        0.3158
     14 O           1.0500    4.1439    0.5653 O.2     1  UNL1       -0.2503
     15 C          -0.1707    3.2304   -1.3462 C.3     1  UNL1        0.1098
     16 C           0.4239    2.8692   -2.6765 C.3     1  UNL1       -0.0472
     17 C          -1.3705    2.3752   -1.0750 C.3     1  UNL1        0.2096
     18 O          -2.0859    2.1343   -2.2561 O.3     1  UNL1       -0.3619
     19 O          -1.0878    1.0994   -0.5644 O.3     1  UNL1       -0.3415
     20 C          -2.3081    0.6162   -0.1148 C.3     1  UNL1        0.0730
     21 C          -2.5874    1.1357    1.2427 C.3     1  UNL1        0.0117
     22 C          -2.0587    0.3568    2.3932 C.3     1  UNL1       -0.0576
     23 C          -2.0604    2.5821    1.2560 C.3     1  UNL1        0.0913
     24 O          -2.7308    3.2365    2.2582 O.3     1  UNL1       -0.3887
     25 C          -2.3201    3.1197   -0.1130 C.3     1  UNL1        0.1386
     26 O          -2.0070    4.4678   -0.2451 O.3     1  UNL1       -0.3718
     27 C          -3.0406    5.2485   -0.7022 C.3     1  UNL1        0.0371
     28 C          -2.4365   -0.8773   -0.2950 C.3     1  UNL1        0.0011
     29 C          -3.6506   -1.1642   -1.2018 C.3     1  UNL1       -0.0566
     30 C           3.5626    1.0796   -0.4540 C.ar    1  UNL1       -0.0073
     31 C           3.2552    0.4635   -1.6665 C.ar    1  UNL1       -0.0551
     32 C           4.2563    0.1507   -2.5706 C.ar    1  UNL1       -0.0614
     33 C           5.5819    0.4513   -2.2721 C.ar    1  UNL1       -0.0617
     34 C           5.9080    1.0677   -1.0637 C.ar    1  UNL1       -0.0614
     35 C           4.8856    1.3624   -0.1922 C.ar    1  UNL1       -0.0551
     36 O           0.8485   -4.6382   -0.3427 O.3     1  UNL1       -0.3769
     37 C           0.9756   -5.9976   -0.0908 C.3     1  UNL1        0.0369
     38 H          -1.1675   -0.7838   -1.9582 H       1  UNL1        0.0573
     39 H           0.1411   -2.5240   -1.2520 H       1  UNL1        0.0595
     40 H          -0.9490   -2.6206    1.5577 H       1  UNL1        0.0666
     41 H          -3.1224   -3.3745    1.7063 H       1  UNL1        0.0524
     42 H          -1.9407   -4.3548    2.5867 H       1  UNL1        0.0524
     43 H          -3.1142   -5.2111    1.5846 H       1  UNL1        0.0524
     44 H           0.6482   -4.5555    1.6727 H       1  UNL1        0.0625
     45 H           1.7807   -2.3429   -0.0648 H       1  UNL1        0.0291
     46 H           2.7023   -3.4638    0.9237 H       1  UNL1        0.0291
     47 H           2.2870   -2.5438    2.9626 H       1  UNL1        0.0266
     48 H           0.7615   -1.7462    2.5255 H       1  UNL1        0.0266
     49 H           2.8273   -0.2496    2.7929 H       1  UNL1        0.0267
     50 H           3.5095   -1.1343    1.3940 H       1  UNL1        0.0267
     51 H           0.8084    0.3821    1.3500 H       1  UNL1        0.0304
     52 H           1.5520   -0.4578   -0.0451 H       1  UNL1        0.0304
     53 H           2.6777    2.0759    1.2511 H       1  UNL1        0.0785
     54 H          -0.4673    4.3156   -1.4378 H       1  UNL1        0.0465
     55 H          -0.1947    3.3337   -3.4672 H       1  UNL1        0.0239
     56 H           1.4712    3.2468   -2.7393 H       1  UNL1        0.0239
     57 H           0.3903    1.7437   -2.7621 H       1  UNL1        0.0239
     58 H          -2.1365    2.9714   -2.7755 H       1  UNL1        0.2129
     59 H          -3.1166    1.0708   -0.7874 H       1  UNL1        0.0606
     60 H          -3.7106    1.2591    1.3475 H       1  UNL1        0.0349
     61 H          -1.2756   -0.3650    2.1903 H       1  UNL1        0.0234
     62 H          -1.6300    1.0978    3.1312 H       1  UNL1        0.0234
     63 H          -2.9202   -0.0881    2.9692 H       1  UNL1        0.0234
     64 H          -0.9831    2.5017    1.4193 H       1  UNL1        0.0624
     65 H          -2.2461    3.0689    3.1110 H       1  UNL1        0.2099
     66 H          -3.3756    3.0260   -0.4289 H       1  UNL1        0.0676
     67 H          -2.6459    6.3057   -0.7600 H       1  UNL1        0.0524
     68 H          -3.9115    5.2988   -0.0180 H       1  UNL1        0.0524
     69 H          -3.3238    5.0104   -1.7609 H       1  UNL1        0.0524
     70 H          -2.5969   -1.3274    0.6792 H       1  UNL1        0.0365
     71 H          -3.6968   -0.4283   -2.0290 H       1  UNL1        0.0236
     72 H          -4.5863   -1.2156   -0.5986 H       1  UNL1        0.0236
     73 H          -3.5254   -2.1635   -1.6671 H       1  UNL1        0.0236
     74 H           2.2632    0.1898   -1.9920 H       1  UNL1        0.0621
     75 H           4.0313   -0.3346   -3.5297 H       1  UNL1        0.0618
     76 H           6.3400    0.1856   -3.0171 H       1  UNL1        0.0618
     77 H           6.9407    1.2985   -0.8385 H       1  UNL1        0.0618
     78 H           5.1095    1.8451    0.7618 H       1  UNL1        0.0621
     79 H           0.0855   -6.4290    0.4018 H       1  UNL1        0.0524
     80 H           1.1360   -6.4922   -1.0818 H       1  UNL1        0.0524
     81 H           1.9180   -6.1346    0.4768 H       1  UNL1        0.0524
@<TRIPOS>BOND
     1     1     2    2
     2     2     3    1
     3     3     4    1
     4     4     5    1
     5     3     6    1
     6     6     7    1
     7     7     8    1
     8     8     9    1
     9     9    10    1
    10    10    11    1
    11    11    12    1
    12    12    13    1
    13    13    14    2
    14    13    15    1
    15    15    16    1
    16    15    17    1
    17    17    18    1
    18    17    19    1
    19    19    20    1
    20    20    21    1
    21    21    22    1
    22    21    23    1
    23    23    24    1
    24    23    25    1
    25    25    26    1
    26    26    27    1
    27    20    28    1
    28    28    29    1
    29    11    30    1
    30    30    31   ar
    31    31    32   ar
    32    32    33   ar
    33    33    34   ar
    34    34    35   ar
    35     6    36    1
    36    36    37    1
    37    28     1    1
    38    35    30   ar
    39    25    17    1
    40     1    38    1
    41     2    39    1
    42     3    40    1
    43     5    41    1
    44     5    42    1
    45     5    43    1
    46     6    44    1
    47     7    45    1
    48     7    46    1
    49     8    47    1
    50     8    48    1
    51     9    49    1
    52     9    50    1
    53    10    51    1
    54    10    52    1
    55    11    53    1
    56    15    54    1
    57    16    55    1
    58    16    56    1
    59    16    57    1
    60    18    58    1
    61    20    59    1
    62    21    60    1
    63    22    61    1
    64    22    62    1
    65    22    63    1
    66    23    64    1
    67    24    65    1
    68    25    66    1
    69    27    67    1
    70    27    68    1
    71    27    69    1
    72    28    70    1
    73    29    71    1
    74    29    72    1
    75    29    73    1
    76    31    74    1
    77    32    75    1
    78    33    76    1
    79    34    77    1
    80    35    78    1
    81    37    79    1
    82    37    80    1
    83    37    81    1
