@<TRIPOS>MOLECULE
*****
 60 61 0 0 0
SMALL
GASTEIGER

@<TRIPOS>ATOM
      1 C           6.7121    1.0642   -0.4229 C.3     1  UNL1       -0.0653
      2 C           5.7807    1.1573    0.7796 C.3     1  UNL1       -0.0556
      3 C           4.4888    1.7410    0.2631 C.3     1  UNL1       -0.0492
      4 C           3.9222    0.8541   -0.7927 C.3     1  UNL1       -0.0264
      5 C           2.6128    1.4151   -1.3579 C.3     1  UNL1       -0.0248
      6 C           1.6232    1.0397   -0.2979 C.3     1  UNL1        0.0873
      7 N           2.1234   -0.1309    0.3862 N.3     1  UNL1       -0.2943
      8 C           2.1061   -0.0286    1.8148 C.3     1  UNL1       -0.0120
      9 C           3.4255   -0.4151   -0.1738 C.3     1  UNL1        0.0022
     10 C           0.2797    0.6813   -0.8293 C.2     1  UNL1        0.2306
     11 O          -0.3136    1.5991   -1.4642 O.2     1  UNL1       -0.2741
     12 N          -0.3086   -0.5860   -0.6491 N.am    1  UNL1       -0.3072
     13 C          -1.6153   -0.9821   -1.1483 C.3     1  UNL1        0.0678
     14 C          -1.4465   -2.0324   -2.1649 C.3     1  UNL1        0.0520
     15 C          -0.7774   -3.2917   -1.7210 C.3     1  UNL1       -0.0470
     16 CL         -2.8845   -2.3172   -3.1721 Cl      1  UNL1       -0.1201
     17 C          -2.4843   -1.2400    0.0112 C.3     1  UNL1        0.1081
     18 O          -2.5852   -0.0728    0.7695 O.3     1  UNL1       -0.3557
     19 C          -3.7291    0.6450    0.4982 C.3     1  UNL1        0.1327
     20 S          -3.6893    2.2144    1.3669 S.3     1  UNL1       -0.1305
     21 C          -2.4164    3.3416    0.8126 C.3     1  UNL1       -0.0156
     22 C          -4.9984   -0.0615    0.9734 C.3     1  UNL1        0.1188
     23 O          -5.5021    0.4869    2.1397 O.3     1  UNL1       -0.3857
     24 C          -4.5985   -1.5241    1.1238 C.3     1  UNL1        0.1125
     25 O          -5.6772   -2.3759    1.1886 O.3     1  UNL1       -0.3865
     26 C          -3.8256   -1.8168   -0.1787 C.3     1  UNL1        0.1114
     27 O          -4.6140   -1.2725   -1.1654 O.3     1  UNL1       -0.3865
     28 H           6.4403    1.8578   -1.1783 H       1  UNL1        0.0230
     29 H           7.7365    1.2106   -0.0653 H       1  UNL1        0.0230
     30 H           6.5351    0.0961   -0.9205 H       1  UNL1        0.0230
     31 H           6.2488    1.8108    1.5524 H       1  UNL1        0.0263
     32 H           5.6362    0.1841    1.2756 H       1  UNL1        0.0263
     33 H           3.8074    1.7743    1.1649 H       1  UNL1        0.0268
     34 H           4.5925    2.7998   -0.0328 H       1  UNL1        0.0268
     35 H           4.6706    0.6660   -1.5839 H       1  UNL1        0.0314
     36 H           2.7374    2.5234   -1.3408 H       1  UNL1        0.0288
     37 H           2.3942    1.0525   -2.3637 H       1  UNL1        0.0288
     38 H           1.4960    1.8805    0.4279 H       1  UNL1        0.0558
     39 H           3.0559   -0.2042    2.3204 H       1  UNL1        0.0391
     40 H           1.3867   -0.8187    2.1722 H       1  UNL1        0.0391
     41 H           1.6298    0.9372    2.0931 H       1  UNL1        0.0391
     42 H           4.0608   -0.8384    0.6145 H       1  UNL1        0.0429
     43 H           3.3402   -1.2181   -0.9595 H       1  UNL1        0.0429
     44 H           0.2583   -1.3016   -0.1028 H       1  UNL1        0.1492
     45 H          -1.9964   -0.0794   -1.6732 H       1  UNL1        0.0539
     46 H          -0.7238   -1.5910   -2.9200 H       1  UNL1        0.0482
     47 H           0.3400   -3.2589   -1.8363 H       1  UNL1        0.0244
     48 H          -1.0885   -4.1856   -2.2861 H       1  UNL1        0.0244
     49 H          -0.9029   -3.4058   -0.6095 H       1  UNL1        0.0244
     50 H          -1.9433   -1.9533    0.7035 H       1  UNL1        0.0642
     51 H          -3.8263    0.8873   -0.5964 H       1  UNL1        0.0740
     52 H          -2.7440    4.4074    0.8628 H       1  UNL1        0.0341
     53 H          -1.5061    3.2401    1.4248 H       1  UNL1        0.0341
     54 H          -2.2425    3.1638   -0.2810 H       1  UNL1        0.0341
     55 H          -5.7432   -0.0602    0.1269 H       1  UNL1        0.0655
     56 H          -6.1142    1.2119    1.8650 H       1  UNL1        0.2100
     57 H          -3.9291   -1.6251    2.0030 H       1  UNL1        0.0647
     58 H          -6.0203   -2.4017    2.1295 H       1  UNL1        0.2100
     59 H          -3.8405   -2.9447   -0.2140 H       1  UNL1        0.0647
     60 H          -5.3544   -1.9092   -1.3217 H       1  UNL1        0.2100
@<TRIPOS>BOND
     1     1     2    1
     2     2     3    1
     3     3     4    1
     4     4     5    1
     5     5     6    1
     6     6     7    1
     7     7     8    1
     8     7     9    1
     9     6    10    1
    10    10    11    2
    11    10    12   am
    12    12    13    1
    13    13    14    1
    14    14    15    1
    15    14    16    1
    16    13    17    1
    17    17    18    1
    18    18    19    1
    19    19    20    1
    20    20    21    1
    21    19    22    1
    22    22    23    1
    23    22    24    1
    24    24    25    1
    25    24    26    1
    26    26    27    1
    27     9     4    1
    28    26    17    1
    29     1    28    1
    30     1    29    1
    31     1    30    1
    32     2    31    1
    33     2    32    1
    34     3    33    1
    35     3    34    1
    36     4    35    1
    37     5    36    1
    38     5    37    1
    39     6    38    1
    40     8    39    1
    41     8    40    1
    42     8    41    1
    43     9    42    1
    44     9    43    1
    45    12    44    1
    46    13    45    1
    47    14    46    1
    48    15    47    1
    49    15    48    1
    50    15    49    1
    51    17    50    1
    52    19    51    1
    53    21    52    1
    54    21    53    1
    55    21    54    1
    56    22    55    1
    57    23    56    1
    58    24    57    1
    59    25    58    1
    60    26    59    1
    61    27    60    1
