
     RDKit          3D

 60 61  0  0  0  0  0  0  0  0999 V2000
    6.7121    1.0642   -0.4229 C   0  0  0  0  0  0  0  0  0  0  0  0
    5.7807    1.1573    0.7796 C   0  0  0  0  0  0  0  0  0  0  0  0
    4.4888    1.7410    0.2631 C   0  0  0  0  0  0  0  0  0  0  0  0
    3.9222    0.8541   -0.7927 C   0  0  2  0  0  0  0  0  0  0  0  0
    2.6128    1.4151   -1.3579 C   0  0  0  0  0  0  0  0  0  0  0  0
    1.6232    1.0397   -0.2979 C   0  0  2  0  0  0  0  0  0  0  0  0
    2.1234   -0.1309    0.3862 N   0  0  0  0  0  0  0  0  0  0  0  0
    2.1061   -0.0286    1.8148 C   0  0  0  0  0  0  0  0  0  0  0  0
    3.4255   -0.4151   -0.1738 C   0  0  0  0  0  0  0  0  0  0  0  0
    0.2797    0.6813   -0.8293 C   0  0  0  0  0  0  0  0  0  0  0  0
   -0.3136    1.5991   -1.4642 O   0  0  0  0  0  0  0  0  0  0  0  0
   -0.3086   -0.5860   -0.6491 N   0  0  0  0  0  0  0  0  0  0  0  0
   -1.6153   -0.9821   -1.1483 C   0  0  0  0  0  0  0  0  0  0  0  0
   -1.4465   -2.0324   -2.1649 C   0  0  0  0  0  0  0  0  0  0  0  0
   -0.7774   -3.2917   -1.7210 C   0  0  0  0  0  0  0  0  0  0  0  0
   -2.8845   -2.3172   -3.1721 Cl  0  0  0  0  0  0  0  0  0  0  0  0
   -2.4843   -1.2400    0.0112 C   0  0  1  0  0  0  0  0  0  0  0  0
   -2.5852   -0.0728    0.7695 O   0  0  0  0  0  0  0  0  0  0  0  0
   -3.7291    0.6450    0.4982 C   0  0  2  0  0  0  0  0  0  0  0  0
   -3.6893    2.2144    1.3669 S   0  0  0  0  0  0  0  0  0  0  0  0
   -2.4164    3.3416    0.8126 C   0  0  0  0  0  0  0  0  0  0  0  0
   -4.9984   -0.0615    0.9734 C   0  0  2  0  0  0  0  0  0  0  0  0
   -5.5021    0.4869    2.1397 O   0  0  0  0  0  0  0  0  0  0  0  0
   -4.5985   -1.5241    1.1238 C   0  0  1  0  0  0  0  0  0  0  0  0
   -5.6772   -2.3759    1.1886 O   0  0  0  0  0  0  0  0  0  0  0  0
   -3.8256   -1.8168   -0.1787 C   0  0  1  0  0  0  0  0  0  0  0  0
   -4.6140   -1.2725   -1.1654 O   0  0  0  0  0  0  0  0  0  0  0  0
    6.4403    1.8578   -1.1783 H   0  0  0  0  0  0  0  0  0  0  0  0
    7.7365    1.2106   -0.0653 H   0  0  0  0  0  0  0  0  0  0  0  0
    6.5351    0.0961   -0.9205 H   0  0  0  0  0  0  0  0  0  0  0  0
    6.2488    1.8108    1.5524 H   0  0  0  0  0  0  0  0  0  0  0  0
    5.6362    0.1841    1.2756 H   0  0  0  0  0  0  0  0  0  0  0  0
    3.8074    1.7743    1.1649 H   0  0  0  0  0  0  0  0  0  0  0  0
    4.5925    2.7998   -0.0328 H   0  0  0  0  0  0  0  0  0  0  0  0
    4.6706    0.6660   -1.5839 H   0  0  0  0  0  0  0  0  0  0  0  0
    2.7374    2.5234   -1.3408 H   0  0  0  0  0  0  0  0  0  0  0  0
    2.3942    1.0525   -2.3637 H   0  0  0  0  0  0  0  0  0  0  0  0
    1.4960    1.8805    0.4279 H   0  0  0  0  0  0  0  0  0  0  0  0
    3.0559   -0.2042    2.3204 H   0  0  0  0  0  0  0  0  0  0  0  0
    1.3867   -0.8187    2.1722 H   0  0  0  0  0  0  0  0  0  0  0  0
    1.6298    0.9372    2.0931 H   0  0  0  0  0  0  0  0  0  0  0  0
    4.0608   -0.8384    0.6145 H   0  0  0  0  0  0  0  0  0  0  0  0
    3.3402   -1.2181   -0.9595 H   0  0  0  0  0  0  0  0  0  0  0  0
    0.2583   -1.3016   -0.1028 H   0  0  0  0  0  0  0  0  0  0  0  0
   -1.9964   -0.0794   -1.6732 H   0  0  0  0  0  0  0  0  0  0  0  0
   -0.7238   -1.5910   -2.9200 H   0  0  0  0  0  0  0  0  0  0  0  0
    0.3400   -3.2589   -1.8363 H   0  0  0  0  0  0  0  0  0  0  0  0
   -1.0885   -4.1856   -2.2861 H   0  0  0  0  0  0  0  0  0  0  0  0
   -0.9029   -3.4058   -0.6095 H   0  0  0  0  0  0  0  0  0  0  0  0
   -1.9433   -1.9533    0.7035 H   0  0  0  0  0  0  0  0  0  0  0  0
   -3.8263    0.8873   -0.5964 H   0  0  0  0  0  0  0  0  0  0  0  0
   -2.7440    4.4074    0.8628 H   0  0  0  0  0  0  0  0  0  0  0  0
   -1.5061    3.2401    1.4248 H   0  0  0  0  0  0  0  0  0  0  0  0
   -2.2425    3.1638   -0.2810 H   0  0  0  0  0  0  0  0  0  0  0  0
   -5.7432   -0.0602    0.1269 H   0  0  0  0  0  0  0  0  0  0  0  0
   -6.1142    1.2119    1.8650 H   0  0  0  0  0  0  0  0  0  0  0  0
   -3.9291   -1.6251    2.0030 H   0  0  0  0  0  0  0  0  0  0  0  0
   -6.0203   -2.4017    2.1295 H   0  0  0  0  0  0  0  0  0  0  0  0
   -3.8405   -2.9447   -0.2140 H   0  0  0  0  0  0  0  0  0  0  0  0
   -5.3544   -1.9092   -1.3217 H   0  0  0  0  0  0  0  0  0  0  0  0
  1  2  1  0
  2  3  1  0
  3  4  1  0
  4  5  1  0
  5  6  1  0
  6  7  1  0
  7  8  1  0
  7  9  1  0
  6 10  1  0
 10 11  2  0
 10 12  1  0
 12 13  1  0
 13 14  1  0
 14 15  1  0
 14 16  1  0
 13 17  1  0
 17 18  1  0
 18 19  1  0
 19 20  1  0
 20 21  1  0
 19 22  1  0
 22 23  1  0
 22 24  1  0
 24 25  1  0
 24 26  1  0
 26 27  1  0
  9  4  1  0
 26 17  1  0
  1 28  1  0
  1 29  1  0
  1 30  1  0
  2 31  1  0
  2 32  1  0
  3 33  1  0
  3 34  1  0
  4 35  1  6
  5 36  1  0
  5 37  1  0
  6 38  1  1
  8 39  1  0
  8 40  1  0
  8 41  1  0
  9 42  1  0
  9 43  1  0
 12 44  1  0
 13 45  1  0
 14 46  1  0
 15 47  1  0
 15 48  1  0
 15 49  1  0
 17 50  1  1
 19 51  1  6
 21 52  1  0
 21 53  1  0
 21 54  1  0
 22 55  1  6
 23 56  1  0
 24 57  1  1
 25 58  1  0
 26 59  1  6
 27 60  1  0
M  END
$$$$
