@<TRIPOS>MOLECULE
*****
 43 46 0 0 0
SMALL
GASTEIGER

@<TRIPOS>ATOM
      1 C           7.3496    0.4915    0.9644 C.3     1  UNL1        0.0163
      2 S           6.6259    0.5899   -0.6812 S.O     1  UNL1        0.0507
      3 O           7.2206   -0.5429   -1.5399 O.2     1  UNL1       -0.2524
      4 C           4.8941    0.2357   -0.5342 C.ar    1  UNL1        0.0386
      5 C           4.1330    1.3763   -0.2896 C.ar    1  UNL1       -0.0453
      6 C           2.7513    1.2366   -0.1512 C.ar    1  UNL1       -0.0500
      7 C           2.1932   -0.0132   -0.2605 C.ar    1  UNL1        0.0173
      8 C           2.9419   -1.1350   -0.5013 C.ar    1  UNL1       -0.0500
      9 C           4.3071   -1.0115   -0.6400 C.ar    1  UNL1       -0.0453
     10 C           0.7559   -0.1406   -0.1082 C.ar    1  UNL1        0.1393
     11 N           0.0257   -1.2823   -0.1856 N.ar    1  UNL1       -0.2271
     12 C          -1.2598   -1.0251    0.0063 C.ar    1  UNL1        0.0972
     13 C          -1.3800    0.3344    0.2176 C.ar    1  UNL1        0.0743
     14 N          -0.1157    0.8446    0.1393 N.ar    1  UNL1       -0.3374
     15 C          -2.5405    1.1838    0.4811 C.ar    1  UNL1        0.0014
     16 C          -2.8905    2.2115   -0.4011 C.ar    1  UNL1       -0.0394
     17 C          -3.9703    3.0381   -0.2004 C.ar    1  UNL1        0.0140
     18 I          -4.4385    4.5649   -1.5706 I       1  UNL1       -0.0438
     19 C          -4.7375    2.8217    0.9446 C.ar    1  UNL1       -0.0486
     20 C          -4.4443    1.8144    1.8662 C.ar    1  UNL1       -0.0602
     21 C          -3.3492    1.0213    1.6060 C.ar    1  UNL1       -0.0525
     22 C          -2.4102   -1.9198    0.0172 C.ar    1  UNL1        0.0053
     23 C          -3.4486   -1.7931   -0.8816 C.ar    1  UNL1       -0.0343
     24 C          -4.4811   -2.7025   -0.7700 C.ar    1  UNL1        0.0282
     25 N          -4.5336   -3.6851    0.1452 N.ar    1  UNL1       -0.2632
     26 C          -3.5294   -3.8491    1.0550 C.ar    1  UNL1        0.0282
     27 C          -2.4997   -2.9471    0.9484 C.ar    1  UNL1       -0.0343
     28 H           7.0171   -0.4514    1.4384 H       1  UNL1        0.0368
     29 H           6.9680    1.3694    1.5315 H       1  UNL1        0.0368
     30 H           8.4425    0.4867    0.8622 H       1  UNL1        0.0368
     31 H           4.5221    2.3825   -0.1946 H       1  UNL1        0.0629
     32 H           2.1478    2.1302    0.0410 H       1  UNL1        0.0625
     33 H           2.5147   -2.1341   -0.5911 H       1  UNL1        0.0625
     34 H           4.9939   -1.8270   -0.8312 H       1  UNL1        0.0629
     35 H           0.1390    1.8604    0.2559 H       1  UNL1        0.1674
     36 H          -2.2912    2.3889   -1.3061 H       1  UNL1        0.0634
     37 H          -5.5807    3.4522    1.1202 H       1  UNL1        0.0628
     38 H          -5.0612    1.6725    2.7472 H       1  UNL1        0.0618
     39 H          -3.0918    0.2190    2.3130 H       1  UNL1        0.0624
     40 H          -3.4035   -1.0115   -1.6070 H       1  UNL1        0.0639
     41 H          -5.2774   -2.5625   -1.5008 H       1  UNL1        0.0830
     42 H          -3.5195   -4.6240    1.8146 H       1  UNL1        0.0830
     43 H          -1.6891   -3.0688    1.6720 H       1  UNL1        0.0639
@<TRIPOS>BOND
     1     2     1    1
     2     2     3    2
     3     2     4    1
     4     4     5   ar
     5     5     6   ar
     6     6     7   ar
     7     7     8   ar
     8     8     9   ar
     9     7    10    1
    10    10    11   ar
    11    11    12   ar
    12    12    13   ar
    13    13    14   ar
    14    13    15    1
    15    15    16   ar
    16    16    17   ar
    17    17    18    1
    18    17    19   ar
    19    19    20   ar
    20    20    21   ar
    21    12    22    1
    22    22    23   ar
    23    23    24   ar
    24    24    25   ar
    25    25    26   ar
    26    26    27   ar
    27     9     4   ar
    28    14    10   ar
    29    21    15   ar
    30    27    22   ar
    31     1    28    1
    32     1    29    1
    33     1    30    1
    34     5    31    1
    35     6    32    1
    36     8    33    1
    37     9    34    1
    38    14    35    1
    39    16    36    1
    40    19    37    1
    41    20    38    1
    42    21    39    1
    43    23    40    1
    44    24    41    1
    45    26    42    1
    46    27    43    1
