@<TRIPOS>MOLECULE
*****
 34 36 0 0 0
SMALL
GASTEIGER

@<TRIPOS>ATOM
      1 C          -2.2874   -1.4192    0.5403 C.3     1  UNL1       -0.0610
      2 C          -2.7617   -0.3325   -0.3718 C.3     1  UNL1       -0.0287
      3 C          -3.5418    0.6434    0.4758 C.3     1  UNL1       -0.0610
      4 C          -1.7327    0.3158   -1.2372 C.3     1  UNL1        0.0270
      5 N          -0.6462    0.9501   -0.6072 N.ar    1  UNL1       -0.3292
      6 C          -0.7975    2.2640   -0.2339 C.ar    1  UNL1        0.0972
      7 N           0.3179    2.7659    0.3788 N.ar    1  UNL1       -0.2323
      8 C           1.2261    1.7487    0.4066 C.ar    1  UNL1        0.1289
      9 C           0.5813    0.6932   -0.2003 C.ar    1  UNL1        0.0813
     10 C           1.3278   -0.4485   -0.2830 C.ar    1  UNL1        0.0261
     11 C           0.7802   -1.5521   -0.8683 C.ar    1  UNL1       -0.0505
     12 C           1.4821   -2.7280   -0.9817 C.ar    1  UNL1       -0.0610
     13 C           2.7848   -2.7368   -0.4671 C.ar    1  UNL1       -0.0597
     14 C           3.3529   -1.6303    0.1275 C.ar    1  UNL1       -0.0356
     15 C           2.6081   -0.4824    0.2143 C.ar    1  UNL1        0.0752
     16 N           3.1647    0.6022    0.7961 N.ar    1  UNL1       -0.2301
     17 C           2.5015    1.7666    0.9196 C.ar    1  UNL1        0.1445
     18 N           3.0283    2.9448    1.5207 N.pl3   1  UNL1       -0.3414
     19 H          -2.0652   -2.3648   -0.0020 H       1  UNL1        0.0233
     20 H          -1.3361   -1.0995    1.0405 H       1  UNL1        0.0233
     21 H          -3.0678   -1.5657    1.3181 H       1  UNL1        0.0233
     22 H          -3.5161   -0.8215   -1.0548 H       1  UNL1        0.0313
     23 H          -4.3536    0.0690    0.9699 H       1  UNL1        0.0233
     24 H          -4.0338    1.4276   -0.1363 H       1  UNL1        0.0233
     25 H          -2.9265    1.0699    1.2875 H       1  UNL1        0.0233
     26 H          -2.3197    1.1404   -1.8384 H       1  UNL1        0.0495
     27 H          -1.4865   -0.3594   -2.0538 H       1  UNL1        0.0495
     28 H          -1.6328    2.9425   -0.3445 H       1  UNL1        0.1029
     29 H          -0.1725   -1.7247   -1.2984 H       1  UNL1        0.0625
     30 H           1.1995   -3.6869   -1.4137 H       1  UNL1        0.0618
     31 H           3.4169   -3.5998   -0.5039 H       1  UNL1        0.0618
     32 H           4.3557   -1.6221    0.5286 H       1  UNL1        0.0639
     33 H           2.8567    3.3647    2.4721 H       1  UNL1        0.1438
     34 H           3.6933    3.4656    0.8999 H       1  UNL1        0.1438
@<TRIPOS>BOND
     1     1     2    1
     2     2     3    1
     3     2     4    1
     4     4     5    1
     5     5     6   ar
     6     6     7   ar
     7     7     8   ar
     8     8     9   ar
     9     9    10   ar
    10    10    11   ar
    11    11    12   ar
    12    12    13   ar
    13    13    14   ar
    14    14    15   ar
    15    15    16   ar
    16    16    17   ar
    17    17    18    1
    18     9     5   ar
    19    15    10   ar
    20    17     8   ar
    21     1    19    1
    22     1    20    1
    23     1    21    1
    24     2    22    1
    25     3    23    1
    26     3    24    1
    27     3    25    1
    28     4    26    1
    29     4    27    1
    30     6    28    1
    31    11    29    1
    32    12    30    1
    33    13    31    1
    34    14    32    1
    35    18    33    1
    36    18    34    1
