
     RDKit          3D

 34 36  0  0  0  0  0  0  0  0999 V2000
   -2.2874   -1.4192    0.5403 C   0  0  0  0  0  0  0  0  0  0  0  0
   -2.7617   -0.3325   -0.3718 C   0  0  0  0  0  0  0  0  0  0  0  0
   -3.5418    0.6434    0.4758 C   0  0  0  0  0  0  0  0  0  0  0  0
   -1.7327    0.3158   -1.2372 C   0  0  0  0  0  0  0  0  0  0  0  0
   -0.6462    0.9501   -0.6072 N   0  0  0  0  0  0  0  0  0  0  0  0
   -0.7975    2.2640   -0.2339 C   0  0  0  0  0  0  0  0  0  0  0  0
    0.3179    2.7659    0.3788 N   0  0  0  0  0  0  0  0  0  0  0  0
    1.2261    1.7487    0.4066 C   0  0  0  0  0  0  0  0  0  0  0  0
    0.5813    0.6932   -0.2003 C   0  0  0  0  0  0  0  0  0  0  0  0
    1.3278   -0.4485   -0.2830 C   0  0  0  0  0  0  0  0  0  0  0  0
    0.7802   -1.5521   -0.8683 C   0  0  0  0  0  0  0  0  0  0  0  0
    1.4821   -2.7280   -0.9817 C   0  0  0  0  0  0  0  0  0  0  0  0
    2.7848   -2.7368   -0.4671 C   0  0  0  0  0  0  0  0  0  0  0  0
    3.3529   -1.6303    0.1275 C   0  0  0  0  0  0  0  0  0  0  0  0
    2.6081   -0.4824    0.2143 C   0  0  0  0  0  0  0  0  0  0  0  0
    3.1647    0.6022    0.7961 N   0  0  0  0  0  0  0  0  0  0  0  0
    2.5015    1.7666    0.9196 C   0  0  0  0  0  0  0  0  0  0  0  0
    3.0283    2.9448    1.5207 N   0  0  0  0  0  0  0  0  0  0  0  0
   -2.0652   -2.3648   -0.0020 H   0  0  0  0  0  0  0  0  0  0  0  0
   -1.3361   -1.0995    1.0405 H   0  0  0  0  0  0  0  0  0  0  0  0
   -3.0678   -1.5657    1.3181 H   0  0  0  0  0  0  0  0  0  0  0  0
   -3.5161   -0.8215   -1.0548 H   0  0  0  0  0  0  0  0  0  0  0  0
   -4.3536    0.0690    0.9699 H   0  0  0  0  0  0  0  0  0  0  0  0
   -4.0338    1.4276   -0.1363 H   0  0  0  0  0  0  0  0  0  0  0  0
   -2.9265    1.0699    1.2875 H   0  0  0  0  0  0  0  0  0  0  0  0
   -2.3197    1.1404   -1.8384 H   0  0  0  0  0  0  0  0  0  0  0  0
   -1.4865   -0.3594   -2.0538 H   0  0  0  0  0  0  0  0  0  0  0  0
   -1.6328    2.9425   -0.3445 H   0  0  0  0  0  0  0  0  0  0  0  0
   -0.1725   -1.7247   -1.2984 H   0  0  0  0  0  0  0  0  0  0  0  0
    1.1995   -3.6869   -1.4137 H   0  0  0  0  0  0  0  0  0  0  0  0
    3.4169   -3.5998   -0.5039 H   0  0  0  0  0  0  0  0  0  0  0  0
    4.3557   -1.6221    0.5286 H   0  0  0  0  0  0  0  0  0  0  0  0
    2.8567    3.3647    2.4721 H   0  0  0  0  0  0  0  0  0  0  0  0
    3.6933    3.4656    0.8999 H   0  0  0  0  0  0  0  0  0  0  0  0
  1  2  1  0
  2  3  1  0
  2  4  1  0
  4  5  1  0
  5  6  1  0
  6  7  2  0
  7  8  1  0
  8  9  2  0
  9 10  1  0
 10 11  2  0
 11 12  1  0
 12 13  2  0
 13 14  1  0
 14 15  2  0
 15 16  1  0
 16 17  2  0
 17 18  1  0
  9  5  1  0
 15 10  1  0
 17  8  1  0
  1 19  1  0
  1 20  1  0
  1 21  1  0
  2 22  1  0
  3 23  1  0
  3 24  1  0
  3 25  1  0
  4 26  1  0
  4 27  1  0
  6 28  1  0
 11 29  1  0
 12 30  1  0
 13 31  1  0
 14 32  1  0
 18 33  1  0
 18 34  1  0
M  END
$$$$
