
     RDKit          3D

 80 84  0  0  0  0  0  0  0  0999 V2000
    5.4539   -1.3693    0.6849 C   0  0  0  0  0  0  0  0  0  0  0  0
    4.8912    0.0101    0.2611 C   0  0  0  0  0  0  0  0  0  0  0  0
    5.5655    0.3219   -1.0434 C   0  0  0  0  0  0  0  0  0  0  0  0
    5.3087    0.9490    1.3422 C   0  0  1  0  0  0  0  0  0  0  0  0
    6.4236    1.6792    0.8629 O   0  0  0  0  0  0  0  0  0  0  0  0
    4.2994    1.9252    1.7947 C   0  0  0  0  0  0  0  0  0  0  0  0
    2.8856    1.4609    1.7811 C   0  0  0  0  0  0  0  0  0  0  0  0
    2.5708    1.0234    0.3249 C   0  0  1  0  0  0  0  0  0  0  0  0
    2.9318    2.2136   -0.4752 C   0  0  0  0  0  0  0  0  0  0  0  0
    3.4082   -0.2029    0.1668 C   0  0  1  0  0  0  0  0  0  0  0  0
    3.0668   -1.0900   -0.9781 C   0  0  0  0  0  0  0  0  0  0  0  0
    1.6556   -1.6209   -0.7107 C   0  0  0  0  0  0  0  0  0  0  0  0
    0.7441   -0.4162   -0.6830 C   0  0  2  0  0  0  0  0  0  0  0  0
    0.6512    0.0602   -2.1101 C   0  0  0  0  0  0  0  0  0  0  0  0
    1.1379    0.6158    0.3000 C   0  0  2  0  0  0  0  0  0  0  0  0
    0.1658    1.7078    0.2514 C   0  0  0  0  0  0  0  0  0  0  0  0
    0.4149    2.8919    0.6191 O   0  0  0  0  0  0  0  0  0  0  0  0
   -1.1786    1.4172   -0.2527 C   0  0  0  0  0  0  0  0  0  0  0  0
   -1.6381    0.2122   -0.5143 C   0  0  0  0  0  0  0  0  0  0  0  0
   -2.9607   -0.1426   -1.0187 C   0  0  2  0  0  0  0  0  0  0  0  0
   -4.0411    0.8549   -0.9042 C   0  0  0  0  0  0  0  0  0  0  0  0
   -4.9971    0.7138    0.2454 C   0  0  1  0  0  0  0  0  0  0  0  0
   -4.4387    1.2879    1.5325 C   0  0  0  0  0  0  0  0  0  0  0  0
   -6.1983    1.5158   -0.0835 C   0  0  0  0  0  0  0  0  0  0  0  0
   -7.3065    0.9387   -0.1624 O   0  0  0  0  0  0  0  0  0  0  0  0
   -6.1653    2.8805   -0.3109 O   0  0  0  0  0  0  0  0  0  0  0  0
   -5.4212   -0.6822    0.5247 C   0  0  0  0  0  0  0  0  0  0  0  0
   -4.1666   -1.5082    0.7219 C   0  0  0  0  0  0  0  0  0  0  0  0
   -3.4585   -1.5001   -0.6359 C   0  0  1  0  0  0  0  0  0  0  0  0
   -4.5465   -1.9443   -1.6204 C   0  0  0  0  0  0  0  0  0  0  0  0
   -2.4347   -2.5969   -0.6647 C   0  0  0  0  0  0  0  0  0  0  0  0
   -1.0376   -2.1303   -0.9931 C   0  0  0  0  0  0  0  0  0  0  0  0
   -0.6580   -0.8946   -0.2650 C   0  0  1  0  0  0  0  0  0  0  0  0
   -0.6853   -1.1972    1.2120 C   0  0  0  0  0  0  0  0  0  0  0  0
    5.6630   -1.9629   -0.2454 H   0  0  0  0  0  0  0  0  0  0  0  0
    6.4412   -1.2404    1.1739 H   0  0  0  0  0  0  0  0  0  0  0  0
    4.7382   -1.9159    1.3026 H   0  0  0  0  0  0  0  0  0  0  0  0
    4.9095    0.4082   -1.9083 H   0  0  0  0  0  0  0  0  0  0  0  0
    6.1796    1.2705   -0.9981 H   0  0  0  0  0  0  0  0  0  0  0  0
    6.3404   -0.4460   -1.3456 H   0  0  0  0  0  0  0  0  0  0  0  0
    5.7151    0.4295    2.2610 H   0  0  0  0  0  0  0  0  0  0  0  0
    6.6204    2.4525    1.4629 H   0  0  0  0  0  0  0  0  0  0  0  0
    4.5229    2.2388    2.8594 H   0  0  0  0  0  0  0  0  0  0  0  0
    4.4258    2.8918    1.2224 H   0  0  0  0  0  0  0  0  0  0  0  0
    2.8038    0.5721    2.4287 H   0  0  0  0  0  0  0  0  0  0  0  0
    2.2222    2.2697    2.0872 H   0  0  0  0  0  0  0  0  0  0  0  0
    2.4304    2.3814   -1.4190 H   0  0  0  0  0  0  0  0  0  0  0  0
    4.0205    2.2441   -0.6649 H   0  0  0  0  0  0  0  0  0  0  0  0
    2.7438    3.1728    0.1049 H   0  0  0  0  0  0  0  0  0  0  0  0
    3.1460   -0.8286    1.0842 H   0  0  0  0  0  0  0  0  0  0  0  0
    3.7267   -1.9880   -0.8931 H   0  0  0  0  0  0  0  0  0  0  0  0
    3.2030   -0.6908   -1.9743 H   0  0  0  0  0  0  0  0  0  0  0  0
    1.3742   -2.2317   -1.5858 H   0  0  0  0  0  0  0  0  0  0  0  0
    1.6832   -2.2038    0.2070 H   0  0  0  0  0  0  0  0  0  0  0  0
    1.6242    0.4412   -2.5050 H   0  0  0  0  0  0  0  0  0  0  0  0
    0.4903   -0.8452   -2.7701 H   0  0  0  0  0  0  0  0  0  0  0  0
   -0.0700    0.8446   -2.3101 H   0  0  0  0  0  0  0  0  0  0  0  0
    0.9605    0.1469    1.3208 H   0  0  0  0  0  0  0  0  0  0  0  0
   -1.8583    2.2380   -0.4307 H   0  0  0  0  0  0  0  0  0  0  0  0
   -2.7814   -0.2581   -2.1511 H   0  0  0  0  0  0  0  0  0  0  0  0
   -4.7020    0.7774   -1.8239 H   0  0  0  0  0  0  0  0  0  0  0  0
   -3.7488    1.9207   -0.9313 H   0  0  0  0  0  0  0  0  0  0  0  0
   -3.3895    1.0275    1.7063 H   0  0  0  0  0  0  0  0  0  0  0  0
   -5.1253    0.9740    2.3470 H   0  0  0  0  0  0  0  0  0  0  0  0
   -4.5286    2.3924    1.4618 H   0  0  0  0  0  0  0  0  0  0  0  0
   -6.8935    3.4001   -0.7839 H   0  0  0  0  0  0  0  0  0  0  0  0
   -6.1514   -1.1223   -0.1517 H   0  0  0  0  0  0  0  0  0  0  0  0
   -5.9218   -0.6707    1.5390 H   0  0  0  0  0  0  0  0  0  0  0  0
   -4.4103   -2.5536    0.9650 H   0  0  0  0  0  0  0  0  0  0  0  0
   -3.5788   -1.0020    1.5101 H   0  0  0  0  0  0  0  0  0  0  0  0
   -5.1432   -2.7385   -1.1263 H   0  0  0  0  0  0  0  0  0  0  0  0
   -4.0601   -2.4494   -2.5027 H   0  0  0  0  0  0  0  0  0  0  0  0
   -5.2084   -1.1618   -1.9491 H   0  0  0  0  0  0  0  0  0  0  0  0
   -2.4780   -3.2232    0.2761 H   0  0  0  0  0  0  0  0  0  0  0  0
   -2.6580   -3.3893   -1.4472 H   0  0  0  0  0  0  0  0  0  0  0  0
   -1.0307   -2.0079   -2.1104 H   0  0  0  0  0  0  0  0  0  0  0  0
   -0.3495   -2.9399   -0.7557 H   0  0  0  0  0  0  0  0  0  0  0  0
   -1.4414   -1.9939    1.4807 H   0  0  0  0  0  0  0  0  0  0  0  0
   -0.9672   -0.3281    1.8391 H   0  0  0  0  0  0  0  0  0  0  0  0
    0.2691   -1.6865    1.5598 H   0  0  0  0  0  0  0  0  0  0  0  0
  1  2  1  0
  2  3  1  0
  2  4  1  0
  4  5  1  0
  4  6  1  0
  6  7  1  0
  7  8  1  0
  8  9  1  6
  8 10  1  0
 10 11  1  0
 11 12  1  0
 12 13  1  0
 13 14  1  6
 13 15  1  0
 15 16  1  0
 16 17  2  0
 16 18  1  0
 18 19  2  0
 19 20  1  0
 20 21  1  0
 21 22  1  0
 22 23  1  1
 22 24  1  0
 24 25  2  0
 24 26  1  0
 22 27  1  0
 27 28  1  0
 28 29  1  0
 29 30  1  6
 29 31  1  0
 31 32  1  0
 32 33  1  0
 33 34  1  1
 10  2  1  0
 33 13  1  0
 15  8  1  0
 33 19  1  0
 29 20  1  0
  1 35  1  0
  1 36  1  0
  1 37  1  0
  3 38  1  0
  3 39  1  0
  3 40  1  0
  4 41  1  1
  5 42  1  0
  6 43  1  0
  6 44  1  0
  7 45  1  0
  7 46  1  0
  9 47  1  0
  9 48  1  0
  9 49  1  0
 10 50  1  1
 11 51  1  0
 11 52  1  0
 12 53  1  0
 12 54  1  0
 14 55  1  0
 14 56  1  0
 14 57  1  0
 15 58  1  1
 18 59  1  0
 20 60  1  6
 21 61  1  0
 21 62  1  0
 23 63  1  0
 23 64  1  0
 23 65  1  0
 26 66  1  0
 27 67  1  0
 27 68  1  0
 28 69  1  0
 28 70  1  0
 30 71  1  0
 30 72  1  0
 30 73  1  0
 31 74  1  0
 31 75  1  0
 32 76  1  0
 32 77  1  0
 34 78  1  0
 34 79  1  0
 34 80  1  0
M  END
$$$$
