@<TRIPOS>MOLECULE
*****
 80 84 0 0 0
SMALL
GASTEIGER

@<TRIPOS>ATOM
      1 C           5.4539   -1.3693    0.6849 C.3     1  UNL1       -0.0572
      2 C           4.8912    0.0101    0.2611 C.3     1  UNL1       -0.0056
      3 C           5.5655    0.3219   -1.0434 C.3     1  UNL1       -0.0572
      4 C           5.3087    0.9490    1.3422 C.3     1  UNL1        0.0606
      5 O           6.4236    1.6792    0.8629 O.3     1  UNL1       -0.3912
      6 C           4.2994    1.9252    1.7947 C.3     1  UNL1       -0.0258
      7 C           2.8856    1.4609    1.7811 C.3     1  UNL1       -0.0443
      8 C           2.5708    1.0234    0.3249 C.3     1  UNL1       -0.0182
      9 C           2.9318    2.2136   -0.4752 C.3     1  UNL1       -0.0586
     10 C           3.4082   -0.2029    0.1668 C.3     1  UNL1       -0.0274
     11 C           3.0668   -1.0900   -0.9781 C.3     1  UNL1       -0.0486
     12 C           1.6556   -1.6209   -0.7107 C.3     1  UNL1       -0.0459
     13 C           0.7441   -0.4162   -0.6830 C.3     1  UNL1       -0.0127
     14 C           0.6512    0.0602   -2.1101 C.3     1  UNL1       -0.0581
     15 C           1.1379    0.6158    0.3000 C.3     1  UNL1        0.0333
     16 C           0.1658    1.7078    0.2514 C.2     1  UNL1        0.1602
     17 O           0.4149    2.8919    0.6191 O.2     1  UNL1       -0.2923
     18 C          -1.1786    1.4172   -0.2527 C.2     1  UNL1       -0.0188
     19 C          -1.6381    0.2122   -0.5143 C.2     1  UNL1       -0.0562
     20 C          -2.9607   -0.1426   -1.0187 C.3     1  UNL1       -0.0126
     21 C          -4.0411    0.8549   -0.9042 C.3     1  UNL1       -0.0304
     22 C          -4.9971    0.7138    0.2454 C.3     1  UNL1        0.0654
     23 C          -4.4387    1.2879    1.5325 C.3     1  UNL1       -0.0494
     24 C          -6.1983    1.5158   -0.0835 C.2     1  UNL1        0.3107
     25 O          -7.3065    0.9387   -0.1624 O.2     1  UNL1       -0.2504
     26 O          -6.1653    2.8805   -0.3109 O.3     1  UNL1       -0.4802
     27 C          -5.4212   -0.6822    0.5247 C.3     1  UNL1       -0.0370
     28 C          -4.1666   -1.5082    0.7219 C.3     1  UNL1       -0.0461
     29 C          -3.4585   -1.5001   -0.6359 C.3     1  UNL1       -0.0254
     30 C          -4.5465   -1.9443   -1.6204 C.3     1  UNL1       -0.0590
     31 C          -2.4347   -2.5969   -0.6647 C.3     1  UNL1       -0.0463
     32 C          -1.0376   -2.1303   -0.9931 C.3     1  UNL1       -0.0429
     33 C          -0.6580   -0.8946   -0.2650 C.3     1  UNL1       -0.0043
     34 C          -0.6853   -1.1972    1.2120 C.3     1  UNL1       -0.0553
     35 H           5.6630   -1.9629   -0.2454 H       1  UNL1        0.0236
     36 H           6.4412   -1.2404    1.1739 H       1  UNL1        0.0236
     37 H           4.7382   -1.9159    1.3026 H       1  UNL1        0.0236
     38 H           4.9095    0.4082   -1.9083 H       1  UNL1        0.0236
     39 H           6.1796    1.2705   -0.9981 H       1  UNL1        0.0236
     40 H           6.3404   -0.4460   -1.3456 H       1  UNL1        0.0236
     41 H           5.7151    0.4295    2.2610 H       1  UNL1        0.0599
     42 H           6.6204    2.4525    1.4629 H       1  UNL1        0.2098
     43 H           4.5229    2.2388    2.8594 H       1  UNL1        0.0290
     44 H           4.4258    2.8918    1.2224 H       1  UNL1        0.0290
     45 H           2.8038    0.5721    2.4287 H       1  UNL1        0.0272
     46 H           2.2222    2.2697    2.0872 H       1  UNL1        0.0272
     47 H           2.4304    2.3814   -1.4190 H       1  UNL1        0.0235
     48 H           4.0205    2.2441   -0.6649 H       1  UNL1        0.0235
     49 H           2.7438    3.1728    0.1049 H       1  UNL1        0.0235
     50 H           3.1460   -0.8286    1.0842 H       1  UNL1        0.0312
     51 H           3.7267   -1.9880   -0.8931 H       1  UNL1        0.0268
     52 H           3.2030   -0.6908   -1.9743 H       1  UNL1        0.0268
     53 H           1.3742   -2.2317   -1.5858 H       1  UNL1        0.0271
     54 H           1.6832   -2.2038    0.2070 H       1  UNL1        0.0271
     55 H           1.6242    0.4412   -2.5050 H       1  UNL1        0.0236
     56 H           0.4903   -0.8452   -2.7701 H       1  UNL1        0.0236
     57 H          -0.0700    0.8446   -2.3101 H       1  UNL1        0.0236
     58 H           0.9605    0.1469    1.3208 H       1  UNL1        0.0392
     59 H          -1.8583    2.2380   -0.4307 H       1  UNL1        0.0652
     60 H          -2.7814   -0.2581   -2.1511 H       1  UNL1        0.0351
     61 H          -4.7020    0.7774   -1.8239 H       1  UNL1        0.0282
     62 H          -3.7488    1.9207   -0.9313 H       1  UNL1        0.0282
     63 H          -3.3895    1.0275    1.7063 H       1  UNL1        0.0240
     64 H          -5.1253    0.9740    2.3470 H       1  UNL1        0.0240
     65 H          -4.5286    2.3924    1.4618 H       1  UNL1        0.0240
     66 H          -6.8935    3.4001   -0.7839 H       1  UNL1        0.2951
     67 H          -6.1514   -1.1223   -0.1517 H       1  UNL1        0.0276
     68 H          -5.9218   -0.6707    1.5390 H       1  UNL1        0.0276
     69 H          -4.4103   -2.5536    0.9650 H       1  UNL1        0.0271
     70 H          -3.5788   -1.0020    1.5101 H       1  UNL1        0.0271
     71 H          -5.1432   -2.7385   -1.1263 H       1  UNL1        0.0235
     72 H          -4.0601   -2.4494   -2.5027 H       1  UNL1        0.0235
     73 H          -5.2084   -1.1618   -1.9491 H       1  UNL1        0.0235
     74 H          -2.4780   -3.2232    0.2761 H       1  UNL1        0.0271
     75 H          -2.6580   -3.3893   -1.4472 H       1  UNL1        0.0271
     76 H          -1.0307   -2.0079   -2.1104 H       1  UNL1        0.0274
     77 H          -0.3495   -2.9399   -0.7557 H       1  UNL1        0.0274
     78 H          -1.4414   -1.9939    1.4807 H       1  UNL1        0.0238
     79 H          -0.9672   -0.3281    1.8391 H       1  UNL1        0.0238
     80 H           0.2691   -1.6865    1.5598 H       1  UNL1        0.0238
@<TRIPOS>BOND
     1     1     2    1
     2     2     3    1
     3     2     4    1
     4     4     5    1
     5     4     6    1
     6     6     7    1
     7     7     8    1
     8     8     9    1
     9     8    10    1
    10    10    11    1
    11    11    12    1
    12    12    13    1
    13    13    14    1
    14    13    15    1
    15    15    16    1
    16    16    17    2
    17    16    18    1
    18    18    19    2
    19    19    20    1
    20    20    21    1
    21    21    22    1
    22    22    23    1
    23    22    24    1
    24    24    25    2
    25    24    26    1
    26    22    27    1
    27    27    28    1
    28    28    29    1
    29    29    30    1
    30    29    31    1
    31    31    32    1
    32    32    33    1
    33    33    34    1
    34    10     2    1
    35    33    13    1
    36    15     8    1
    37    33    19    1
    38    29    20    1
    39     1    35    1
    40     1    36    1
    41     1    37    1
    42     3    38    1
    43     3    39    1
    44     3    40    1
    45     4    41    1
    46     5    42    1
    47     6    43    1
    48     6    44    1
    49     7    45    1
    50     7    46    1
    51     9    47    1
    52     9    48    1
    53     9    49    1
    54    10    50    1
    55    11    51    1
    56    11    52    1
    57    12    53    1
    58    12    54    1
    59    14    55    1
    60    14    56    1
    61    14    57    1
    62    15    58    1
    63    18    59    1
    64    20    60    1
    65    21    61    1
    66    21    62    1
    67    23    63    1
    68    23    64    1
    69    23    65    1
    70    26    66    1
    71    27    67    1
    72    27    68    1
    73    28    69    1
    74    28    70    1
    75    30    71    1
    76    30    72    1
    77    30    73    1
    78    31    74    1
    79    31    75    1
    80    32    76    1
    81    32    77    1
    82    34    78    1
    83    34    79    1
    84    34    80    1
