@<TRIPOS>MOLECULE
*****
 36 38 0 0 0
SMALL
GASTEIGER

@<TRIPOS>ATOM
      1 O           1.0867   -3.3478    0.3527 O.3     1  UNL1       -0.3864
      2 C           1.1457   -2.0338   -0.0671 C.3     1  UNL1        0.1135
      3 C           1.4952   -1.1260    1.0840 C.3     1  UNL1        0.1134
      4 C           2.5776   -0.1966    0.5903 C.3     1  UNL1        0.0878
      5 O           3.0082    0.7202    1.5477 O.3     1  UNL1       -0.2841
      6 P           4.2073    1.6579    0.8056 P.3     1  UNL1        0.4724
      7 O           3.8195    1.7886   -0.8229 O.3     1  UNL1       -0.3026
      8 O           5.6739    0.8493    1.0704 O.3     1  UNL1       -0.3026
      9 O           4.2698    3.0432    1.3964 O.2     1  UNL1       -0.2275
     10 O           0.3637   -0.4866    1.4888 O.3     1  UNL1       -0.3456
     11 C          -0.7215   -0.9149    0.7566 C.3     1  UNL1        0.1667
     12 C          -0.1870   -1.4888   -0.5228 C.3     1  UNL1        0.1285
     13 O          -1.0114   -2.4535   -1.0518 O.3     1  UNL1       -0.3847
     14 N          -1.4894    0.2707    0.4267 N.ar    1  UNL1       -0.2855
     15 C          -0.9760    1.5051    0.2182 C.ar    1  UNL1        0.1005
     16 N          -1.9770    2.3733   -0.0683 N.ar    1  UNL1       -0.2286
     17 C          -3.1566    1.7104   -0.0492 C.ar    1  UNL1        0.1719
     18 C          -2.8100    0.4137    0.2608 C.ar    1  UNL1        0.1693
     19 N          -3.8018   -0.4942    0.3511 N.ar    1  UNL1       -0.2178
     20 C          -5.0849   -0.0909    0.1339 C.ar    1  UNL1        0.0984
     21 N          -5.3974    1.1823   -0.1676 N.ar    1  UNL1       -0.3116
     22 C          -4.4520    2.1291   -0.2709 C.ar    1  UNL1        0.2790
     23 O          -4.7026    3.3353   -0.5519 O.2     1  UNL1       -0.2654
     24 H           1.9634   -3.7608    0.1886 H       1  UNL1        0.2100
     25 H           1.8731   -1.9683   -0.9007 H       1  UNL1        0.0647
     26 H           1.9110   -1.7139    1.9245 H       1  UNL1        0.0647
     27 H           3.4700   -0.7281    0.2420 H       1  UNL1        0.0592
     28 H           2.2117    0.4040   -0.2800 H       1  UNL1        0.0592
     29 H           4.5052    1.4322   -1.4398 H       1  UNL1        0.2220
     30 H           6.4521    1.3251    0.7077 H       1  UNL1        0.2220
     31 H          -1.3470   -1.6766    1.2713 H       1  UNL1        0.0866
     32 H          -0.0085   -0.7051   -1.2815 H       1  UNL1        0.0665
     33 H          -0.7498   -3.3695   -0.8619 H       1  UNL1        0.2101
     34 H           0.0680    1.7854    0.2662 H       1  UNL1        0.1030
     35 H          -5.8456   -0.8559    0.2177 H       1  UNL1        0.1028
     36 H          -6.3835    1.4855   -0.3331 H       1  UNL1        0.1698
@<TRIPOS>BOND
     1     1     2    1
     2     2     3    1
     3     3     4    1
     4     4     5    1
     5     5     6    1
     6     6     7    1
     7     6     8    1
     8     6     9    2
     9     3    10    1
    10    10    11    1
    11    11    12    1
    12    12    13    1
    13    11    14    1
    14    14    15   ar
    15    15    16   ar
    16    16    17   ar
    17    17    18   ar
    18    18    19   ar
    19    19    20   ar
    20    20    21   ar
    21    21    22   ar
    22    22    23    2
    23    12     2    1
    24    18    14   ar
    25    22    17   ar
    26     1    24    1
    27     2    25    1
    28     3    26    1
    29     4    27    1
    30     4    28    1
    31     7    29    1
    32     8    30    1
    33    11    31    1
    34    12    32    1
    35    13    33    1
    36    15    34    1
    37    20    35    1
    38    21    36    1
