
     RDKit          3D

 36 38  0  0  0  0  0  0  0  0999 V2000
    1.0867   -3.3478    0.3527 O   0  0  0  0  0  0  0  0  0  0  0  0
    1.1457   -2.0338   -0.0671 C   0  0  2  0  0  0  0  0  0  0  0  0
    1.4952   -1.1260    1.0840 C   0  0  1  0  0  0  0  0  0  0  0  0
    2.5776   -0.1966    0.5903 C   0  0  0  0  0  0  0  0  0  0  0  0
    3.0082    0.7202    1.5477 O   0  0  0  0  0  0  0  0  0  0  0  0
    4.2073    1.6579    0.8056 P   0  0  0  0  0  0  0  0  0  0  0  0
    3.8195    1.7886   -0.8229 O   0  0  0  0  0  0  0  0  0  0  0  0
    5.6739    0.8493    1.0704 O   0  0  0  0  0  0  0  0  0  0  0  0
    4.2698    3.0432    1.3964 O   0  0  0  0  0  0  0  0  0  0  0  0
    0.3637   -0.4866    1.4888 O   0  0  0  0  0  0  0  0  0  0  0  0
   -0.7215   -0.9149    0.7566 C   0  0  2  0  0  0  0  0  0  0  0  0
   -0.1870   -1.4888   -0.5228 C   0  0  2  0  0  0  0  0  0  0  0  0
   -1.0114   -2.4535   -1.0518 O   0  0  0  0  0  0  0  0  0  0  0  0
   -1.4894    0.2707    0.4267 N   0  0  0  0  0  0  0  0  0  0  0  0
   -0.9760    1.5051    0.2182 C   0  0  0  0  0  0  0  0  0  0  0  0
   -1.9770    2.3733   -0.0683 N   0  0  0  0  0  0  0  0  0  0  0  0
   -3.1566    1.7104   -0.0492 C   0  0  0  0  0  0  0  0  0  0  0  0
   -2.8100    0.4137    0.2608 C   0  0  0  0  0  0  0  0  0  0  0  0
   -3.8018   -0.4942    0.3511 N   0  0  0  0  0  0  0  0  0  0  0  0
   -5.0849   -0.0909    0.1339 C   0  0  0  0  0  0  0  0  0  0  0  0
   -5.3974    1.1823   -0.1676 N   0  0  0  0  0  0  0  0  0  0  0  0
   -4.4520    2.1291   -0.2709 C   0  0  0  0  0  0  0  0  0  0  0  0
   -4.7026    3.3353   -0.5519 O   0  0  0  0  0  0  0  0  0  0  0  0
    1.9634   -3.7608    0.1886 H   0  0  0  0  0  0  0  0  0  0  0  0
    1.8731   -1.9683   -0.9007 H   0  0  0  0  0  0  0  0  0  0  0  0
    1.9110   -1.7139    1.9245 H   0  0  0  0  0  0  0  0  0  0  0  0
    3.4700   -0.7281    0.2420 H   0  0  0  0  0  0  0  0  0  0  0  0
    2.2117    0.4040   -0.2800 H   0  0  0  0  0  0  0  0  0  0  0  0
    4.5052    1.4322   -1.4398 H   0  0  0  0  0  0  0  0  0  0  0  0
    6.4521    1.3251    0.7077 H   0  0  0  0  0  0  0  0  0  0  0  0
   -1.3470   -1.6766    1.2713 H   0  0  0  0  0  0  0  0  0  0  0  0
   -0.0085   -0.7051   -1.2815 H   0  0  0  0  0  0  0  0  0  0  0  0
   -0.7498   -3.3695   -0.8619 H   0  0  0  0  0  0  0  0  0  0  0  0
    0.0680    1.7854    0.2662 H   0  0  0  0  0  0  0  0  0  0  0  0
   -5.8456   -0.8559    0.2177 H   0  0  0  0  0  0  0  0  0  0  0  0
   -6.3835    1.4855   -0.3331 H   0  0  0  0  0  0  0  0  0  0  0  0
  1  2  1  0
  2  3  1  0
  3  4  1  0
  4  5  1  0
  5  6  1  0
  6  7  1  0
  6  8  1  0
  6  9  2  0
  3 10  1  0
 10 11  1  0
 11 12  1  0
 12 13  1  0
 11 14  1  0
 14 15  1  0
 15 16  2  0
 16 17  1  0
 17 18  2  0
 18 19  1  0
 19 20  2  0
 20 21  1  0
 21 22  1  0
 22 23  2  0
 12  2  1  0
 18 14  1  0
 22 17  1  0
  1 24  1  0
  2 25  1  6
  3 26  1  1
  4 27  1  0
  4 28  1  0
  7 29  1  0
  8 30  1  0
 11 31  1  1
 12 32  1  6
 13 33  1  0
 15 34  1  0
 20 35  1  0
 21 36  1  0
M  END
$$$$
