
     RDKit          3D

 68 72  0  0  0  0  0  0  0  0999 V2000
   -2.6781    4.3755   -1.1595 C   0  0  0  0  0  0  0  0  0  0  0  0
   -1.3437    3.6350   -1.0200 C   0  0  0  0  0  0  0  0  0  0  0  0
   -0.9943    3.7514    0.4670 C   0  0  0  0  0  0  0  0  0  0  0  0
   -2.0327    3.1278    1.3384 C   0  0  0  0  0  0  0  0  0  0  0  0
   -2.2502    1.6859    1.0874 C   0  0  0  0  0  0  0  0  0  0  0  0
   -3.2980    1.1303    0.4305 N   0  0  0  0  0  0  0  0  0  0  0  0
   -3.2296   -0.1849    0.4103 N   0  0  0  0  0  0  0  0  0  0  0  0
   -4.1134   -1.1264   -0.1590 C   0  0  0  0  0  0  0  0  0  0  0  0
   -4.8611   -1.9261    0.6656 C   0  0  0  0  0  0  0  0  0  0  0  0
   -5.7257   -2.8539    0.1422 C   0  0  0  0  0  0  0  0  0  0  0  0
   -5.8554   -2.9954   -1.2176 C   0  0  0  0  0  0  0  0  0  0  0  0
   -5.1195   -2.2084   -2.0669 C   0  0  0  0  0  0  0  0  0  0  0  0
   -5.2971   -2.4047   -3.7901 Cl  0  0  0  0  0  0  0  0  0  0  0  0
   -4.2481   -1.2735   -1.5177 C   0  0  0  0  0  0  0  0  0  0  0  0
   -2.0818   -0.4999    1.0864 C   0  0  0  0  0  0  0  0  0  0  0  0
   -1.6119   -1.8566    1.2986 C   0  0  0  0  0  0  0  0  0  0  0  0
   -0.5595   -2.1367    1.9231 O   0  0  0  0  0  0  0  0  0  0  0  0
   -2.3234   -2.9476    0.8067 O   0  0  0  0  0  0  0  0  0  0  0  0
   -1.8860   -4.2809    1.0014 C   0  0  0  0  0  0  0  0  0  0  0  0
   -1.8090   -4.6127    2.4890 C   0  0  0  0  0  0  0  0  0  0  0  0
   -1.4556    0.6560    1.5160 C   0  0  0  0  0  0  0  0  0  0  0  0
   -0.1722    0.6587    2.2323 C   0  0  0  0  0  0  0  0  0  0  0  0
    1.0214    0.7654    1.3581 C   0  0  0  0  0  0  0  0  0  0  0  0
    2.2895    0.6860    1.9341 C   0  0  0  0  0  0  0  0  0  0  0  0
    3.4286    0.7466    1.1621 C   0  0  0  0  0  0  0  0  0  0  0  0
    3.3827    0.8890   -0.2173 C   0  0  0  0  0  0  0  0  0  0  0  0
    4.6125    0.9810   -1.0002 C   0  0  0  0  0  0  0  0  0  0  0  0
    5.0952    2.2588   -1.3460 C   0  0  0  0  0  0  0  0  0  0  0  0
    6.2383    2.4786   -2.0388 C   0  0  0  0  0  0  0  0  0  0  0  0
    6.9916    1.4136   -2.4417 C   0  0  0  0  0  0  0  0  0  0  0  0
    6.5564    0.1635   -2.1269 C   0  0  0  0  0  0  0  0  0  0  0  0
    5.3683   -0.0896   -1.4063 C   0  0  0  0  0  0  0  0  0  0  0  0
    5.0201   -1.4760   -1.1827 C   0  0  0  0  0  0  0  0  0  0  0  0
    5.8232   -2.5097   -1.4878 N   0  0  0  0  0  0  0  0  0  0  0  0
    5.2804   -3.6663   -1.1728 N   0  0  0  0  0  0  0  0  0  0  0  0
    4.1104   -3.3702   -0.6573 N   0  0  0  0  0  0  0  0  0  0  0  0
    3.9391   -2.0168   -0.6588 N   0  0  0  0  0  0  0  0  0  0  0  0
    2.1185    0.9687   -0.7871 C   0  0  0  0  0  0  0  0  0  0  0  0
    0.9816    0.9069   -0.0087 C   0  0  0  0  0  0  0  0  0  0  0  0
   -3.5272    3.7975   -0.7775 H   0  0  0  0  0  0  0  0  0  0  0  0
   -2.5838    5.3520   -0.6209 H   0  0  0  0  0  0  0  0  0  0  0  0
   -2.7791    4.6178   -2.2503 H   0  0  0  0  0  0  0  0  0  0  0  0
   -1.4994    2.5922   -1.3122 H   0  0  0  0  0  0  0  0  0  0  0  0
   -0.5750    4.1851   -1.5927 H   0  0  0  0  0  0  0  0  0  0  0  0
    0.0309    3.4496    0.6713 H   0  0  0  0  0  0  0  0  0  0  0  0
   -1.0405    4.8725    0.7218 H   0  0  0  0  0  0  0  0  0  0  0  0
   -1.6868    3.2442    2.3976 H   0  0  0  0  0  0  0  0  0  0  0  0
   -2.9845    3.6971    1.2459 H   0  0  0  0  0  0  0  0  0  0  0  0
   -4.7754   -1.8341    1.7582 H   0  0  0  0  0  0  0  0  0  0  0  0
   -6.3339   -3.5066    0.7906 H   0  0  0  0  0  0  0  0  0  0  0  0
   -6.5454   -3.7365   -1.6484 H   0  0  0  0  0  0  0  0  0  0  0  0
   -3.6801   -0.6676   -2.1832 H   0  0  0  0  0  0  0  0  0  0  0  0
   -2.6707   -4.9444    0.5760 H   0  0  0  0  0  0  0  0  0  0  0  0
   -0.9455   -4.5066    0.4946 H   0  0  0  0  0  0  0  0  0  0  0  0
   -0.7678   -4.5213    2.8689 H   0  0  0  0  0  0  0  0  0  0  0  0
   -2.4452   -3.9241    3.0829 H   0  0  0  0  0  0  0  0  0  0  0  0
   -2.1887   -5.6366    2.6956 H   0  0  0  0  0  0  0  0  0  0  0  0
   -0.2230    1.5757    2.9160 H   0  0  0  0  0  0  0  0  0  0  0  0
   -0.0730   -0.1704    2.9892 H   0  0  0  0  0  0  0  0  0  0  0  0
    2.3287    0.5731    3.0214 H   0  0  0  0  0  0  0  0  0  0  0  0
    4.4041    0.6805    1.6276 H   0  0  0  0  0  0  0  0  0  0  0  0
    4.4773    3.1000   -1.0136 H   0  0  0  0  0  0  0  0  0  0  0  0
    6.5638    3.4851   -2.2770 H   0  0  0  0  0  0  0  0  0  0  0  0
    7.9119    1.5636   -2.9973 H   0  0  0  0  0  0  0  0  0  0  0  0
    7.1846   -0.6727   -2.4648 H   0  0  0  0  0  0  0  0  0  0  0  0
    3.0791   -1.5561   -0.3033 H   0  0  0  0  0  0  0  0  0  0  0  0
    2.0491    1.0829   -1.8616 H   0  0  0  0  0  0  0  0  0  0  0  0
   -0.0161    0.9652   -0.4404 H   0  0  0  0  0  0  0  0  0  0  0  0
  1  2  1  0
  2  3  1  0
  3  4  1  0
  4  5  1  0
  5  6  2  0
  6  7  1  0
  7  8  1  0
  8  9  2  0
  9 10  1  0
 10 11  2  0
 11 12  1  0
 12 13  1  0
 12 14  2  0
  7 15  1  0
 15 16  1  0
 16 17  2  0
 16 18  1  0
 18 19  1  0
 19 20  1  0
 15 21  2  0
 21 22  1  0
 22 23  1  0
 23 24  2  0
 24 25  1  0
 25 26  2  0
 26 27  1  0
 27 28  2  0
 28 29  1  0
 29 30  2  0
 30 31  1  0
 31 32  2  0
 32 33  1  0
 33 34  2  0
 34 35  1  0
 35 36  2  0
 36 37  1  0
 26 38  1  0
 38 39  2  0
 21  5  1  0
 39 23  1  0
 14  8  1  0
 32 27  1  0
 37 33  1  0
  1 40  1  0
  1 41  1  0
  1 42  1  0
  2 43  1  0
  2 44  1  0
  3 45  1  0
  3 46  1  0
  4 47  1  0
  4 48  1  0
  9 49  1  0
 10 50  1  0
 11 51  1  0
 14 52  1  0
 19 53  1  0
 19 54  1  0
 20 55  1  0
 20 56  1  0
 20 57  1  0
 22 58  1  0
 22 59  1  0
 24 60  1  0
 25 61  1  0
 28 62  1  0
 29 63  1  0
 30 64  1  0
 31 65  1  0
 37 66  1  0
 38 67  1  0
 39 68  1  0
M  END
$$$$
