@<TRIPOS>MOLECULE
*****
 68 72 0 0 0
SMALL
GASTEIGER

@<TRIPOS>ATOM
      1 C          -2.6781    4.3755   -1.1595 C.3     1  UNL1       -0.0653
      2 C          -1.3437    3.6350   -1.0200 C.3     1  UNL1       -0.0556
      3 C          -0.9943    3.7514    0.4670 C.3     1  UNL1       -0.0478
      4 C          -2.0327    3.1278    1.3384 C.3     1  UNL1       -0.0084
      5 C          -2.2502    1.6859    1.0874 C.ar    1  UNL1        0.0677
      6 N          -3.2980    1.1303    0.4305 N.ar    1  UNL1       -0.1703
      7 N          -3.2296   -0.1849    0.4103 N.ar    1  UNL1       -0.2252
      8 C          -4.1134   -1.1264   -0.1590 C.ar    1  UNL1        0.0677
      9 C          -4.8611   -1.9261    0.6656 C.ar    1  UNL1       -0.0362
     10 C          -5.7257   -2.8539    0.1422 C.ar    1  UNL1       -0.0584
     11 C          -5.8554   -2.9954   -1.2176 C.ar    1  UNL1       -0.0433
     12 C          -5.1195   -2.2084   -2.0669 C.ar    1  UNL1        0.0430
     13 CL         -5.2971   -2.4047   -3.7901 Cl      1  UNL1       -0.0835
     14 C          -4.2481   -1.2735   -1.5177 C.ar    1  UNL1       -0.0179
     15 C          -2.0818   -0.4999    1.0864 C.ar    1  UNL1        0.1549
     16 C          -1.6119   -1.8566    1.2986 C.2     1  UNL1        0.3581
     17 O          -0.5595   -2.1367    1.9231 O.2     1  UNL1       -0.2432
     18 O          -2.3234   -2.9476    0.8067 O.3     1  UNL1       -0.4604
     19 C          -1.8860   -4.2809    1.0014 C.3     1  UNL1        0.0900
     20 C          -1.8090   -4.6127    2.4890 C.3     1  UNL1       -0.0306
     21 C          -1.4556    0.6560    1.5160 C.ar    1  UNL1        0.0123
     22 C          -0.1722    0.6587    2.2323 C.3     1  UNL1        0.0016
     23 C           1.0214    0.7654    1.3581 C.ar    1  UNL1       -0.0429
     24 C           2.2895    0.6860    1.9341 C.ar    1  UNL1       -0.0577
     25 C           3.4286    0.7466    1.1621 C.ar    1  UNL1       -0.0537
     26 C           3.3827    0.8890   -0.2173 C.ar    1  UNL1       -0.0172
     27 C           4.6125    0.9810   -1.0002 C.ar    1  UNL1       -0.0072
     28 C           5.0952    2.2588   -1.3460 C.ar    1  UNL1       -0.0534
     29 C           6.2383    2.4786   -2.0388 C.ar    1  UNL1       -0.0611
     30 C           6.9916    1.4136   -2.4417 C.ar    1  UNL1       -0.0611
     31 C           6.5564    0.1635   -2.1269 C.ar    1  UNL1       -0.0504
     32 C           5.3683   -0.0896   -1.4063 C.ar    1  UNL1        0.0282
     33 C           5.0201   -1.4760   -1.1827 C.ar    1  UNL1        0.1799
     34 N           5.8232   -2.5097   -1.4878 N.ar    1  UNL1       -0.1084
     35 N           5.2804   -3.6663   -1.1728 N.ar    1  UNL1       -0.0229
     36 N           4.1104   -3.3702   -0.6573 N.ar    1  UNL1       -0.0464
     37 N           3.9391   -2.0168   -0.6588 N.ar    1  UNL1       -0.2388
     38 C           2.1185    0.9687   -0.7871 C.ar    1  UNL1       -0.0537
     39 C           0.9816    0.9069   -0.0087 C.ar    1  UNL1       -0.0577
     40 H          -3.5272    3.7975   -0.7775 H       1  UNL1        0.0230
     41 H          -2.5838    5.3520   -0.6209 H       1  UNL1        0.0230
     42 H          -2.7791    4.6178   -2.2503 H       1  UNL1        0.0230
     43 H          -1.4994    2.5922   -1.3122 H       1  UNL1        0.0263
     44 H          -0.5750    4.1851   -1.5927 H       1  UNL1        0.0263
     45 H           0.0309    3.4496    0.6713 H       1  UNL1        0.0269
     46 H          -1.0405    4.8725    0.7218 H       1  UNL1        0.0269
     47 H          -1.6868    3.2442    2.3976 H       1  UNL1        0.0329
     48 H          -2.9845    3.6971    1.2459 H       1  UNL1        0.0329
     49 H          -4.7754   -1.8341    1.7582 H       1  UNL1        0.0639
     50 H          -6.3339   -3.5066    0.7906 H       1  UNL1        0.0619
     51 H          -6.5454   -3.7365   -1.6484 H       1  UNL1        0.0632
     52 H          -3.6801   -0.6676   -2.1832 H       1  UNL1        0.0653
     53 H          -2.6707   -4.9444    0.5760 H       1  UNL1        0.0695
     54 H          -0.9455   -4.5066    0.4946 H       1  UNL1        0.0695
     55 H          -0.7678   -4.5213    2.8689 H       1  UNL1        0.0262
     56 H          -2.4452   -3.9241    3.0829 H       1  UNL1        0.0262
     57 H          -2.1887   -5.6366    2.6956 H       1  UNL1        0.0262
     58 H          -0.2230    1.5757    2.9160 H       1  UNL1        0.0363
     59 H          -0.0730   -0.1704    2.9892 H       1  UNL1        0.0363
     60 H           2.3287    0.5731    3.0214 H       1  UNL1        0.0621
     61 H           4.4041    0.6805    1.6276 H       1  UNL1        0.0624
     62 H           4.4773    3.1000   -1.0136 H       1  UNL1        0.0624
     63 H           6.5638    3.4851   -2.2770 H       1  UNL1        0.0618
     64 H           7.9119    1.5636   -2.9973 H       1  UNL1        0.0618
     65 H           7.1846   -0.6727   -2.4648 H       1  UNL1        0.0625
     66 H           3.0791   -1.5561   -0.3033 H       1  UNL1        0.1923
     67 H           2.0491    1.0829   -1.8616 H       1  UNL1        0.0624
     68 H          -0.0161    0.9652   -0.4404 H       1  UNL1        0.0621
@<TRIPOS>BOND
     1     1     2    1
     2     2     3    1
     3     3     4    1
     4     4     5    1
     5     5     6   ar
     6     6     7   ar
     7     7     8    1
     8     8     9   ar
     9     9    10   ar
    10    10    11   ar
    11    11    12   ar
    12    12    13    1
    13    12    14   ar
    14     7    15   ar
    15    15    16    1
    16    16    17    2
    17    16    18    1
    18    18    19    1
    19    19    20    1
    20    15    21   ar
    21    21    22    1
    22    22    23    1
    23    23    24   ar
    24    24    25   ar
    25    25    26   ar
    26    26    27    1
    27    27    28   ar
    28    28    29   ar
    29    29    30   ar
    30    30    31   ar
    31    31    32   ar
    32    32    33    1
    33    33    34   ar
    34    34    35   ar
    35    35    36   ar
    36    36    37   ar
    37    26    38   ar
    38    38    39   ar
    39    21     5   ar
    40    39    23   ar
    41    14     8   ar
    42    32    27   ar
    43    37    33   ar
    44     1    40    1
    45     1    41    1
    46     1    42    1
    47     2    43    1
    48     2    44    1
    49     3    45    1
    50     3    46    1
    51     4    47    1
    52     4    48    1
    53     9    49    1
    54    10    50    1
    55    11    51    1
    56    14    52    1
    57    19    53    1
    58    19    54    1
    59    20    55    1
    60    20    56    1
    61    20    57    1
    62    22    58    1
    63    22    59    1
    64    24    60    1
    65    25    61    1
    66    28    62    1
    67    29    63    1
    68    30    64    1
    69    31    65    1
    70    37    66    1
    71    38    67    1
    72    39    68    1
