@<TRIPOS>MOLECULE
*****
 47 49 0 0 0
SMALL
GASTEIGER

@<TRIPOS>ATOM
      1 C          -7.5264   -2.4089   -0.6775 C.3     1  UNL1        0.0003
      2 N          -6.3229   -1.6003   -0.4858 N.am    1  UNL1       -0.3149
      3 C          -5.0291   -2.1479   -0.6278 C.2     1  UNL1        0.2367
      4 O          -4.9707   -3.3718   -0.9289 O.2     1  UNL1       -0.2709
      5 C          -3.7936   -1.3930   -0.4494 C.2     1  UNL1        0.0007
      6 C          -3.7434   -0.1268   -0.1388 C.2     1  UNL1       -0.0496
      7 C          -2.5284    0.6529    0.0459 C.ar    1  UNL1       -0.0208
      8 C          -2.6206    2.0062    0.3784 C.ar    1  UNL1       -0.0128
      9 C          -1.5492    2.8245    0.5738 C.ar    1  UNL1        0.1212
     10 O          -1.6939    4.1636    0.9031 O.3     1  UNL1       -0.4951
     11 C          -2.9943    4.6811    1.0368 C.3     1  UNL1        0.0788
     12 C          -0.2839    2.2404    0.4242 C.ar    1  UNL1       -0.0122
     13 C          -0.1299    0.9281    0.1014 C.ar    1  UNL1       -0.0139
     14 C           1.1741    0.3152   -0.0545 C.ar    1  UNL1       -0.0172
     15 C           1.4139   -0.7266   -0.9284 C.ar    1  UNL1       -0.0534
     16 C           2.6973   -1.2599   -1.0168 C.ar    1  UNL1       -0.0533
     17 C           3.7436   -0.7677   -0.2453 C.ar    1  UNL1       -0.0144
     18 C           5.0180   -1.2748   -0.3123 C.ar    1  UNL1       -0.0122
     19 C           6.0630   -0.7895    0.4528 C.ar    1  UNL1        0.1207
     20 O           7.3518   -1.2959    0.3908 O.3     1  UNL1       -0.4951
     21 C           7.6644   -2.3525   -0.4741 C.3     1  UNL1        0.0788
     22 C           5.7914    0.2641    1.3276 C.ar    1  UNL1       -0.0194
     23 C           4.5063    0.7599    1.3810 C.ar    1  UNL1       -0.0506
     24 C           3.4721    0.2680    0.6131 C.ar    1  UNL1       -0.0171
     25 C           2.2076    0.8079    0.7133 C.ar    1  UNL1       -0.0463
     26 C          -1.2531    0.1536   -0.0830 C.ar    1  UNL1       -0.0466
     27 H          -7.2161   -3.4541   -0.5324 H       1  UNL1        0.0426
     28 H          -7.8914   -2.2740   -1.7287 H       1  UNL1        0.0426
     29 H          -8.3065   -2.0635    0.0048 H       1  UNL1        0.0426
     30 H          -6.4478   -0.6130   -0.2426 H       1  UNL1        0.1487
     31 H          -2.8378   -1.9028   -0.5797 H       1  UNL1        0.0669
     32 H          -4.7014    0.3760   -0.0101 H       1  UNL1        0.0625
     33 H          -3.6109    2.4250    0.4863 H       1  UNL1        0.0660
     34 H          -3.0239    5.7604    1.2128 H       1  UNL1        0.0660
     35 H          -3.5522    4.4263    0.0946 H       1  UNL1        0.0660
     36 H          -3.5098    4.1383    1.8557 H       1  UNL1        0.0660
     37 H           0.5774    2.8698    0.5743 H       1  UNL1        0.0660
     38 H           0.6016   -1.1068   -1.5257 H       1  UNL1        0.0624
     39 H           2.8896   -2.0667   -1.6917 H       1  UNL1        0.0624
     40 H           5.1918   -2.0878   -0.9981 H       1  UNL1        0.0660
     41 H           7.1692   -2.2617   -1.4624 H       1  UNL1        0.0660
     42 H           7.4067   -3.3536   -0.0739 H       1  UNL1        0.0660
     43 H           8.7770   -2.3754   -0.6286 H       1  UNL1        0.0660
     44 H           6.5826    0.6896    1.9598 H       1  UNL1        0.0654
     45 H           4.2883    1.5767    2.0570 H       1  UNL1        0.0625
     46 H           2.0724    1.6218    1.4121 H       1  UNL1        0.0630
     47 H          -1.1227   -0.8746   -0.3359 H       1  UNL1        0.0630
@<TRIPOS>BOND
     1     1     2    1
     2     2     3   am
     3     3     4    2
     4     3     5    1
     5     5     6    2
     6     6     7    1
     7     7     8   ar
     8     8     9   ar
     9     9    10    1
    10    10    11    1
    11     9    12   ar
    12    12    13   ar
    13    13    14    1
    14    14    15   ar
    15    15    16   ar
    16    16    17   ar
    17    17    18   ar
    18    18    19   ar
    19    19    20    1
    20    20    21    1
    21    19    22   ar
    22    22    23   ar
    23    23    24   ar
    24    24    25   ar
    25    13    26   ar
    26    26     7   ar
    27    25    14   ar
    28    24    17   ar
    29     1    27    1
    30     1    28    1
    31     1    29    1
    32     2    30    1
    33     5    31    1
    34     6    32    1
    35     8    33    1
    36    11    34    1
    37    11    35    1
    38    11    36    1
    39    12    37    1
    40    15    38    1
    41    16    39    1
    42    18    40    1
    43    21    41    1
    44    21    42    1
    45    21    43    1
    46    22    44    1
    47    23    45    1
    48    25    46    1
    49    26    47    1
