
     RDKit          3D

 47 49  0  0  0  0  0  0  0  0999 V2000
   -7.5264   -2.4089   -0.6775 C   0  0  0  0  0  0  0  0  0  0  0  0
   -6.3229   -1.6003   -0.4858 N   0  0  0  0  0  0  0  0  0  0  0  0
   -5.0291   -2.1479   -0.6278 C   0  0  0  0  0  0  0  0  0  0  0  0
   -4.9707   -3.3718   -0.9289 O   0  0  0  0  0  0  0  0  0  0  0  0
   -3.7936   -1.3930   -0.4494 C   0  0  0  0  0  0  0  0  0  0  0  0
   -3.7434   -0.1268   -0.1388 C   0  0  0  0  0  0  0  0  0  0  0  0
   -2.5284    0.6529    0.0459 C   0  0  0  0  0  0  0  0  0  0  0  0
   -2.6206    2.0062    0.3784 C   0  0  0  0  0  0  0  0  0  0  0  0
   -1.5492    2.8245    0.5738 C   0  0  0  0  0  0  0  0  0  0  0  0
   -1.6939    4.1636    0.9031 O   0  0  0  0  0  0  0  0  0  0  0  0
   -2.9943    4.6811    1.0368 C   0  0  0  0  0  0  0  0  0  0  0  0
   -0.2839    2.2404    0.4242 C   0  0  0  0  0  0  0  0  0  0  0  0
   -0.1299    0.9281    0.1014 C   0  0  0  0  0  0  0  0  0  0  0  0
    1.1741    0.3152   -0.0545 C   0  0  0  0  0  0  0  0  0  0  0  0
    1.4139   -0.7266   -0.9284 C   0  0  0  0  0  0  0  0  0  0  0  0
    2.6973   -1.2599   -1.0168 C   0  0  0  0  0  0  0  0  0  0  0  0
    3.7436   -0.7677   -0.2453 C   0  0  0  0  0  0  0  0  0  0  0  0
    5.0180   -1.2748   -0.3123 C   0  0  0  0  0  0  0  0  0  0  0  0
    6.0630   -0.7895    0.4528 C   0  0  0  0  0  0  0  0  0  0  0  0
    7.3518   -1.2959    0.3908 O   0  0  0  0  0  0  0  0  0  0  0  0
    7.6644   -2.3525   -0.4741 C   0  0  0  0  0  0  0  0  0  0  0  0
    5.7914    0.2641    1.3276 C   0  0  0  0  0  0  0  0  0  0  0  0
    4.5063    0.7599    1.3810 C   0  0  0  0  0  0  0  0  0  0  0  0
    3.4721    0.2680    0.6131 C   0  0  0  0  0  0  0  0  0  0  0  0
    2.2076    0.8079    0.7133 C   0  0  0  0  0  0  0  0  0  0  0  0
   -1.2531    0.1536   -0.0830 C   0  0  0  0  0  0  0  0  0  0  0  0
   -7.2161   -3.4541   -0.5324 H   0  0  0  0  0  0  0  0  0  0  0  0
   -7.8914   -2.2740   -1.7287 H   0  0  0  0  0  0  0  0  0  0  0  0
   -8.3065   -2.0635    0.0048 H   0  0  0  0  0  0  0  0  0  0  0  0
   -6.4478   -0.6130   -0.2426 H   0  0  0  0  0  0  0  0  0  0  0  0
   -2.8378   -1.9028   -0.5797 H   0  0  0  0  0  0  0  0  0  0  0  0
   -4.7014    0.3760   -0.0101 H   0  0  0  0  0  0  0  0  0  0  0  0
   -3.6109    2.4250    0.4863 H   0  0  0  0  0  0  0  0  0  0  0  0
   -3.0239    5.7604    1.2128 H   0  0  0  0  0  0  0  0  0  0  0  0
   -3.5522    4.4263    0.0946 H   0  0  0  0  0  0  0  0  0  0  0  0
   -3.5098    4.1383    1.8557 H   0  0  0  0  0  0  0  0  0  0  0  0
    0.5774    2.8698    0.5743 H   0  0  0  0  0  0  0  0  0  0  0  0
    0.6016   -1.1068   -1.5257 H   0  0  0  0  0  0  0  0  0  0  0  0
    2.8896   -2.0667   -1.6917 H   0  0  0  0  0  0  0  0  0  0  0  0
    5.1918   -2.0878   -0.9981 H   0  0  0  0  0  0  0  0  0  0  0  0
    7.1692   -2.2617   -1.4624 H   0  0  0  0  0  0  0  0  0  0  0  0
    7.4067   -3.3536   -0.0739 H   0  0  0  0  0  0  0  0  0  0  0  0
    8.7770   -2.3754   -0.6286 H   0  0  0  0  0  0  0  0  0  0  0  0
    6.5826    0.6896    1.9598 H   0  0  0  0  0  0  0  0  0  0  0  0
    4.2883    1.5767    2.0570 H   0  0  0  0  0  0  0  0  0  0  0  0
    2.0724    1.6218    1.4121 H   0  0  0  0  0  0  0  0  0  0  0  0
   -1.1227   -0.8746   -0.3359 H   0  0  0  0  0  0  0  0  0  0  0  0
  1  2  1  0
  2  3  1  0
  3  4  2  0
  3  5  1  0
  5  6  2  0
  6  7  1  0
  7  8  2  0
  8  9  1  0
  9 10  1  0
 10 11  1  0
  9 12  2  0
 12 13  1  0
 13 14  1  0
 14 15  2  0
 15 16  1  0
 16 17  2  0
 17 18  1  0
 18 19  2  0
 19 20  1  0
 20 21  1  0
 19 22  1  0
 22 23  2  0
 23 24  1  0
 24 25  2  0
 13 26  2  0
 26  7  1  0
 25 14  1  0
 24 17  1  0
  1 27  1  0
  1 28  1  0
  1 29  1  0
  2 30  1  0
  5 31  1  0
  6 32  1  0
  8 33  1  0
 11 34  1  0
 11 35  1  0
 11 36  1  0
 12 37  1  0
 15 38  1  0
 16 39  1  0
 18 40  1  0
 21 41  1  0
 21 42  1  0
 21 43  1  0
 22 44  1  0
 23 45  1  0
 25 46  1  0
 26 47  1  0
M  END
$$$$
