@<TRIPOS>MOLECULE
*****
 52 55 0 0 0
SMALL
GASTEIGER

@<TRIPOS>ATOM
      1 C          -7.1845   -1.2719    0.1066 C.3     1  UNL1        0.0004
      2 N          -6.3007   -0.1948   -0.2716 N.pl3   1  UNL1       -0.3360
      3 C          -6.8899    1.0071   -0.8358 C.3     1  UNL1        0.0004
      4 C          -4.8873   -0.3000   -0.1023 C.ar    1  UNL1        0.0292
      5 C          -4.0492    0.7425   -0.4658 C.ar    1  UNL1       -0.0404
      6 C          -2.6726    0.6362   -0.3007 C.ar    1  UNL1       -0.0550
      7 C          -2.0894   -0.4940    0.2240 C.ar    1  UNL1       -0.0243
      8 C          -0.6148   -0.6084    0.4014 C.3     1  UNL1        0.0858
      9 N          -0.0509   -1.1707   -0.7998 N.2     1  UNL1       -0.1808
     10 N           1.0355   -0.7296   -1.2733 N.2     1  UNL1       -0.1323
     11 C           1.7089    0.3354   -0.6106 C.ar    1  UNL1        0.1966
     12 N           1.4244    1.6361   -0.9295 N.ar    1  UNL1       -0.2233
     13 C           2.0512    2.6458   -0.3030 C.ar    1  UNL1        0.0916
     14 C           1.7450    3.9629   -0.6443 C.ar    1  UNL1       -0.0342
     15 C           2.4071    4.9739    0.0193 C.ar    1  UNL1       -0.0596
     16 C           3.3476    4.6947    0.9946 C.ar    1  UNL1       -0.0596
     17 C           3.6177    3.3777    1.2986 C.ar    1  UNL1       -0.0342
     18 C           2.9808    2.3222    0.6621 C.ar    1  UNL1        0.0896
     19 N           3.2714    1.0462    0.9867 N.ar    1  UNL1       -0.2460
     20 C           2.6336    0.0193    0.3487 C.ar    1  UNL1        0.0920
     21 C           2.9666   -1.3753    0.7086 C.3     1  UNL1        0.0185
     22 C           3.8480   -2.0636   -0.2373 C.ar    1  UNL1       -0.0415
     23 C           3.4035   -2.9257   -1.2108 C.ar    1  UNL1       -0.0582
     24 C           4.2635   -3.5595   -2.1018 C.ar    1  UNL1       -0.0615
     25 C           5.6133   -3.3081   -1.9973 C.ar    1  UNL1       -0.0617
     26 C           6.0839   -2.4478   -1.0292 C.ar    1  UNL1       -0.0615
     27 C           5.2146   -1.8444   -0.1739 C.ar    1  UNL1       -0.0582
     28 C          -2.9221   -1.5256    0.5835 C.ar    1  UNL1       -0.0550
     29 C          -4.3108   -1.4330    0.4230 C.ar    1  UNL1       -0.0404
     30 H          -6.8604   -1.7865    1.0543 H       1  UNL1        0.0428
     31 H          -7.3081   -2.0045   -0.7321 H       1  UNL1        0.0428
     32 H          -8.1986   -0.8408    0.2854 H       1  UNL1        0.0428
     33 H          -6.4021    1.2108   -1.8207 H       1  UNL1        0.0428
     34 H          -6.7057    1.9017   -0.2010 H       1  UNL1        0.0428
     35 H          -7.9768    0.9022   -0.9763 H       1  UNL1        0.0428
     36 H          -4.4642    1.6484   -0.8818 H       1  UNL1        0.0636
     37 H          -2.0171    1.4573   -0.5873 H       1  UNL1        0.0621
     38 H          -0.1692    0.4118    0.5357 H       1  UNL1        0.0576
     39 H          -0.3394   -1.1780    1.3041 H       1  UNL1        0.0576
     40 H           1.0000    4.1851   -1.4167 H       1  UNL1        0.0639
     41 H           2.1637    6.0012   -0.2513 H       1  UNL1        0.0618
     42 H           3.8562    5.5083    1.5034 H       1  UNL1        0.0618
     43 H           4.3557    3.1053    2.0652 H       1  UNL1        0.0639
     44 H           3.4503   -1.4272    1.7287 H       1  UNL1        0.0378
     45 H           2.0459   -1.9910    0.8128 H       1  UNL1        0.0378
     46 H           2.3424   -3.1473   -1.3097 H       1  UNL1        0.0620
     47 H           3.9234   -4.2350   -2.8665 H       1  UNL1        0.0618
     48 H           6.3295   -3.7786   -2.6705 H       1  UNL1        0.0618
     49 H           7.1367   -2.2258   -0.9163 H       1  UNL1        0.0618
     50 H           5.5836   -1.1714    0.5835 H       1  UNL1        0.0620
     51 H          -2.4702   -2.4325    1.0032 H       1  UNL1        0.0621
     52 H          -4.9199   -2.2607    0.7156 H       1  UNL1        0.0636
@<TRIPOS>BOND
     1     1     2    1
     2     2     3    1
     3     2     4    1
     4     4     5   ar
     5     5     6   ar
     6     6     7   ar
     7     7     8    1
     8     8     9    1
     9     9    10    2
    10    10    11    1
    11    11    12   ar
    12    12    13   ar
    13    13    14   ar
    14    14    15   ar
    15    15    16   ar
    16    16    17   ar
    17    17    18   ar
    18    18    19   ar
    19    19    20   ar
    20    20    21    1
    21    21    22    1
    22    22    23   ar
    23    23    24   ar
    24    24    25   ar
    25    25    26   ar
    26    26    27   ar
    27     7    28   ar
    28    28    29   ar
    29    29     4   ar
    30    20    11   ar
    31    27    22   ar
    32    18    13   ar
    33     1    30    1
    34     1    31    1
    35     1    32    1
    36     3    33    1
    37     3    34    1
    38     3    35    1
    39     5    36    1
    40     6    37    1
    41     8    38    1
    42     8    39    1
    43    14    40    1
    44    15    41    1
    45    16    42    1
    46    17    43    1
    47    21    44    1
    48    21    45    1
    49    23    46    1
    50    24    47    1
    51    25    48    1
    52    26    49    1
    53    27    50    1
    54    28    51    1
    55    29    52    1
