
     RDKit          3D

 52 55  0  0  0  0  0  0  0  0999 V2000
   -7.1845   -1.2719    0.1066 C   0  0  0  0  0  0  0  0  0  0  0  0
   -6.3007   -0.1948   -0.2716 N   0  0  0  0  0  0  0  0  0  0  0  0
   -6.8899    1.0071   -0.8358 C   0  0  0  0  0  0  0  0  0  0  0  0
   -4.8873   -0.3000   -0.1023 C   0  0  0  0  0  0  0  0  0  0  0  0
   -4.0492    0.7425   -0.4658 C   0  0  0  0  0  0  0  0  0  0  0  0
   -2.6726    0.6362   -0.3007 C   0  0  0  0  0  0  0  0  0  0  0  0
   -2.0894   -0.4940    0.2240 C   0  0  0  0  0  0  0  0  0  0  0  0
   -0.6148   -0.6084    0.4014 C   0  0  0  0  0  0  0  0  0  0  0  0
   -0.0509   -1.1707   -0.7998 N   0  0  0  0  0  0  0  0  0  0  0  0
    1.0355   -0.7296   -1.2733 N   0  0  0  0  0  0  0  0  0  0  0  0
    1.7089    0.3354   -0.6106 C   0  0  0  0  0  0  0  0  0  0  0  0
    1.4244    1.6361   -0.9295 N   0  0  0  0  0  0  0  0  0  0  0  0
    2.0512    2.6458   -0.3030 C   0  0  0  0  0  0  0  0  0  0  0  0
    1.7450    3.9629   -0.6443 C   0  0  0  0  0  0  0  0  0  0  0  0
    2.4071    4.9739    0.0193 C   0  0  0  0  0  0  0  0  0  0  0  0
    3.3476    4.6947    0.9946 C   0  0  0  0  0  0  0  0  0  0  0  0
    3.6177    3.3777    1.2986 C   0  0  0  0  0  0  0  0  0  0  0  0
    2.9808    2.3222    0.6621 C   0  0  0  0  0  0  0  0  0  0  0  0
    3.2714    1.0462    0.9867 N   0  0  0  0  0  0  0  0  0  0  0  0
    2.6336    0.0193    0.3487 C   0  0  0  0  0  0  0  0  0  0  0  0
    2.9666   -1.3753    0.7086 C   0  0  0  0  0  0  0  0  0  0  0  0
    3.8480   -2.0636   -0.2373 C   0  0  0  0  0  0  0  0  0  0  0  0
    3.4035   -2.9257   -1.2108 C   0  0  0  0  0  0  0  0  0  0  0  0
    4.2635   -3.5595   -2.1018 C   0  0  0  0  0  0  0  0  0  0  0  0
    5.6133   -3.3081   -1.9973 C   0  0  0  0  0  0  0  0  0  0  0  0
    6.0839   -2.4478   -1.0292 C   0  0  0  0  0  0  0  0  0  0  0  0
    5.2146   -1.8444   -0.1739 C   0  0  0  0  0  0  0  0  0  0  0  0
   -2.9221   -1.5256    0.5835 C   0  0  0  0  0  0  0  0  0  0  0  0
   -4.3108   -1.4330    0.4230 C   0  0  0  0  0  0  0  0  0  0  0  0
   -6.8604   -1.7865    1.0543 H   0  0  0  0  0  0  0  0  0  0  0  0
   -7.3081   -2.0045   -0.7321 H   0  0  0  0  0  0  0  0  0  0  0  0
   -8.1986   -0.8408    0.2854 H   0  0  0  0  0  0  0  0  0  0  0  0
   -6.4021    1.2108   -1.8207 H   0  0  0  0  0  0  0  0  0  0  0  0
   -6.7057    1.9017   -0.2010 H   0  0  0  0  0  0  0  0  0  0  0  0
   -7.9768    0.9022   -0.9763 H   0  0  0  0  0  0  0  0  0  0  0  0
   -4.4642    1.6484   -0.8818 H   0  0  0  0  0  0  0  0  0  0  0  0
   -2.0171    1.4573   -0.5873 H   0  0  0  0  0  0  0  0  0  0  0  0
   -0.1692    0.4118    0.5357 H   0  0  0  0  0  0  0  0  0  0  0  0
   -0.3394   -1.1780    1.3041 H   0  0  0  0  0  0  0  0  0  0  0  0
    1.0000    4.1851   -1.4167 H   0  0  0  0  0  0  0  0  0  0  0  0
    2.1637    6.0012   -0.2513 H   0  0  0  0  0  0  0  0  0  0  0  0
    3.8562    5.5083    1.5034 H   0  0  0  0  0  0  0  0  0  0  0  0
    4.3557    3.1053    2.0652 H   0  0  0  0  0  0  0  0  0  0  0  0
    3.4503   -1.4272    1.7287 H   0  0  0  0  0  0  0  0  0  0  0  0
    2.0459   -1.9910    0.8128 H   0  0  0  0  0  0  0  0  0  0  0  0
    2.3424   -3.1473   -1.3097 H   0  0  0  0  0  0  0  0  0  0  0  0
    3.9234   -4.2350   -2.8665 H   0  0  0  0  0  0  0  0  0  0  0  0
    6.3295   -3.7786   -2.6705 H   0  0  0  0  0  0  0  0  0  0  0  0
    7.1367   -2.2258   -0.9163 H   0  0  0  0  0  0  0  0  0  0  0  0
    5.5836   -1.1714    0.5835 H   0  0  0  0  0  0  0  0  0  0  0  0
   -2.4702   -2.4325    1.0032 H   0  0  0  0  0  0  0  0  0  0  0  0
   -4.9199   -2.2607    0.7156 H   0  0  0  0  0  0  0  0  0  0  0  0
  1  2  1  0
  2  3  1  0
  2  4  1  0
  4  5  2  0
  5  6  1  0
  6  7  2  0
  7  8  1  0
  8  9  1  0
  9 10  2  3
 10 11  1  0
 11 12  2  0
 12 13  1  0
 13 14  2  0
 14 15  1  0
 15 16  2  0
 16 17  1  0
 17 18  2  0
 18 19  1  0
 19 20  2  0
 20 21  1  0
 21 22  1  0
 22 23  2  0
 23 24  1  0
 24 25  2  0
 25 26  1  0
 26 27  2  0
  7 28  1  0
 28 29  2  0
 29  4  1  0
 20 11  1  0
 27 22  1  0
 18 13  1  0
  1 30  1  0
  1 31  1  0
  1 32  1  0
  3 33  1  0
  3 34  1  0
  3 35  1  0
  5 36  1  0
  6 37  1  0
  8 38  1  0
  8 39  1  0
 14 40  1  0
 15 41  1  0
 16 42  1  0
 17 43  1  0
 21 44  1  0
 21 45  1  0
 23 46  1  0
 24 47  1  0
 25 48  1  0
 26 49  1  0
 27 50  1  0
 28 51  1  0
 29 52  1  0
M  END
$$$$
