@<TRIPOS>MOLECULE
*****
 53 55 0 0 0
SMALL
GASTEIGER

@<TRIPOS>ATOM
      1 C          -5.1300   -2.3699   -0.3996 C.3     1  UNL1       -0.0355
      2 C          -3.6684   -2.6783   -0.4647 C.3     1  UNL1        0.0889
      3 O          -3.3530   -3.9997   -0.2530 O.3     1  UNL1       -0.3884
      4 C          -2.8364   -1.7947    0.4502 C.3     1  UNL1        0.1228
      5 C          -3.1078   -2.1272    1.9088 C.3     1  UNL1       -0.0253
      6 O          -3.1201   -0.4555    0.2722 O.3     1  UNL1       -0.4865
      7 C          -2.2546    0.5201   -0.1107 C.ar    1  UNL1        0.1224
      8 C          -0.9292    0.2821   -0.3802 C.ar    1  UNL1       -0.0078
      9 C          -0.0556    1.2805   -0.7692 C.ar    1  UNL1        0.0408
     10 C           1.3498    1.0836   -1.0652 C.2     1  UNL1        0.2447
     11 O           2.0769    2.0632   -1.4156 O.2     1  UNL1       -0.2702
     12 N           1.9491   -0.1936   -0.9736 N.am    1  UNL1       -0.3047
     13 C           3.3736   -0.3869   -1.2748 C.3     1  UNL1        0.0487
     14 C           3.5156   -1.4128   -2.3520 C.3     1  UNL1       -0.0423
     15 C           4.0192   -0.7896    0.0064 C.ar    1  UNL1        0.0087
     16 C           5.2180   -0.2179    0.4081 C.ar    1  UNL1        0.0363
     17 N           5.7971   -0.5849    1.5653 N.ar    1  UNL1       -0.2321
     18 C           5.2586   -1.5080    2.3823 C.ar    1  UNL1        0.2339
     19 C           5.9418   -1.8775    3.6523 C.3     1  UNL1        0.4522
     20 F           6.9022   -2.8509    3.3447 F       1  UNL1       -0.1632
     21 F           6.6217   -0.7740    4.0943 F       1  UNL1       -0.1632
     22 F           5.0392   -2.3582    4.5612 F       1  UNL1       -0.1632
     23 N           4.0968   -2.0679    2.0015 N.ar    1  UNL1       -0.2321
     24 C           3.4739   -1.7350    0.8496 C.ar    1  UNL1        0.0363
     25 C          -0.5643    2.5803   -0.8869 C.ar    1  UNL1       -0.0397
     26 C          -1.8815    2.8335   -0.6221 C.ar    1  UNL1        0.0113
     27 C          -2.3450    4.2073   -0.7640 C.ar    1  UNL1        0.1097
     28 N          -1.8131    5.3049   -1.0905 N.ar    1  UNL1       -0.2458
     29 C          -2.4433    6.4334   -1.1481 C.ar    1  UNL1        0.0539
     30 C          -3.7594    6.4600   -0.8421 C.ar    1  UNL1        0.0980
     31 CL         -4.9662    7.7327   -0.7900 Cl      1  UNL1       -0.0742
     32 S          -4.0476    4.7079   -0.4534 S.2     1  UNL1       -0.0557
     33 C          -2.7372    1.8294   -0.2363 C.ar    1  UNL1       -0.0102
     34 H          -5.6690   -3.2467   -0.8498 H       1  UNL1        0.0256
     35 H          -5.3400   -1.5144   -1.0700 H       1  UNL1        0.0256
     36 H          -5.5348   -2.2462    0.6069 H       1  UNL1        0.0256
     37 H          -3.3233   -2.4292   -1.5087 H       1  UNL1        0.0627
     38 H          -2.5013   -4.0731    0.2713 H       1  UNL1        0.2099
     39 H          -1.7944   -2.0486    0.2509 H       1  UNL1        0.0756
     40 H          -2.8261   -1.2283    2.4981 H       1  UNL1        0.0266
     41 H          -4.1619   -2.3395    2.1129 H       1  UNL1        0.0266
     42 H          -2.4122   -2.9314    2.2326 H       1  UNL1        0.0266
     43 H          -0.4838   -0.7041   -0.3050 H       1  UNL1        0.0662
     44 H           1.4273   -1.0422   -0.6959 H       1  UNL1        0.1496
     45 H           3.8080    0.5993   -1.5613 H       1  UNL1        0.0546
     46 H           2.5318   -1.9206   -2.5197 H       1  UNL1        0.0251
     47 H           4.2159   -2.2004   -2.0144 H       1  UNL1        0.0251
     48 H           3.8411   -0.9649   -3.3296 H       1  UNL1        0.0251
     49 H           5.6415    0.5215   -0.2545 H       1  UNL1        0.0834
     50 H           2.5311   -2.2037    0.5615 H       1  UNL1        0.0834
     51 H           0.1067    3.3820   -1.1920 H       1  UNL1        0.0632
     52 H          -1.9200    7.3772   -1.4444 H       1  UNL1        0.0850
     53 H          -3.7571    2.0771   -0.0407 H       1  UNL1        0.0661
@<TRIPOS>BOND
     1     1     2    1
     2     2     3    1
     3     2     4    1
     4     4     5    1
     5     4     6    1
     6     6     7    1
     7     7     8   ar
     8     8     9   ar
     9     9    10    1
    10    10    11    2
    11    10    12   am
    12    12    13    1
    13    13    14    1
    14    13    15    1
    15    15    16   ar
    16    16    17   ar
    17    17    18   ar
    18    18    19    1
    19    19    20    1
    20    19    21    1
    21    19    22    1
    22    18    23   ar
    23    23    24   ar
    24     9    25   ar
    25    25    26   ar
    26    26    27    1
    27    27    28   ar
    28    28    29   ar
    29    29    30   ar
    30    30    31    1
    31    30    32   ar
    32    26    33   ar
    33    33     7   ar
    34    24    15   ar
    35    32    27   ar
    36     1    34    1
    37     1    35    1
    38     1    36    1
    39     2    37    1
    40     3    38    1
    41     4    39    1
    42     5    40    1
    43     5    41    1
    44     5    42    1
    45     8    43    1
    46    12    44    1
    47    13    45    1
    48    14    46    1
    49    14    47    1
    50    14    48    1
    51    16    49    1
    52    24    50    1
    53    25    51    1
    54    29    52    1
    55    33    53    1
