
     RDKit          3D

 53 55  0  0  0  0  0  0  0  0999 V2000
   -5.1300   -2.3699   -0.3996 C   0  0  0  0  0  0  0  0  0  0  0  0
   -3.6684   -2.6783   -0.4647 C   0  0  0  0  0  0  0  0  0  0  0  0
   -3.3530   -3.9997   -0.2530 O   0  0  0  0  0  0  0  0  0  0  0  0
   -2.8364   -1.7947    0.4502 C   0  0  0  0  0  0  0  0  0  0  0  0
   -3.1078   -2.1272    1.9088 C   0  0  0  0  0  0  0  0  0  0  0  0
   -3.1201   -0.4555    0.2722 O   0  0  0  0  0  0  0  0  0  0  0  0
   -2.2546    0.5201   -0.1107 C   0  0  0  0  0  0  0  0  0  0  0  0
   -0.9292    0.2821   -0.3802 C   0  0  0  0  0  0  0  0  0  0  0  0
   -0.0556    1.2805   -0.7692 C   0  0  0  0  0  0  0  0  0  0  0  0
    1.3498    1.0836   -1.0652 C   0  0  0  0  0  0  0  0  0  0  0  0
    2.0769    2.0632   -1.4156 O   0  0  0  0  0  0  0  0  0  0  0  0
    1.9491   -0.1936   -0.9736 N   0  0  0  0  0  0  0  0  0  0  0  0
    3.3736   -0.3869   -1.2748 C   0  0  2  0  0  0  0  0  0  0  0  0
    3.5156   -1.4128   -2.3520 C   0  0  0  0  0  0  0  0  0  0  0  0
    4.0192   -0.7896    0.0064 C   0  0  0  0  0  0  0  0  0  0  0  0
    5.2180   -0.2179    0.4081 C   0  0  0  0  0  0  0  0  0  0  0  0
    5.7971   -0.5849    1.5653 N   0  0  0  0  0  0  0  0  0  0  0  0
    5.2586   -1.5080    2.3823 C   0  0  0  0  0  0  0  0  0  0  0  0
    5.9418   -1.8775    3.6523 C   0  0  0  0  0  0  0  0  0  0  0  0
    6.9022   -2.8509    3.3447 F   0  0  0  0  0  0  0  0  0  0  0  0
    6.6217   -0.7740    4.0943 F   0  0  0  0  0  0  0  0  0  0  0  0
    5.0392   -2.3582    4.5612 F   0  0  0  0  0  0  0  0  0  0  0  0
    4.0968   -2.0679    2.0015 N   0  0  0  0  0  0  0  0  0  0  0  0
    3.4739   -1.7350    0.8496 C   0  0  0  0  0  0  0  0  0  0  0  0
   -0.5643    2.5803   -0.8869 C   0  0  0  0  0  0  0  0  0  0  0  0
   -1.8815    2.8335   -0.6221 C   0  0  0  0  0  0  0  0  0  0  0  0
   -2.3450    4.2073   -0.7640 C   0  0  0  0  0  0  0  0  0  0  0  0
   -1.8131    5.3049   -1.0905 N   0  0  0  0  0  0  0  0  0  0  0  0
   -2.4433    6.4334   -1.1481 C   0  0  0  0  0  0  0  0  0  0  0  0
   -3.7594    6.4600   -0.8421 C   0  0  0  0  0  0  0  0  0  0  0  0
   -4.9662    7.7327   -0.7900 Cl  0  0  0  0  0  0  0  0  0  0  0  0
   -4.0476    4.7079   -0.4534 S   0  0  0  0  0  0  0  0  0  0  0  0
   -2.7372    1.8294   -0.2363 C   0  0  0  0  0  0  0  0  0  0  0  0
   -5.6690   -3.2467   -0.8498 H   0  0  0  0  0  0  0  0  0  0  0  0
   -5.3400   -1.5144   -1.0700 H   0  0  0  0  0  0  0  0  0  0  0  0
   -5.5348   -2.2462    0.6069 H   0  0  0  0  0  0  0  0  0  0  0  0
   -3.3233   -2.4292   -1.5087 H   0  0  0  0  0  0  0  0  0  0  0  0
   -2.5013   -4.0731    0.2713 H   0  0  0  0  0  0  0  0  0  0  0  0
   -1.7944   -2.0486    0.2509 H   0  0  0  0  0  0  0  0  0  0  0  0
   -2.8261   -1.2283    2.4981 H   0  0  0  0  0  0  0  0  0  0  0  0
   -4.1619   -2.3395    2.1129 H   0  0  0  0  0  0  0  0  0  0  0  0
   -2.4122   -2.9314    2.2326 H   0  0  0  0  0  0  0  0  0  0  0  0
   -0.4838   -0.7041   -0.3050 H   0  0  0  0  0  0  0  0  0  0  0  0
    1.4273   -1.0422   -0.6959 H   0  0  0  0  0  0  0  0  0  0  0  0
    3.8080    0.5993   -1.5613 H   0  0  0  0  0  0  0  0  0  0  0  0
    2.5318   -1.9206   -2.5197 H   0  0  0  0  0  0  0  0  0  0  0  0
    4.2159   -2.2004   -2.0144 H   0  0  0  0  0  0  0  0  0  0  0  0
    3.8411   -0.9649   -3.3296 H   0  0  0  0  0  0  0  0  0  0  0  0
    5.6415    0.5215   -0.2545 H   0  0  0  0  0  0  0  0  0  0  0  0
    2.5311   -2.2037    0.5615 H   0  0  0  0  0  0  0  0  0  0  0  0
    0.1067    3.3820   -1.1920 H   0  0  0  0  0  0  0  0  0  0  0  0
   -1.9200    7.3772   -1.4444 H   0  0  0  0  0  0  0  0  0  0  0  0
   -3.7571    2.0771   -0.0407 H   0  0  0  0  0  0  0  0  0  0  0  0
  1  2  1  0
  2  3  1  0
  2  4  1  0
  4  5  1  0
  4  6  1  0
  6  7  1  0
  7  8  2  0
  8  9  1  0
  9 10  1  0
 10 11  2  0
 10 12  1  0
 12 13  1  0
 13 14  1  0
 13 15  1  0
 15 16  2  0
 16 17  1  0
 17 18  2  0
 18 19  1  0
 19 20  1  0
 19 21  1  0
 19 22  1  0
 18 23  1  0
 23 24  2  0
  9 25  2  0
 25 26  1  0
 26 27  1  0
 27 28  2  0
 28 29  1  0
 29 30  2  0
 30 31  1  0
 30 32  1  0
 26 33  2  0
 33  7  1  0
 24 15  1  0
 32 27  1  0
  1 34  1  0
  1 35  1  0
  1 36  1  0
  2 37  1  0
  3 38  1  0
  4 39  1  0
  5 40  1  0
  5 41  1  0
  5 42  1  0
  8 43  1  0
 12 44  1  0
 13 45  1  6
 14 46  1  0
 14 47  1  0
 14 48  1  0
 16 49  1  0
 24 50  1  0
 25 51  1  0
 29 52  1  0
 33 53  1  0
M  END
$$$$
