
     RDKit          3D

 62 67  0  0  0  0  0  0  0  0999 V2000
   10.3538   -1.4239    0.9142 C   0  0  0  0  0  0  0  0  0  0  0  0
    9.4401   -1.8286   -0.1004 O   0  0  0  0  0  0  0  0  0  0  0  0
    8.2055   -1.2156   -0.1593 C   0  0  0  0  0  0  0  0  0  0  0  0
    7.8288   -0.2285    0.7282 C   0  0  0  0  0  0  0  0  0  0  0  0
    6.5831    0.3359    0.6076 C   0  0  0  0  0  0  0  0  0  0  0  0
    5.6945   -0.0466   -0.3666 C   0  0  0  0  0  0  0  0  0  0  0  0
    4.3742    0.5799   -0.4622 C   0  0  0  0  0  0  0  0  0  0  0  0
    4.0582    1.4665    0.3481 O   0  0  0  0  0  0  0  0  0  0  0  0
    3.5032    0.1418   -1.4886 N   0  0  0  0  0  0  0  0  0  0  0  0
    2.2158    0.7352   -1.6016 C   0  0  0  0  0  0  0  0  0  0  0  0
    2.0562    1.8417   -2.3864 C   0  0  0  0  0  0  0  0  0  0  0  0
    0.8023    2.4185   -2.4959 C   0  0  0  0  0  0  0  0  0  0  0  0
   -0.2751    1.8660   -1.8078 C   0  0  0  0  0  0  0  0  0  0  0  0
   -0.1233    0.7592   -1.0201 C   0  0  0  0  0  0  0  0  0  0  0  0
    1.1339    0.2054   -0.9290 C   0  0  0  0  0  0  0  0  0  0  0  0
   -1.2342    0.1314   -0.2507 C   0  0  2  0  0  0  0  0  0  0  0  0
   -0.8778    0.0750    1.2087 C   0  0  0  0  0  0  0  0  0  0  0  0
   -1.1961   -1.1703    1.9387 C   0  0  0  0  0  0  0  0  0  0  0  0
   -0.7371   -2.2862    1.1934 O   0  0  0  0  0  0  0  0  0  0  0  0
   -1.2267   -2.2945   -0.1372 C   0  0  0  0  0  0  0  0  0  0  0  0
   -1.4828   -3.5261   -0.7891 N   0  0  0  0  0  0  0  0  0  0  0  0
   -1.4376   -1.2049   -0.7506 N   0  0  0  0  0  0  0  0  0  0  0  0
   -2.5234    0.8489   -0.4788 C   0  0  0  0  0  0  0  0  0  0  0  0
   -3.6910    0.4345    0.1210 C   0  0  0  0  0  0  0  0  0  0  0  0
   -4.8755    1.1156   -0.0912 C   0  0  0  0  0  0  0  0  0  0  0  0
   -6.0942    0.6432    0.5646 C   0  0  0  0  0  0  0  0  0  0  0  0
   -7.2478    1.2673    0.3878 C   0  0  0  0  0  0  0  0  0  0  0  0
   -8.5122    0.8418    1.0201 C   0  0  0  0  0  0  0  0  0  0  0  0
   -8.1586    0.1633    2.2045 O   0  0  0  0  0  0  0  0  0  0  0  0
   -7.4686   -0.9747    1.8019 C   0  0  0  0  0  0  0  0  0  0  0  0
   -6.0585   -0.5540    1.4470 C   0  0  0  0  0  0  0  0  0  0  0  0
   -4.9221    2.1933   -0.8829 N   0  0  0  0  0  0  0  0  0  0  0  0
   -3.7852    2.6140   -1.4804 C   0  0  0  0  0  0  0  0  0  0  0  0
   -3.8662    3.7047   -2.2733 F   0  0  0  0  0  0  0  0  0  0  0  0
   -2.5842    1.9513   -1.2863 C   0  0  0  0  0  0  0  0  0  0  0  0
   -1.4892    2.4750   -1.9541 O   0  0  0  0  0  0  0  0  0  0  0  0
    6.0878   -1.0094   -1.2164 N   0  0  0  0  0  0  0  0  0  0  0  0
    7.2970   -1.5939   -1.1409 C   0  0  0  0  0  0  0  0  0  0  0  0
   10.5273   -0.3366    0.7761 H   0  0  0  0  0  0  0  0  0  0  0  0
    9.9176   -1.6318    1.8967 H   0  0  0  0  0  0  0  0  0  0  0  0
   11.2930   -1.9905    0.7598 H   0  0  0  0  0  0  0  0  0  0  0  0
    8.5310    0.0742    1.4985 H   0  0  0  0  0  0  0  0  0  0  0  0
    6.2845    1.1078    1.2991 H   0  0  0  0  0  0  0  0  0  0  0  0
    3.7758   -0.5975   -2.1589 H   0  0  0  0  0  0  0  0  0  0  0  0
    2.8962    2.2653   -2.9176 H   0  0  0  0  0  0  0  0  0  0  0  0
    0.6352    3.2887   -3.1026 H   0  0  0  0  0  0  0  0  0  0  0  0
    1.3055   -0.6571   -0.3305 H   0  0  0  0  0  0  0  0  0  0  0  0
   -1.2755    0.9737    1.7576 H   0  0  0  0  0  0  0  0  0  0  0  0
    0.2626    0.1201    1.2328 H   0  0  0  0  0  0  0  0  0  0  0  0
   -2.2055   -1.2954    2.3263 H   0  0  0  0  0  0  0  0  0  0  0  0
   -0.5375   -1.1696    2.8684 H   0  0  0  0  0  0  0  0  0  0  0  0
   -0.7033   -4.2085   -0.9794 H   0  0  0  0  0  0  0  0  0  0  0  0
   -2.4527   -3.7720   -1.0896 H   0  0  0  0  0  0  0  0  0  0  0  0
   -3.7318   -0.4380    0.7746 H   0  0  0  0  0  0  0  0  0  0  0  0
   -7.2575    2.1487   -0.2661 H   0  0  0  0  0  0  0  0  0  0  0  0
   -9.1369    0.2090    0.3699 H   0  0  0  0  0  0  0  0  0  0  0  0
   -9.0631    1.7513    1.3370 H   0  0  0  0  0  0  0  0  0  0  0  0
   -7.4375   -1.6984    2.6501 H   0  0  0  0  0  0  0  0  0  0  0  0
   -7.9454   -1.4568    0.9239 H   0  0  0  0  0  0  0  0  0  0  0  0
   -5.5101   -0.3854    2.3761 H   0  0  0  0  0  0  0  0  0  0  0  0
   -5.5290   -1.3919    0.9057 H   0  0  0  0  0  0  0  0  0  0  0  0
    7.5900   -2.3731   -1.8440 H   0  0  0  0  0  0  0  0  0  0  0  0
  1  2  1  0
  2  3  1  0
  3  4  2  0
  4  5  1  0
  5  6  2  0
  6  7  1  0
  7  8  2  0
  7  9  1  0
  9 10  1  0
 10 11  2  0
 11 12  1  0
 12 13  2  0
 13 14  1  0
 14 15  2  0
 14 16  1  0
 16 17  1  1
 17 18  1  0
 18 19  1  0
 19 20  1  0
 20 21  1  0
 20 22  2  0
 16 23  1  0
 23 24  2  0
 24 25  1  0
 25 26  1  0
 26 27  2  0
 27 28  1  0
 28 29  1  0
 29 30  1  0
 30 31  1  0
 25 32  2  0
 32 33  1  0
 33 34  1  0
 33 35  2  0
 35 36  1  0
  6 37  1  0
 37 38  2  0
 38  3  1  0
 15 10  1  0
 22 16  1  0
 35 23  1  0
 36 13  1  0
 31 26  1  0
  1 39  1  0
  1 40  1  0
  1 41  1  0
  4 42  1  0
  5 43  1  0
  9 44  1  0
 11 45  1  0
 12 46  1  0
 15 47  1  0
 17 48  1  0
 17 49  1  0
 18 50  1  0
 18 51  1  0
 21 52  1  0
 21 53  1  0
 24 54  1  0
 27 55  1  0
 28 56  1  0
 28 57  1  0
 30 58  1  0
 30 59  1  0
 31 60  1  0
 31 61  1  0
 38 62  1  0
M  END
$$$$
