@<TRIPOS>MOLECULE
*****
 62 67 0 0 0
SMALL
GASTEIGER

@<TRIPOS>ATOM
      1 C          10.3538   -1.4239    0.9142 C.3     1  UNL1        0.0789
      2 O           9.4401   -1.8286   -0.1004 O.3     1  UNL1       -0.4936
      3 C           8.2055   -1.2156   -0.1593 C.ar    1  UNL1        0.1381
      4 C           7.8288   -0.2285    0.7282 C.ar    1  UNL1       -0.0163
      5 C           6.5831    0.3359    0.6076 C.ar    1  UNL1       -0.0277
      6 C           5.6945   -0.0466   -0.3666 C.ar    1  UNL1        0.1259
      7 C           4.3742    0.5799   -0.4622 C.2     1  UNL1        0.2666
      8 O           4.0582    1.4665    0.3481 O.2     1  UNL1       -0.2682
      9 N           3.5032    0.1418   -1.4886 N.am    1  UNL1       -0.2802
     10 C           2.2158    0.7352   -1.6016 C.ar    1  UNL1        0.0343
     11 C           2.0562    1.8417   -2.3864 C.ar    1  UNL1       -0.0370
     12 C           0.8023    2.4185   -2.4959 C.ar    1  UNL1       -0.0172
     13 C          -0.2751    1.8660   -1.8078 C.ar    1  UNL1        0.1346
     14 C          -0.1233    0.7592   -1.0201 C.ar    1  UNL1        0.0287
     15 C           1.1339    0.2054   -0.9290 C.ar    1  UNL1       -0.0312
     16 C          -1.2342    0.1314   -0.2507 C.3     1  UNL1        0.1265
     17 C          -0.8778    0.0750    1.2087 C.3     1  UNL1        0.0155
     18 C          -1.1961   -1.1703    1.9387 C.3     1  UNL1        0.0953
     19 O          -0.7371   -2.2862    1.1934 O.2     1  UNL1       -0.4658
     20 C          -1.2267   -2.2945   -0.1372 C.2     1  UNL1        0.2763
     21 N          -1.4828   -3.5261   -0.7891 N.pl3   1  UNL1       -0.3134
     22 N          -1.4376   -1.2049   -0.7506 N.2     1  UNL1       -0.2205
     23 C          -2.5234    0.8489   -0.4788 C.ar    1  UNL1        0.0334
     24 C          -3.6910    0.4345    0.1210 C.ar    1  UNL1       -0.0265
     25 C          -4.8755    1.1156   -0.0912 C.ar    1  UNL1        0.0705
     26 C          -6.0942    0.6432    0.5646 C.2     1  UNL1       -0.0215
     27 C          -7.2478    1.2673    0.3878 C.2     1  UNL1       -0.0534
     28 C          -8.5122    0.8418    1.0201 C.3     1  UNL1        0.0665
     29 O          -8.1586    0.1633    2.2045 O.3     1  UNL1       -0.3754
     30 C          -7.4686   -0.9747    1.8019 C.3     1  UNL1        0.0521
     31 C          -6.0585   -0.5540    1.4470 C.3     1  UNL1       -0.0024
     32 N          -4.9221    2.1933   -0.8829 N.ar    1  UNL1       -0.2164
     33 C          -3.7852    2.6140   -1.4804 C.ar    1  UNL1        0.2566
     34 F          -3.8662    3.7047   -2.2733 F       1  UNL1       -0.1799
     35 C          -2.5842    1.9513   -1.2863 C.ar    1  UNL1        0.1883
     36 O          -1.4892    2.4750   -1.9541 O.3     1  UNL1       -0.4508
     37 N           6.0878   -1.0094   -1.2164 N.ar    1  UNL1       -0.2467
     38 C           7.2970   -1.5939   -1.1409 C.ar    1  UNL1        0.0700
     39 H          10.5273   -0.3366    0.7761 H       1  UNL1        0.0660
     40 H           9.9176   -1.6318    1.8967 H       1  UNL1        0.0660
     41 H          11.2930   -1.9905    0.7598 H       1  UNL1        0.0660
     42 H           8.5310    0.0742    1.4985 H       1  UNL1        0.0655
     43 H           6.2845    1.1078    1.2991 H       1  UNL1        0.0641
     44 H           3.7758   -0.5975   -2.1589 H       1  UNL1        0.1552
     45 H           2.8962    2.2653   -2.9176 H       1  UNL1        0.0637
     46 H           0.6352    3.2887   -3.1026 H       1  UNL1        0.0655
     47 H           1.3055   -0.6571   -0.3305 H       1  UNL1        0.0641
     48 H          -1.2755    0.9737    1.7576 H       1  UNL1        0.0328
     49 H           0.2626    0.1201    1.2328 H       1  UNL1        0.0328
     50 H          -2.2055   -1.2954    2.3263 H       1  UNL1        0.0698
     51 H          -0.5375   -1.1696    2.8684 H       1  UNL1        0.0698
     52 H          -0.7033   -4.2085   -0.9794 H       1  UNL1        0.1466
     53 H          -2.4527   -3.7720   -1.0896 H       1  UNL1        0.1466
     54 H          -3.7318   -0.4380    0.7746 H       1  UNL1        0.0644
     55 H          -7.2575    2.1487   -0.2661 H       1  UNL1        0.0598
     56 H          -9.1369    0.2090    0.3699 H       1  UNL1        0.0604
     57 H          -9.0631    1.7513    1.3370 H       1  UNL1        0.0604
     58 H          -7.4375   -1.6984    2.6501 H       1  UNL1        0.0563
     59 H          -7.9454   -1.4568    0.9239 H       1  UNL1        0.0563
     60 H          -5.5101   -0.3854    2.3761 H       1  UNL1        0.0336
     61 H          -5.5290   -1.3919    0.9057 H       1  UNL1        0.0336
     62 H           7.5900   -2.3731   -1.8440 H       1  UNL1        0.0867
@<TRIPOS>BOND
     1     1     2    1
     2     2     3    1
     3     3     4   ar
     4     4     5   ar
     5     5     6   ar
     6     6     7    1
     7     7     8    2
     8     7     9   am
     9     9    10    1
    10    10    11   ar
    11    11    12   ar
    12    12    13   ar
    13    13    14   ar
    14    14    15   ar
    15    14    16    1
    16    16    17    1
    17    17    18    1
    18    18    19    1
    19    19    20    1
    20    20    21    1
    21    20    22    2
    22    16    23    1
    23    23    24   ar
    24    24    25   ar
    25    25    26    1
    26    26    27    2
    27    27    28    1
    28    28    29    1
    29    29    30    1
    30    30    31    1
    31    25    32   ar
    32    32    33   ar
    33    33    34    1
    34    33    35   ar
    35    35    36    1
    36     6    37   ar
    37    37    38   ar
    38    38     3   ar
    39    15    10   ar
    40    22    16    1
    41    35    23   ar
    42    36    13    1
    43    31    26    1
    44     1    39    1
    45     1    40    1
    46     1    41    1
    47     4    42    1
    48     5    43    1
    49     9    44    1
    50    11    45    1
    51    12    46    1
    52    15    47    1
    53    17    48    1
    54    17    49    1
    55    18    50    1
    56    18    51    1
    57    21    52    1
    58    21    53    1
    59    24    54    1
    60    27    55    1
    61    28    56    1
    62    28    57    1
    63    30    58    1
    64    30    59    1
    65    31    60    1
    66    31    61    1
    67    38    62    1
