
     RDKit          3D

 51 53  0  0  0  0  0  0  0  0999 V2000
    0.0430   -3.3915    3.2610 C   0  0  0  0  0  0  0  0  0  0  0  0
   -0.2318   -3.4497    1.8092 C   0  0  0  0  0  0  0  0  0  0  0  0
   -0.8144   -2.1648    1.3164 N   0  0  0  0  0  0  0  0  0  0  0  0
   -2.0688   -1.8631    1.4072 C   0  0  0  0  0  0  0  0  0  0  0  0
   -3.2383   -2.3588    2.1287 C   0  0  0  0  0  0  0  0  0  0  0  0
   -4.3614   -1.4417    2.2880 N   0  0  0  0  0  0  0  0  0  0  0  0
   -5.1369   -2.1250    3.0952 O   0  0  0  0  0  0  0  0  0  0  0  0
   -4.7752   -3.2223    3.4601 N   0  0  0  0  0  0  0  0  0  0  0  0
   -3.5191   -3.3929    2.8208 C   0  0  0  0  0  0  0  0  0  0  0  0
   -2.8967   -4.6435    2.9201 N   0  0  0  0  0  0  0  0  0  0  0  0
   -2.1341   -0.6535    0.6333 N   0  0  0  0  0  0  0  0  0  0  0  0
   -0.9267   -0.3580    0.1675 C   0  0  0  0  0  0  0  0  0  0  0  0
   -0.3598    0.6012   -0.6201 C   0  0  0  0  0  0  0  0  0  0  0  0
   -1.2986    1.6889   -1.1195 C   0  0  0  0  0  0  0  0  0  0  0  0
   -1.9812    2.4812   -1.4628 C   0  0  0  0  0  0  0  0  0  0  0  0
   -2.9306    3.5490   -1.9454 C   0  0  0  0  0  0  0  0  0  0  0  0
   -3.7882    3.0077   -3.0568 C   0  0  0  0  0  0  0  0  0  0  0  0
   -2.0710    4.7166   -2.4156 C   0  0  0  0  0  0  0  0  0  0  0  0
   -3.7161    3.9980   -0.8984 O   0  0  0  0  0  0  0  0  0  0  0  0
    0.8869    0.6907   -0.9787 N   0  0  0  0  0  0  0  0  0  0  0  0
    1.7958   -0.2867   -0.5131 C   0  0  0  0  0  0  0  0  0  0  0  0
    3.0894   -0.1805   -0.8996 O   0  0  0  0  0  0  0  0  0  0  0  0
    3.6321    0.7737   -1.7571 C   0  0  0  0  0  0  0  0  0  0  0  0
    5.1125    0.6084   -1.9728 C   0  0  0  0  0  0  0  0  0  0  0  0
    5.9371    0.8635   -0.7581 C   0  0  0  0  0  0  0  0  0  0  0  0
    5.7112    2.2242   -0.2934 N   0  0  0  0  0  0  0  0  0  0  0  0
    1.2915   -1.2560    0.2750 C   0  0  0  0  0  0  0  0  0  0  0  0
   -0.0541   -1.3574    0.6406 C   0  0  0  0  0  0  0  0  0  0  0  0
   -0.4875   -2.5260    3.7175 H   0  0  0  0  0  0  0  0  0  0  0  0
    1.1307   -3.3189    3.4436 H   0  0  0  0  0  0  0  0  0  0  0  0
   -0.3311   -4.2975    3.8352 H   0  0  0  0  0  0  0  0  0  0  0  0
   -0.7430   -4.3346    1.4774 H   0  0  0  0  0  0  0  0  0  0  0  0
    0.7704   -3.5522    1.2273 H   0  0  0  0  0  0  0  0  0  0  0  0
   -2.6650   -5.1274    2.0153 H   0  0  0  0  0  0  0  0  0  0  0  0
   -2.6810   -5.0947    3.8056 H   0  0  0  0  0  0  0  0  0  0  0  0
   -3.2312    3.1311   -4.0066 H   0  0  0  0  0  0  0  0  0  0  0  0
   -4.7766    3.5418   -3.0839 H   0  0  0  0  0  0  0  0  0  0  0  0
   -3.9896    1.9121   -2.9226 H   0  0  0  0  0  0  0  0  0  0  0  0
   -2.4120    5.6169   -1.9120 H   0  0  0  0  0  0  0  0  0  0  0  0
   -1.0215    4.5470   -1.9608 H   0  0  0  0  0  0  0  0  0  0  0  0
   -1.9801    4.7664   -3.4996 H   0  0  0  0  0  0  0  0  0  0  0  0
   -3.1771    4.1197   -0.0880 H   0  0  0  0  0  0  0  0  0  0  0  0
    3.1429    0.8330   -2.7473 H   0  0  0  0  0  0  0  0  0  0  0  0
    3.4772    1.7776   -1.2257 H   0  0  0  0  0  0  0  0  0  0  0  0
    5.3268   -0.4374   -2.3624 H   0  0  0  0  0  0  0  0  0  0  0  0
    5.4428    1.2895   -2.7803 H   0  0  0  0  0  0  0  0  0  0  0  0
    7.0232    0.8644   -1.1221 H   0  0  0  0  0  0  0  0  0  0  0  0
    5.8405    0.1319    0.0612 H   0  0  0  0  0  0  0  0  0  0  0  0
    5.9399    2.2629    0.7312 H   0  0  0  0  0  0  0  0  0  0  0  0
    6.2709    2.8537   -0.8663 H   0  0  0  0  0  0  0  0  0  0  0  0
    1.9340   -2.0172    0.7315 H   0  0  0  0  0  0  0  0  0  0  0  0
  1  2  1  0
  2  3  1  0
  3  4  1  0
  4  5  1  0
  5  6  2  0
  6  7  1  0
  7  8  1  0
  8  9  2  0
  9 10  1  0
  4 11  2  0
 11 12  1  0
 12 13  2  0
 13 14  1  0
 14 15  3  0
 15 16  1  0
 16 17  1  0
 16 18  1  0
 16 19  1  0
 13 20  1  0
 20 21  2  0
 21 22  1  0
 22 23  1  0
 23 24  1  0
 24 25  1  0
 25 26  1  0
 21 27  1  0
 27 28  2  0
 28  3  1  0
  9  5  1  0
 28 12  1  0
  1 29  1  0
  1 30  1  0
  1 31  1  0
  2 32  1  0
  2 33  1  0
 10 34  1  0
 10 35  1  0
 17 36  1  0
 17 37  1  0
 17 38  1  0
 18 39  1  0
 18 40  1  0
 18 41  1  0
 19 42  1  0
 23 43  1  0
 23 44  1  0
 24 45  1  0
 24 46  1  0
 25 47  1  0
 25 48  1  0
 26 49  1  0
 26 50  1  0
 27 51  1  0
M  END
$$$$
