@<TRIPOS>MOLECULE
*****
 51 53 0 0 0
SMALL
GASTEIGER

@<TRIPOS>ATOM
      1 C           0.0430   -3.3915    3.2610 C.3     1  UNL1       -0.0470
      2 C          -0.2318   -3.4497    1.8092 C.3     1  UNL1        0.0225
      3 N          -0.8144   -2.1648    1.3164 N.ar    1  UNL1       -0.3223
      4 C          -2.0688   -1.8631    1.4072 C.ar    1  UNL1        0.1672
      5 C          -3.2383   -2.3588    2.1287 C.ar    1  UNL1        0.1904
      6 N          -4.3614   -1.4417    2.2880 N.ar    1  UNL1       -0.0438
      7 O          -5.1369   -2.1250    3.0952 O.2     1  UNL1       -0.2402
      8 N          -4.7752   -3.2223    3.4601 N.ar    1  UNL1       -0.0335
      9 C          -3.5191   -3.3929    2.8208 C.ar    1  UNL1        0.1909
     10 N          -2.8967   -4.6435    2.9201 N.pl3   1  UNL1       -0.3386
     11 N          -2.1341   -0.6535    0.6333 N.ar    1  UNL1       -0.2229
     12 C          -0.9267   -0.3580    0.1675 C.ar    1  UNL1        0.1237
     13 C          -0.3598    0.6012   -0.6201 C.ar    1  UNL1        0.1447
     14 C          -1.2986    1.6889   -1.1195 C.1     1  UNL1       -0.0413
     15 C          -1.9812    2.4812   -1.4628 C.1     1  UNL1       -0.0614
     16 C          -2.9306    3.5490   -1.9454 C.3     1  UNL1        0.1212
     17 C          -3.7882    3.0077   -3.0568 C.3     1  UNL1       -0.0249
     18 C          -2.0710    4.7166   -2.4156 C.3     1  UNL1       -0.0249
     19 O          -3.7161    3.9980   -0.8984 O.3     1  UNL1       -0.3771
     20 N           0.8869    0.6907   -0.9787 N.ar    1  UNL1       -0.2022
     21 C           1.7958   -0.2867   -0.5131 C.ar    1  UNL1        0.2179
     22 O           3.0894   -0.1805   -0.8996 O.3     1  UNL1       -0.4762
     23 C           3.6321    0.7737   -1.7571 C.3     1  UNL1        0.0924
     24 C           5.1125    0.6084   -1.9728 C.3     1  UNL1       -0.0062
     25 C           5.9371    0.8635   -0.7581 C.3     1  UNL1       -0.0038
     26 N           5.7112    2.2242   -0.2934 N.3     1  UNL1       -0.3299
     27 C           1.2915   -1.2560    0.2750 C.ar    1  UNL1        0.0257
     28 C          -0.0541   -1.3574    0.6406 C.ar    1  UNL1        0.0769
     29 H          -0.4875   -2.5260    3.7175 H       1  UNL1        0.0247
     30 H           1.1307   -3.3189    3.4436 H       1  UNL1        0.0247
     31 H          -0.3311   -4.2975    3.8352 H       1  UNL1        0.0247
     32 H          -0.7430   -4.3346    1.4774 H       1  UNL1        0.0490
     33 H           0.7704   -3.5522    1.2273 H       1  UNL1        0.0490
     34 H          -2.6650   -5.1274    2.0153 H       1  UNL1        0.1439
     35 H          -2.6810   -5.0947    3.8056 H       1  UNL1        0.1439
     36 H          -3.2312    3.1311   -4.0066 H       1  UNL1        0.0267
     37 H          -4.7766    3.5418   -3.0839 H       1  UNL1        0.0267
     38 H          -3.9896    1.9121   -2.9226 H       1  UNL1        0.0267
     39 H          -2.4120    5.6169   -1.9120 H       1  UNL1        0.0267
     40 H          -1.0215    4.5470   -1.9608 H       1  UNL1        0.0267
     41 H          -1.9801    4.7664   -3.4996 H       1  UNL1        0.0267
     42 H          -3.1771    4.1197   -0.0880 H       1  UNL1        0.2114
     43 H           3.1429    0.8330   -2.7473 H       1  UNL1        0.0697
     44 H           3.4772    1.7776   -1.2257 H       1  UNL1        0.0697
     45 H           5.3268   -0.4374   -2.3624 H       1  UNL1        0.0310
     46 H           5.4428    1.2895   -2.7803 H       1  UNL1        0.0310
     47 H           7.0232    0.8644   -1.1221 H       1  UNL1        0.0423
     48 H           5.8405    0.1319    0.0612 H       1  UNL1        0.0423
     49 H           5.9399    2.2629    0.7312 H       1  UNL1        0.1182
     50 H           6.2709    2.8537   -0.8663 H       1  UNL1        0.1182
     51 H           1.9340   -2.0172    0.7315 H       1  UNL1        0.0692
@<TRIPOS>BOND
     1     1     2    1
     2     2     3    1
     3     3     4   ar
     4     4     5    1
     5     5     6   ar
     6     6     7   ar
     7     7     8   ar
     8     8     9   ar
     9     9    10    1
    10     4    11   ar
    11    11    12   ar
    12    12    13   ar
    13    13    14    1
    14    14    15    3
    15    15    16    1
    16    16    17    1
    17    16    18    1
    18    16    19    1
    19    13    20   ar
    20    20    21   ar
    21    21    22    1
    22    22    23    1
    23    23    24    1
    24    24    25    1
    25    25    26    1
    26    21    27   ar
    27    27    28   ar
    28    28     3   ar
    29     9     5   ar
    30    28    12   ar
    31     1    29    1
    32     1    30    1
    33     1    31    1
    34     2    32    1
    35     2    33    1
    36    10    34    1
    37    10    35    1
    38    17    36    1
    39    17    37    1
    40    17    38    1
    41    18    39    1
    42    18    40    1
    43    18    41    1
    44    19    42    1
    45    23    43    1
    46    23    44    1
    47    24    45    1
    48    24    46    1
    49    25    47    1
    50    25    48    1
    51    26    49    1
    52    26    50    1
    53    27    51    1
