@<TRIPOS>MOLECULE
*****
 34 36 0 0 0
SMALL
GASTEIGER

@<TRIPOS>ATOM
      1 C          -2.7869   -1.6679    1.4408 C.3     1  UNL1       -0.0391
      2 C          -3.3178   -0.7602    0.3981 C.ar    1  UNL1       -0.0413
      3 C          -2.4878    0.0435   -0.3313 C.ar    1  UNL1        0.0012
      4 C          -3.1363    0.8391   -1.2477 C.ar    1  UNL1       -0.0524
      5 C          -4.4940    0.8475   -1.4368 C.ar    1  UNL1       -0.0611
      6 C          -5.3071    0.0304   -0.6919 C.ar    1  UNL1       -0.0615
      7 C          -4.6864   -0.7713    0.2276 C.ar    1  UNL1       -0.0582
      8 C          -1.0478    0.0909   -0.2249 C.ar    1  UNL1        0.0477
      9 C          -0.0718   -0.5808    0.4557 C.ar    1  UNL1       -0.0286
     10 C           1.1916   -0.1274    0.1699 C.ar    1  UNL1        0.0011
     11 C           0.9953    0.8852   -0.7416 C.ar    1  UNL1        0.0470
     12 N          -0.3177    0.9686   -0.9339 N.ar    1  UNL1       -0.3541
     13 C           2.1317    1.5179   -1.1970 C.ar    1  UNL1       -0.0370
     14 C           3.3868    1.1464   -0.7554 C.ar    1  UNL1       -0.0449
     15 C           3.5713    0.1342    0.1546 C.ar    1  UNL1        0.0654
     16 C           2.4422   -0.4999    0.6120 C.ar    1  UNL1       -0.0377
     17 C           4.8959   -0.2563    0.6193 C.2     1  UNL1        0.3081
     18 N           5.9415    0.7194    0.6838 N.pl3   1  UNL1       -0.2466
     19 N           5.2383   -1.4422    0.9949 N.2     1  UNL1       -0.0994
     20 H          -2.2248   -2.5253    1.0481 H       1  UNL1        0.0278
     21 H          -3.6499   -2.0553    2.0817 H       1  UNL1        0.0278
     22 H          -2.2344   -1.0422    2.1716 H       1  UNL1        0.0278
     23 H          -2.6138    1.5293   -1.8992 H       1  UNL1        0.0624
     24 H          -4.9688    1.4828   -2.1633 H       1  UNL1        0.0618
     25 H          -6.3761   -0.0014   -0.8012 H       1  UNL1        0.0618
     26 H          -5.3174   -1.4192    0.8196 H       1  UNL1        0.0620
     27 H          -0.2485   -1.3797    1.1359 H       1  UNL1        0.0645
     28 H          -0.6331    1.7166   -1.6220 H       1  UNL1        0.1659
     29 H           2.0114    2.3160   -1.9121 H       1  UNL1        0.0638
     30 H           4.2506    1.6824   -1.1502 H       1  UNL1        0.0627
     31 H           2.5301   -1.2959    1.3225 H       1  UNL1        0.0632
     32 H           5.9226    1.6708    1.1470 H       1  UNL1        0.2884
     33 H           6.8444    0.4519    0.2076 H       1  UNL1        0.2884
     34 H           4.5665   -2.2478    0.9955 H       1  UNL1        0.3633
@<TRIPOS>BOND
     1     1     2    1
     2     2     3   ar
     3     3     4   ar
     4     4     5   ar
     5     5     6   ar
     6     6     7   ar
     7     3     8    1
     8     8     9   ar
     9     9    10   ar
    10    10    11   ar
    11    11    12   ar
    12    11    13   ar
    13    13    14   ar
    14    14    15   ar
    15    15    16   ar
    16    15    17    1
    17    17    18    1
    18    17    19    2
    19     7     2   ar
    20    12     8   ar
    21    16    10   ar
    22     1    20    1
    23     1    21    1
    24     1    22    1
    25     4    23    1
    26     5    24    1
    27     6    25    1
    28     7    26    1
    29     9    27    1
    30    12    28    1
    31    13    29    1
    32    14    30    1
    33    16    31    1
    34    18    32    1
    35    18    33    1
    36    19    34    1
