@<TRIPOS>MOLECULE
*****
 46 50 0 0 0
SMALL
GASTEIGER

@<TRIPOS>ATOM
      1 C          -3.5730   -1.9925    1.1367 C.3     1  UNL1       -0.0439
      2 C          -2.3141   -1.7417    0.3110 C.3     1  UNL1        0.0359
      3 C          -2.5856   -1.9758   -1.1447 C.3     1  UNL1       -0.0204
      4 C          -3.0430   -3.4351   -1.3978 C.3     1  UNL1       -0.0480
      5 C          -3.8753   -2.2336   -1.7623 C.3     1  UNL1       -0.0480
      6 N          -1.8981   -0.3815    0.5718 N.ar    1  UNL1       -0.3265
      7 C          -2.7571    0.6343    0.8943 C.ar    1  UNL1        0.0973
      8 N          -2.0951    1.7691    1.1024 N.ar    1  UNL1       -0.2351
      9 C          -0.7828    1.5393    0.9234 C.ar    1  UNL1        0.0967
     10 C           0.3080    2.5063    1.0322 C.ar    1  UNL1        0.0026
     11 C           1.3696    2.4275    1.8946 C.ar    1  UNL1       -0.0498
     12 C           2.3513    3.4045    1.9407 C.ar    1  UNL1       -0.0258
     13 C           2.2716    4.4791    1.1112 C.ar    1  UNL1        0.1234
     14 F           3.2671    5.4281    1.2016 F       1  UNL1       -0.2055
     15 C           1.2284    4.5991    0.2323 C.ar    1  UNL1       -0.0258
     16 C           0.2404    3.6035    0.1949 C.ar    1  UNL1       -0.0498
     17 C          -0.6796    0.1792    0.5902 C.ar    1  UNL1        0.0781
     18 C           0.5911   -0.4570    0.3122 C.ar    1  UNL1        0.0173
     19 C           0.9599   -1.6462    0.8794 C.ar    1  UNL1       -0.0477
     20 C           2.1837   -2.2144    0.5514 C.ar    1  UNL1       -0.0181
     21 C           3.0196   -1.5612   -0.3458 C.ar    1  UNL1        0.1385
     22 N           4.2401   -1.9117   -0.8032 N.ar    1  UNL1       -0.2348
     23 C           4.6426   -0.9513   -1.6430 C.ar    1  UNL1        0.0643
     24 C           3.6944   -0.0053   -1.7187 C.ar    1  UNL1        0.1438
     25 C           3.7939    1.2930   -2.4030 C.1     1  UNL1        0.1192
     26 N           3.8845    2.3365   -2.9334 N.1     1  UNL1       -0.1893
     27 N           2.6571   -0.3747   -0.9078 N.ar    1  UNL1       -0.2906
     28 C           1.4672    0.1586   -0.5816 C.ar    1  UNL1        0.0216
     29 H          -3.5851   -1.3188    2.0294 H       1  UNL1        0.0250
     30 H          -4.4998   -1.9807    0.5798 H       1  UNL1        0.0250
     31 H          -3.4551   -3.0116    1.5953 H       1  UNL1        0.0250
     32 H          -1.5868   -2.4892    0.7061 H       1  UNL1        0.0528
     33 H          -1.7534   -1.6380   -1.8364 H       1  UNL1        0.0321
     34 H          -2.4873   -4.0075   -2.1448 H       1  UNL1        0.0269
     35 H          -3.4148   -4.0175   -0.5247 H       1  UNL1        0.0269
     36 H          -3.9300   -2.1147   -2.8942 H       1  UNL1        0.0269
     37 H          -4.8669   -2.1748   -1.3328 H       1  UNL1        0.0269
     38 H          -3.8397    0.4700    0.9570 H       1  UNL1        0.1029
     39 H           1.4179    1.5700    2.5450 H       1  UNL1        0.0625
     40 H           3.1666    3.3042    2.6287 H       1  UNL1        0.0646
     41 H           1.1869    5.4530   -0.3990 H       1  UNL1        0.0646
     42 H          -0.5949    3.7004   -0.5113 H       1  UNL1        0.0625
     43 H           0.3621   -2.1938    1.6175 H       1  UNL1        0.0626
     44 H           2.4555   -3.1548    1.0035 H       1  UNL1        0.0654
     45 H           5.5977   -0.9769   -2.1717 H       1  UNL1        0.0859
     46 H           1.2601    1.1045   -1.0863 H       1  UNL1        0.0820
@<TRIPOS>BOND
     1     1     2    1
     2     2     3    1
     3     3     4    1
     4     4     5    1
     5     2     6    1
     6     6     7   ar
     7     7     8   ar
     8     8     9   ar
     9     9    10    1
    10    10    11   ar
    11    11    12   ar
    12    12    13   ar
    13    13    14    1
    14    13    15   ar
    15    15    16   ar
    16     9    17   ar
    17    17    18    1
    18    18    19   ar
    19    19    20   ar
    20    20    21   ar
    21    21    22   ar
    22    22    23   ar
    23    23    24   ar
    24    24    25    1
    25    25    26    3
    26    24    27   ar
    27    27    28   ar
    28     5     3    1
    29    17     6   ar
    30    28    18   ar
    31    16    10   ar
    32    27    21   ar
    33     1    29    1
    34     1    30    1
    35     1    31    1
    36     2    32    1
    37     3    33    1
    38     4    34    1
    39     4    35    1
    40     5    36    1
    41     5    37    1
    42     7    38    1
    43    11    39    1
    44    12    40    1
    45    15    41    1
    46    16    42    1
    47    19    43    1
    48    20    44    1
    49    23    45    1
    50    28    46    1
