
     RDKit          3D

 64 69  0  0  0  0  0  0  0  0999 V2000
   -7.5409    0.4990    2.1573 C   0  0  0  0  0  0  0  0  0  0  0  0
   -6.5667    0.6631    1.0258 C   0  0  0  0  0  0  0  0  0  0  0  0
   -6.6510    1.8235    0.2888 C   0  0  0  0  0  0  0  0  0  0  0  0
   -7.6187    2.8771    0.5489 C   0  0  0  0  0  0  0  0  0  0  0  0
   -7.6062    3.8961   -0.1864 O   0  0  0  0  0  0  0  0  0  0  0  0
   -8.5477    2.8120    1.5616 O   0  0  0  0  0  0  0  0  0  0  0  0
   -5.7415    1.9615   -0.7573 C   0  0  0  0  0  0  0  0  0  0  0  0
   -4.8225    0.9747   -1.0134 C   0  0  0  0  0  0  0  0  0  0  0  0
   -4.7366   -0.1845   -0.2787 C   0  0  0  0  0  0  0  0  0  0  0  0
   -5.6370   -0.3337    0.7655 C   0  0  0  0  0  0  0  0  0  0  0  0
   -5.4020   -1.6351    1.4441 C   0  0  0  0  0  0  0  0  0  0  0  0
   -3.9690   -1.9334    1.0720 C   0  0  0  0  0  0  0  0  0  0  0  0
   -3.8798   -1.3672   -0.3297 C   0  0  2  0  0  0  0  0  0  0  0  0
   -2.5101   -1.0998   -0.7161 N   0  0  0  0  0  0  0  0  0  0  0  0
   -1.8274   -1.8057   -1.7399 C   0  0  0  0  0  0  0  0  0  0  0  0
   -2.5030   -2.7173   -2.3199 O   0  0  0  0  0  0  0  0  0  0  0  0
   -0.4510   -1.5506   -2.1419 C   0  0  0  0  0  0  0  0  0  0  0  0
    0.3270   -0.5612   -1.5934 C   0  0  0  0  0  0  0  0  0  0  0  0
    1.6429   -0.3670   -2.0161 C   0  0  0  0  0  0  0  0  0  0  0  0
    2.4499    0.7086   -1.4082 C   0  0  0  0  0  0  0  0  0  0  0  0
    1.9360    1.4312   -0.5274 O   0  0  0  0  0  0  0  0  0  0  0  0
    3.7847    0.9313   -1.8047 N   0  0  0  0  0  0  0  0  0  0  0  0
    4.6566    1.9536   -1.2779 C   0  0  0  0  0  0  0  0  0  0  0  0
    5.2000    1.6656    0.0586 C   0  0  0  0  0  0  0  0  0  0  0  0
    4.6094    2.0950    1.2259 C   0  0  0  0  0  0  0  0  0  0  0  0
    5.1501    1.8030    2.4847 C   0  0  0  0  0  0  0  0  0  0  0  0
    6.3196    1.0567    2.5658 C   0  0  0  0  0  0  0  0  0  0  0  0
    6.9064    0.6296    1.4011 C   0  0  0  0  0  0  0  0  0  0  0  0
    6.3571    0.9280    0.1673 C   0  0  0  0  0  0  0  0  0  0  0  0
    8.0986   -0.1309    1.5309 N   0  0  0  0  0  0  0  0  0  0  0  0
    8.6163   -0.4078    2.8204 C   0  0  0  0  0  0  0  0  0  0  0  0
    9.4798   -1.3032    3.0045 O   0  0  0  0  0  0  0  0  0  0  0  0
    8.1618    0.3502    4.0240 C   0  0  0  0  0  0  0  0  0  0  0  0
    6.8097    0.7979    3.8386 O   0  0  0  0  0  0  0  0  0  0  0  0
    2.1628   -1.1557   -2.9723 N   0  0  0  0  0  0  0  0  0  0  0  0
    1.3939   -2.1219   -3.5036 C   0  0  0  0  0  0  0  0  0  0  0  0
    1.6850   -3.0505   -4.4825 C   0  0  0  0  0  0  0  0  0  0  0  0
    0.5397   -3.7977   -4.6425 C   0  0  0  0  0  0  0  0  0  0  0  0
   -0.4043   -3.3203   -3.7777 N   0  0  0  0  0  0  0  0  0  0  0  0
    0.1037   -2.3197   -3.0967 N   0  0  0  0  0  0  0  0  0  0  0  0
   -7.3753   -0.4751    2.6662 H   0  0  0  0  0  0  0  0  0  0  0  0
   -7.4068    1.2924    2.9073 H   0  0  0  0  0  0  0  0  0  0  0  0
   -8.5532    0.4858    1.7136 H   0  0  0  0  0  0  0  0  0  0  0  0
   -9.2338    3.5340    1.7579 H   0  0  0  0  0  0  0  0  0  0  0  0
   -5.7913    2.8671   -1.3496 H   0  0  0  0  0  0  0  0  0  0  0  0
   -4.1276    1.1219   -1.8426 H   0  0  0  0  0  0  0  0  0  0  0  0
   -6.0097   -2.4462    0.9504 H   0  0  0  0  0  0  0  0  0  0  0  0
   -5.5939   -1.6198    2.5159 H   0  0  0  0  0  0  0  0  0  0  0  0
   -3.3049   -1.3724    1.7666 H   0  0  0  0  0  0  0  0  0  0  0  0
   -3.7237   -2.9956    1.0819 H   0  0  0  0  0  0  0  0  0  0  0  0
   -4.2818   -2.1591   -0.9944 H   0  0  0  0  0  0  0  0  0  0  0  0
   -1.9726   -0.3453   -0.2236 H   0  0  0  0  0  0  0  0  0  0  0  0
   -0.0939    0.0688   -0.8268 H   0  0  0  0  0  0  0  0  0  0  0  0
    4.1466    0.2777   -2.5528 H   0  0  0  0  0  0  0  0  0  0  0  0
    4.1214    2.9453   -1.3002 H   0  0  0  0  0  0  0  0  0  0  0  0
    5.4802    2.0972   -2.0387 H   0  0  0  0  0  0  0  0  0  0  0  0
    3.6945    2.6822    1.1441 H   0  0  0  0  0  0  0  0  0  0  0  0
    4.6433    2.1676    3.3800 H   0  0  0  0  0  0  0  0  0  0  0  0
    6.8429    0.5748   -0.7557 H   0  0  0  0  0  0  0  0  0  0  0  0
    8.5934   -0.4854    0.6969 H   0  0  0  0  0  0  0  0  0  0  0  0
    8.1424   -0.3158    4.9019 H   0  0  0  0  0  0  0  0  0  0  0  0
    8.8336    1.1995    4.2528 H   0  0  0  0  0  0  0  0  0  0  0  0
    2.6127   -3.1694   -5.0135 H   0  0  0  0  0  0  0  0  0  0  0  0
    0.3821   -4.6249   -5.3250 H   0  0  0  0  0  0  0  0  0  0  0  0
  1  2  1  0
  2  3  2  0
  3  4  1  0
  4  5  2  0
  4  6  1  0
  3  7  1  0
  7  8  2  0
  8  9  1  0
  9 10  2  0
 10 11  1  0
 11 12  1  0
 12 13  1  0
 13 14  1  0
 14 15  1  0
 15 16  2  0
 15 17  1  0
 17 18  2  0
 18 19  1  0
 19 20  1  0
 20 21  2  0
 20 22  1  0
 22 23  1  0
 23 24  1  0
 24 25  2  0
 25 26  1  0
 26 27  2  0
 27 28  1  0
 28 29  2  0
 28 30  1  0
 30 31  1  0
 31 32  2  0
 31 33  1  0
 33 34  1  0
 19 35  2  0
 35 36  1  0
 36 37  2  0
 37 38  1  0
 38 39  2  0
 39 40  1  0
 10  2  1  0
 40 17  1  0
 13  9  1  0
 29 24  1  0
 40 36  1  0
 34 27  1  0
  1 41  1  0
  1 42  1  0
  1 43  1  0
  6 44  1  0
  7 45  1  0
  8 46  1  0
 11 47  1  0
 11 48  1  0
 12 49  1  0
 12 50  1  0
 13 51  1  6
 14 52  1  0
 18 53  1  0
 22 54  1  0
 23 55  1  0
 23 56  1  0
 25 57  1  0
 26 58  1  0
 29 59  1  0
 30 60  1  0
 33 61  1  0
 33 62  1  0
 37 63  1  0
 38 64  1  0
M  END
$$$$
