@<TRIPOS>MOLECULE
*****
 64 69 0 0 0
SMALL
GASTEIGER

@<TRIPOS>ATOM
      1 C          -7.5409    0.4990    2.1573 C.3     1  UNL1       -0.0387
      2 C          -6.5667    0.6631    1.0258 C.ar    1  UNL1       -0.0330
      3 C          -6.6510    1.8235    0.2888 C.ar    1  UNL1        0.0620
      4 C          -7.6187    2.8771    0.5489 C.2     1  UNL1        0.3371
      5 O          -7.6062    3.8961   -0.1864 O.2     1  UNL1       -0.2451
      6 O          -8.5477    2.8120    1.5616 O.3     1  UNL1       -0.4771
      7 C          -5.7415    1.9615   -0.7573 C.ar    1  UNL1       -0.0472
      8 C          -4.8225    0.9747   -1.0134 C.ar    1  UNL1       -0.0558
      9 C          -4.7366   -0.1845   -0.2787 C.ar    1  UNL1       -0.0237
     10 C          -5.6370   -0.3337    0.7655 C.ar    1  UNL1       -0.0387
     11 C          -5.4020   -1.6351    1.4441 C.3     1  UNL1       -0.0251
     12 C          -3.9690   -1.9334    1.0720 C.3     1  UNL1       -0.0263
     13 C          -3.8798   -1.3672   -0.3297 C.3     1  UNL1        0.0493
     14 N          -2.5101   -1.0998   -0.7161 N.am    1  UNL1       -0.3033
     15 C          -1.8274   -1.8057   -1.7399 C.2     1  UNL1        0.2630
     16 O          -2.5030   -2.7173   -2.3199 O.2     1  UNL1       -0.2685
     17 C          -0.4510   -1.5506   -2.1419 C.ar    1  UNL1        0.1313
     18 C           0.3270   -0.5612   -1.5934 C.ar    1  UNL1       -0.0005
     19 C           1.6429   -0.3670   -2.0161 C.ar    1  UNL1        0.1299
     20 C           2.4499    0.7086   -1.4082 C.2     1  UNL1        0.2628
     21 O           1.9360    1.4312   -0.5274 O.2     1  UNL1       -0.2685
     22 N           3.7847    0.9313   -1.8047 N.am    1  UNL1       -0.3060
     23 C           4.6566    1.9536   -1.2779 C.3     1  UNL1        0.0372
     24 C           5.2000    1.6656    0.0586 C.ar    1  UNL1       -0.0283
     25 C           4.6094    2.0950    1.2259 C.ar    1  UNL1       -0.0535
     26 C           5.1501    1.8030    2.4847 C.ar    1  UNL1       -0.0178
     27 C           6.3196    1.0567    2.5658 C.ar    1  UNL1        0.1423
     28 C           6.9064    0.6296    1.4011 C.ar    1  UNL1        0.0760
     29 C           6.3571    0.9280    0.1673 C.ar    1  UNL1       -0.0322
     30 N           8.0986   -0.1309    1.5309 N.am    1  UNL1       -0.2798
     31 C           8.6163   -0.4078    2.8204 C.2     1  UNL1        0.2549
     32 O           9.4798   -1.3032    3.0045 O.2     1  UNL1       -0.2717
     33 C           8.1618    0.3502    4.0240 C.3     1  UNL1        0.1656
     34 O           6.8097    0.7979    3.8386 O.3     1  UNL1       -0.4809
     35 N           2.1628   -1.1557   -2.9723 N.ar    1  UNL1       -0.2231
     36 C           1.3939   -2.1219   -3.5036 C.ar    1  UNL1        0.1571
     37 C           1.6850   -3.0505   -4.4825 C.ar    1  UNL1        0.0024
     38 C           0.5397   -3.7977   -4.6425 C.ar    1  UNL1        0.0519
     39 N          -0.4043   -3.3203   -3.7777 N.ar    1  UNL1       -0.1727
     40 N           0.1037   -2.3197   -3.0967 N.ar    1  UNL1       -0.2095
     41 H          -7.3753   -0.4751    2.6662 H       1  UNL1        0.0278
     42 H          -7.4068    1.2924    2.9073 H       1  UNL1        0.0278
     43 H          -8.5532    0.4858    1.7136 H       1  UNL1        0.0278
     44 H          -9.2338    3.5340    1.7579 H       1  UNL1        0.2954
     45 H          -5.7913    2.8671   -1.3496 H       1  UNL1        0.0626
     46 H          -4.1276    1.1219   -1.8426 H       1  UNL1        0.0621
     47 H          -6.0097   -2.4462    0.9504 H       1  UNL1        0.0314
     48 H          -5.5939   -1.6198    2.5159 H       1  UNL1        0.0314
     49 H          -3.3049   -1.3724    1.7666 H       1  UNL1        0.0289
     50 H          -3.7237   -2.9956    1.0819 H       1  UNL1        0.0289
     51 H          -4.2818   -2.1591   -0.9944 H       1  UNL1        0.0548
     52 H          -1.9726   -0.3453   -0.2236 H       1  UNL1        0.1497
     53 H          -0.0939    0.0688   -0.8268 H       1  UNL1        0.0663
     54 H           4.1466    0.2777   -2.5528 H       1  UNL1        0.1494
     55 H           4.1214    2.9453   -1.3002 H       1  UNL1        0.0512
     56 H           5.4802    2.0972   -2.0387 H       1  UNL1        0.0512
     57 H           3.6945    2.6822    1.1441 H       1  UNL1        0.0622
     58 H           4.6433    2.1676    3.3800 H       1  UNL1        0.0655
     59 H           6.8429    0.5748   -0.7557 H       1  UNL1        0.0640
     60 H           8.5934   -0.4854    0.6969 H       1  UNL1        0.1550
     61 H           8.1424   -0.3158    4.9019 H       1  UNL1        0.0795
     62 H           8.8336    1.1995    4.2528 H       1  UNL1        0.0795
     63 H           2.6127   -3.1694   -5.0135 H       1  UNL1        0.0670
     64 H           0.3821   -4.6249   -5.3250 H       1  UNL1        0.0848
@<TRIPOS>BOND
     1     1     2    1
     2     2     3   ar
     3     3     4    1
     4     4     5    2
     5     4     6    1
     6     3     7   ar
     7     7     8   ar
     8     8     9   ar
     9     9    10   ar
    10    10    11    1
    11    11    12    1
    12    12    13    1
    13    13    14    1
    14    14    15   am
    15    15    16    2
    16    15    17    1
    17    17    18   ar
    18    18    19   ar
    19    19    20    1
    20    20    21    2
    21    20    22   am
    22    22    23    1
    23    23    24    1
    24    24    25   ar
    25    25    26   ar
    26    26    27   ar
    27    27    28   ar
    28    28    29   ar
    29    28    30    1
    30    30    31   am
    31    31    32    2
    32    31    33    1
    33    33    34    1
    34    19    35   ar
    35    35    36   ar
    36    36    37   ar
    37    37    38   ar
    38    38    39   ar
    39    39    40   ar
    40    10     2   ar
    41    40    17   ar
    42    13     9    1
    43    29    24   ar
    44    40    36   ar
    45    34    27    1
    46     1    41    1
    47     1    42    1
    48     1    43    1
    49     6    44    1
    50     7    45    1
    51     8    46    1
    52    11    47    1
    53    11    48    1
    54    12    49    1
    55    12    50    1
    56    13    51    1
    57    14    52    1
    58    18    53    1
    59    22    54    1
    60    23    55    1
    61    23    56    1
    62    25    57    1
    63    26    58    1
    64    29    59    1
    65    30    60    1
    66    33    61    1
    67    33    62    1
    68    37    63    1
    69    38    64    1
