@<TRIPOS>MOLECULE
*****
 47 50 0 0 0
SMALL
GASTEIGER

@<TRIPOS>ATOM
      1 C          -8.5034   -0.8950   -0.9095 C.3     1  UNL1        0.0736
      2 S          -8.4233    0.6269   -0.0024 S.O2    1  UNL1        0.0403
      3 O          -9.7710    0.8479    0.6541 O.2     1  UNL1       -0.1555
      4 O          -8.2051    1.7512   -0.9807 O.2     1  UNL1       -0.1555
      5 N          -7.2308    0.5739    1.2045 N.pl3   1  UNL1       -0.2209
      6 C          -5.8377    0.3982    1.0197 C.ar    1  UNL1        0.0477
      7 C          -4.9232    1.2075    1.6799 C.ar    1  UNL1       -0.0388
      8 C          -3.5585    1.0967    1.5466 C.ar    1  UNL1       -0.0520
      9 C          -3.0565    0.1089    0.6941 C.ar    1  UNL1       -0.0112
     10 C          -1.6409   -0.0529    0.5161 C.ar    1  UNL1        0.0643
     11 C          -1.0808   -1.3126    0.5376 C.ar    1  UNL1        0.1038
     12 O           0.2294   -1.4881    0.3748 O.2     1  UNL1       -0.4621
     13 C           1.0092   -0.4763    0.1920 C.ar    1  UNL1        0.1396
     14 C           2.3693   -0.7468    0.0298 C.ar    1  UNL1       -0.0032
     15 C           3.2301    0.3139   -0.1676 C.ar    1  UNL1        0.0288
     16 C           4.6514    0.0567   -0.3391 C.1     1  UNL1       -0.0609
     17 C           5.8342   -0.1383   -0.4720 C.1     1  UNL1       -0.0608
     18 C           7.2431   -0.3846   -0.6097 C.ar    1  UNL1        0.0318
     19 C           8.1551    0.4293    0.0020 C.ar    1  UNL1       -0.0301
     20 C           9.5120    0.1701   -0.1464 C.ar    1  UNL1        0.0061
     21 N           9.9495   -0.8685   -0.8820 N.ar    1  UNL1       -0.3290
     22 C           9.0731   -1.6749   -1.4873 C.ar    1  UNL1        0.2499
     23 O           9.4510   -2.6497   -2.1786 O.2     1  UNL1       -0.2679
     24 C           7.7206   -1.4455   -1.3602 C.ar    1  UNL1        0.0182
     25 C           2.7277    1.5930   -0.1984 C.ar    1  UNL1       -0.0454
     26 C           1.3722    1.8583   -0.0364 C.ar    1  UNL1       -0.0462
     27 C           0.5158    0.8132    0.1593 C.ar    1  UNL1        0.0646
     28 C          -0.8332    1.0375    0.3235 C.ar    1  UNL1        0.2001
     29 O          -1.2398    2.2243    0.2870 O.2     1  UNL1       -0.2864
     30 C          -3.9468   -0.7071    0.0276 C.ar    1  UNL1       -0.0520
     31 C          -5.3177   -0.5620    0.1904 C.ar    1  UNL1       -0.0388
     32 H          -9.5611   -1.0275   -1.3003 H       1  UNL1        0.0482
     33 H          -8.2589   -1.7727   -0.2982 H       1  UNL1        0.0482
     34 H          -7.8082   -0.8340   -1.7741 H       1  UNL1        0.0482
     35 H          -7.5436    0.6827    2.2206 H       1  UNL1        0.1733
     36 H          -5.3383    1.9621    2.3319 H       1  UNL1        0.0637
     37 H          -2.8629    1.7400    2.0722 H       1  UNL1        0.0624
     38 H          -1.6479   -2.2228    0.6839 H       1  UNL1        0.1037
     39 H           2.7683   -1.7435    0.0528 H       1  UNL1        0.0667
     40 H           7.8179    1.2672    0.5959 H       1  UNL1        0.0644
     41 H          10.2090    0.8191    0.3406 H       1  UNL1        0.0808
     42 H          10.9709   -1.0544   -0.9871 H       1  UNL1        0.1683
     43 H           6.9714   -2.0722   -1.8326 H       1  UNL1        0.0684
     44 H           3.4071    2.4086   -0.3525 H       1  UNL1        0.0630
     45 H           0.9745    2.8608   -0.0599 H       1  UNL1        0.0626
     46 H          -3.6158   -1.4954   -0.6506 H       1  UNL1        0.0624
     47 H          -5.9572   -1.2231   -0.3484 H       1  UNL1        0.0637
@<TRIPOS>BOND
     1     1     2    1
     2     2     3    2
     3     2     4    2
     4     2     5    1
     5     5     6    1
     6     6     7   ar
     7     7     8   ar
     8     8     9   ar
     9     9    10    1
    10    10    11   ar
    11    11    12   ar
    12    12    13   ar
    13    13    14   ar
    14    14    15   ar
    15    15    16    1
    16    16    17    3
    17    17    18    1
    18    18    19   ar
    19    19    20   ar
    20    20    21   ar
    21    21    22   ar
    22    22    23    2
    23    22    24   ar
    24    15    25   ar
    25    25    26   ar
    26    26    27   ar
    27    27    28   ar
    28    28    29    2
    29     9    30   ar
    30    30    31   ar
    31    31     6   ar
    32    28    10   ar
    33    27    13   ar
    34    24    18   ar
    35     1    32    1
    36     1    33    1
    37     1    34    1
    38     5    35    1
    39     7    36    1
    40     8    37    1
    41    11    38    1
    42    14    39    1
    43    19    40    1
    44    20    41    1
    45    21    42    1
    46    24    43    1
    47    25    44    1
    48    26    45    1
    49    30    46    1
    50    31    47    1
