
     RDKit          3D

 47 50  0  0  0  0  0  0  0  0999 V2000
   -8.5034   -0.8950   -0.9095 C   0  0  0  0  0  0  0  0  0  0  0  0
   -8.4233    0.6269   -0.0024 S   0  0  0  0  0  6  0  0  0  0  0  0
   -9.7710    0.8479    0.6541 O   0  0  0  0  0  0  0  0  0  0  0  0
   -8.2051    1.7512   -0.9807 O   0  0  0  0  0  0  0  0  0  0  0  0
   -7.2308    0.5739    1.2045 N   0  0  0  0  0  0  0  0  0  0  0  0
   -5.8377    0.3982    1.0197 C   0  0  0  0  0  0  0  0  0  0  0  0
   -4.9232    1.2075    1.6799 C   0  0  0  0  0  0  0  0  0  0  0  0
   -3.5585    1.0967    1.5466 C   0  0  0  0  0  0  0  0  0  0  0  0
   -3.0565    0.1089    0.6941 C   0  0  0  0  0  0  0  0  0  0  0  0
   -1.6409   -0.0529    0.5161 C   0  0  0  0  0  0  0  0  0  0  0  0
   -1.0808   -1.3126    0.5376 C   0  0  0  0  0  0  0  0  0  0  0  0
    0.2294   -1.4881    0.3748 O   0  0  0  0  0  0  0  0  0  0  0  0
    1.0092   -0.4763    0.1920 C   0  0  0  0  0  0  0  0  0  0  0  0
    2.3693   -0.7468    0.0298 C   0  0  0  0  0  0  0  0  0  0  0  0
    3.2301    0.3139   -0.1676 C   0  0  0  0  0  0  0  0  0  0  0  0
    4.6514    0.0567   -0.3391 C   0  0  0  0  0  0  0  0  0  0  0  0
    5.8342   -0.1383   -0.4720 C   0  0  0  0  0  0  0  0  0  0  0  0
    7.2431   -0.3846   -0.6097 C   0  0  0  0  0  0  0  0  0  0  0  0
    8.1551    0.4293    0.0020 C   0  0  0  0  0  0  0  0  0  0  0  0
    9.5120    0.1701   -0.1464 C   0  0  0  0  0  0  0  0  0  0  0  0
    9.9495   -0.8685   -0.8820 N   0  0  0  0  0  0  0  0  0  0  0  0
    9.0731   -1.6749   -1.4873 C   0  0  0  0  0  0  0  0  0  0  0  0
    9.4510   -2.6497   -2.1786 O   0  0  0  0  0  0  0  0  0  0  0  0
    7.7206   -1.4455   -1.3602 C   0  0  0  0  0  0  0  0  0  0  0  0
    2.7277    1.5930   -0.1984 C   0  0  0  0  0  0  0  0  0  0  0  0
    1.3722    1.8583   -0.0364 C   0  0  0  0  0  0  0  0  0  0  0  0
    0.5158    0.8132    0.1593 C   0  0  0  0  0  0  0  0  0  0  0  0
   -0.8332    1.0375    0.3235 C   0  0  0  0  0  0  0  0  0  0  0  0
   -1.2398    2.2243    0.2870 O   0  0  0  0  0  0  0  0  0  0  0  0
   -3.9468   -0.7071    0.0276 C   0  0  0  0  0  0  0  0  0  0  0  0
   -5.3177   -0.5620    0.1904 C   0  0  0  0  0  0  0  0  0  0  0  0
   -9.5611   -1.0275   -1.3003 H   0  0  0  0  0  0  0  0  0  0  0  0
   -8.2589   -1.7727   -0.2982 H   0  0  0  0  0  0  0  0  0  0  0  0
   -7.8082   -0.8340   -1.7741 H   0  0  0  0  0  0  0  0  0  0  0  0
   -7.5436    0.6827    2.2206 H   0  0  0  0  0  0  0  0  0  0  0  0
   -5.3383    1.9621    2.3319 H   0  0  0  0  0  0  0  0  0  0  0  0
   -2.8629    1.7400    2.0722 H   0  0  0  0  0  0  0  0  0  0  0  0
   -1.6479   -2.2228    0.6839 H   0  0  0  0  0  0  0  0  0  0  0  0
    2.7683   -1.7435    0.0528 H   0  0  0  0  0  0  0  0  0  0  0  0
    7.8179    1.2672    0.5959 H   0  0  0  0  0  0  0  0  0  0  0  0
   10.2090    0.8191    0.3406 H   0  0  0  0  0  0  0  0  0  0  0  0
   10.9709   -1.0544   -0.9871 H   0  0  0  0  0  0  0  0  0  0  0  0
    6.9714   -2.0722   -1.8326 H   0  0  0  0  0  0  0  0  0  0  0  0
    3.4071    2.4086   -0.3525 H   0  0  0  0  0  0  0  0  0  0  0  0
    0.9745    2.8608   -0.0599 H   0  0  0  0  0  0  0  0  0  0  0  0
   -3.6158   -1.4954   -0.6506 H   0  0  0  0  0  0  0  0  0  0  0  0
   -5.9572   -1.2231   -0.3484 H   0  0  0  0  0  0  0  0  0  0  0  0
  1  2  1  0
  2  3  2  0
  2  4  2  0
  2  5  1  0
  5  6  1  0
  6  7  2  0
  7  8  1  0
  8  9  2  0
  9 10  1  0
 10 11  2  0
 11 12  1  0
 12 13  1  0
 13 14  2  0
 14 15  1  0
 15 16  1  0
 16 17  3  0
 17 18  1  0
 18 19  1  0
 19 20  2  0
 20 21  1  0
 21 22  1  0
 22 23  2  0
 22 24  1  0
 15 25  2  0
 25 26  1  0
 26 27  2  0
 27 28  1  0
 28 29  2  0
  9 30  1  0
 30 31  2  0
 31  6  1  0
 28 10  1  0
 27 13  1  0
 24 18  2  0
  1 32  1  0
  1 33  1  0
  1 34  1  0
  5 35  1  0
  7 36  1  0
  8 37  1  0
 11 38  1  0
 14 39  1  0
 19 40  1  0
 20 41  1  0
 21 42  1  0
 24 43  1  0
 25 44  1  0
 26 45  1  0
 30 46  1  0
 31 47  1  0
M  END
$$$$
