
     RDKit          3D

 53 56  0  0  0  0  0  0  0  0999 V2000
    4.8185    3.8267   -0.1237 C   0  0  0  0  0  0  0  0  0  0  0  0
    4.8778    2.6163    0.5493 O   0  0  0  0  0  0  0  0  0  0  0  0
    4.1607    1.5133    0.1550 C   0  0  0  0  0  0  0  0  0  0  0  0
    3.3324    1.5607   -0.9501 C   0  0  0  0  0  0  0  0  0  0  0  0
    2.6412    0.4363   -1.3070 C   0  0  0  0  0  0  0  0  0  0  0  0
    2.7688   -0.7138   -0.5822 C   0  0  0  0  0  0  0  0  0  0  0  0
    2.0909   -1.9341   -1.0121 C   0  0  0  0  0  0  0  0  0  0  0  0
    0.6804   -1.7720   -0.9459 N   0  0  0  0  0  0  0  0  0  0  0  0
   -0.1204   -1.7230    0.1966 C   0  0  0  0  0  0  0  0  0  0  0  0
    0.3437   -1.8318    1.3437 O   0  0  0  0  0  0  0  0  0  0  0  0
   -1.5813   -1.5271   -0.0131 C   0  0  0  0  0  0  0  0  0  0  0  0
   -2.1436   -0.2773    0.0886 C   0  0  0  0  0  0  0  0  0  0  0  0
   -3.4700   -0.0366   -0.1994 C   0  0  0  0  0  0  0  0  0  0  0  0
   -4.0934    1.2908   -0.1361 C   0  0  0  0  0  0  0  0  0  0  0  0
   -5.4412    1.4114   -0.5006 C   0  0  0  0  0  0  0  0  0  0  0  0
   -6.0360    2.6175   -0.4629 N   0  0  0  0  0  0  0  0  0  0  0  0
   -5.3738    3.6841   -0.0889 C   0  0  0  0  0  0  0  0  0  0  0  0
   -4.0270    3.6518    0.2925 C   0  0  0  0  0  0  0  0  0  0  0  0
   -3.2910    4.8850    0.7199 C   0  0  0  0  0  0  0  0  0  0  0  0
   -3.4151    2.4300    0.2549 C   0  0  0  0  0  0  0  0  0  0  0  0
   -4.1829   -1.1083   -0.5859 N   0  0  0  0  0  0  0  0  0  0  0  0
   -3.6622   -2.3623   -0.6955 C   0  0  0  0  0  0  0  0  0  0  0  0
   -2.3343   -2.6098   -0.4094 C   0  0  0  0  0  0  0  0  0  0  0  0
   -1.7114   -3.9365   -0.4727 C   0  0  0  0  0  0  0  0  0  0  0  0
   -0.5889   -4.4123   -0.1229 N   0  0  0  0  0  0  0  0  0  0  0  0
   -0.2539   -5.6439   -0.2528 C   0  0  0  0  0  0  0  0  0  0  0  0
   -1.1236   -6.5241   -0.7932 C   0  0  0  0  0  0  0  0  0  0  0  0
   -2.5540   -5.3946   -1.1254 S   0  0  0  0  0  0  0  0  0  0  0  0
    3.5954   -0.7352    0.5120 N   0  0  0  0  0  0  0  0  0  0  0  0
    4.2929    0.3399    0.9009 C   0  0  0  0  0  0  0  0  0  0  0  0
    5.1285    0.3617    1.9823 O   0  0  0  0  0  0  0  0  0  0  0  0
    5.3709   -0.7382    2.8016 C   0  0  0  0  0  0  0  0  0  0  0  0
    4.0189    4.4486    0.3672 H   0  0  0  0  0  0  0  0  0  0  0  0
    4.5578    3.7857   -1.1958 H   0  0  0  0  0  0  0  0  0  0  0  0
    5.8098    4.3612   -0.0608 H   0  0  0  0  0  0  0  0  0  0  0  0
    3.1844    2.4514   -1.5586 H   0  0  0  0  0  0  0  0  0  0  0  0
    1.9826    0.4681   -2.1779 H   0  0  0  0  0  0  0  0  0  0  0  0
    2.4058   -2.1655   -2.0571 H   0  0  0  0  0  0  0  0  0  0  0  0
    2.4500   -2.7821   -0.3460 H   0  0  0  0  0  0  0  0  0  0  0  0
    0.1773   -1.6755   -1.8881 H   0  0  0  0  0  0  0  0  0  0  0  0
   -1.5342    0.5836    0.4095 H   0  0  0  0  0  0  0  0  0  0  0  0
   -5.9820    0.5226   -0.8108 H   0  0  0  0  0  0  0  0  0  0  0  0
   -5.8161    4.6810   -0.0459 H   0  0  0  0  0  0  0  0  0  0  0  0
   -3.9739    5.3999    1.4477 H   0  0  0  0  0  0  0  0  0  0  0  0
   -3.0608    5.5626   -0.1028 H   0  0  0  0  0  0  0  0  0  0  0  0
   -2.4064    4.5467    1.2797 H   0  0  0  0  0  0  0  0  0  0  0  0
   -2.3653    2.3531    0.5423 H   0  0  0  0  0  0  0  0  0  0  0  0
   -4.2775   -3.2138   -1.0127 H   0  0  0  0  0  0  0  0  0  0  0  0
    0.7522   -6.0113    0.0800 H   0  0  0  0  0  0  0  0  0  0  0  0
   -1.1314   -7.5549   -1.0189 H   0  0  0  0  0  0  0  0  0  0  0  0
    6.4907   -0.9413    2.8104 H   0  0  0  0  0  0  0  0  0  0  0  0
    5.1542   -0.5030    3.8722 H   0  0  0  0  0  0  0  0  0  0  0  0
    4.8658   -1.6619    2.4486 H   0  0  0  0  0  0  0  0  0  0  0  0
  1  2  1  0
  2  3  1  0
  3  4  2  0
  4  5  1  0
  5  6  2  0
  6  7  1  0
  7  8  1  0
  8  9  1  0
  9 10  2  0
  9 11  1  0
 11 12  2  0
 12 13  1  0
 13 14  1  0
 14 15  2  0
 15 16  1  0
 16 17  2  0
 17 18  1  0
 18 19  1  0
 18 20  2  0
 13 21  2  0
 21 22  1  0
 22 23  2  0
 23 24  1  0
 24 25  2  0
 25 26  1  0
 26 27  2  0
 27 28  1  0
  6 29  1  0
 29 30  2  0
 30 31  1  0
 31 32  1  0
 30  3  1  0
 23 11  1  0
 28 24  1  0
 20 14  1  0
  1 33  1  0
  1 34  1  0
  1 35  1  0
  4 36  1  0
  5 37  1  0
  7 38  1  0
  7 39  1  0
  8 40  1  0
 12 41  1  0
 15 42  1  0
 17 43  1  0
 19 44  1  0
 19 45  1  0
 19 46  1  0
 20 47  1  0
 22 48  1  0
 26 49  1  0
 27 50  1  0
 32 51  1  0
 32 52  1  0
 32 53  1  0
M  END
$$$$
