@<TRIPOS>MOLECULE
*****
 53 56 0 0 0
SMALL
GASTEIGER

@<TRIPOS>ATOM
      1 C           4.8185    3.8267   -0.1237 C.3     1  UNL1        0.0790
      2 O           4.8778    2.6163    0.5493 O.3     1  UNL1       -0.4899
      3 C           4.1607    1.5133    0.1550 C.ar    1  UNL1        0.1814
      4 C           3.3324    1.5607   -0.9501 C.ar    1  UNL1       -0.0129
      5 C           2.6412    0.4363   -1.3070 C.ar    1  UNL1       -0.0351
      6 C           2.7688   -0.7138   -0.5822 C.ar    1  UNL1        0.0624
      7 C           2.0909   -1.9341   -1.0121 C.3     1  UNL1        0.0544
      8 N           0.6804   -1.7720   -0.9459 N.am    1  UNL1       -0.3057
      9 C          -0.1204   -1.7230    0.1966 C.2     1  UNL1        0.2451
     10 O           0.3437   -1.8318    1.3437 O.2     1  UNL1       -0.2702
     11 C          -1.5813   -1.5271   -0.0131 C.ar    1  UNL1        0.0498
     12 C          -2.1436   -0.2773    0.0886 C.ar    1  UNL1       -0.0229
     13 C          -3.4700   -0.0366   -0.1994 C.ar    1  UNL1        0.0732
     14 C          -4.0934    1.2908   -0.1361 C.ar    1  UNL1        0.0187
     15 C          -5.4412    1.4114   -0.5006 C.ar    1  UNL1        0.0367
     16 N          -6.0360    2.6175   -0.4629 N.ar    1  UNL1       -0.2623
     17 C          -5.3738    3.6841   -0.0889 C.ar    1  UNL1        0.0305
     18 C          -4.0270    3.6518    0.2925 C.ar    1  UNL1       -0.0317
     19 C          -3.2910    4.8850    0.7199 C.3     1  UNL1       -0.0383
     20 C          -3.4151    2.4300    0.2549 C.ar    1  UNL1       -0.0468
     21 N          -4.1829   -1.1083   -0.5859 N.ar    1  UNL1       -0.2542
     22 C          -3.6622   -2.3623   -0.6955 C.ar    1  UNL1        0.0387
     23 C          -2.3343   -2.6098   -0.4094 C.ar    1  UNL1        0.0373
     24 C          -1.7114   -3.9365   -0.4727 C.ar    1  UNL1        0.1104
     25 N          -0.5889   -4.4123   -0.1229 N.ar    1  UNL1       -0.2473
     26 C          -0.2539   -5.6439   -0.2528 C.ar    1  UNL1        0.0354
     27 C          -1.1236   -6.5241   -0.7932 C.ar    1  UNL1       -0.0042
     28 S          -2.5540   -5.3946   -1.1254 S.2     1  UNL1       -0.0756
     29 N           3.5954   -0.7352    0.5120 N.ar    1  UNL1       -0.2132
     30 C           4.2929    0.3399    0.9009 C.ar    1  UNL1        0.2579
     31 O           5.1285    0.3617    1.9823 O.3     1  UNL1       -0.4772
     32 C           5.3709   -0.7382    2.8016 C.3     1  UNL1        0.0805
     33 H           4.0189    4.4486    0.3672 H       1  UNL1        0.0660
     34 H           4.5578    3.7857   -1.1958 H       1  UNL1        0.0660
     35 H           5.8098    4.3612   -0.0608 H       1  UNL1        0.0660
     36 H           3.1844    2.4514   -1.5586 H       1  UNL1        0.0656
     37 H           1.9826    0.4681   -2.1779 H       1  UNL1        0.0637
     38 H           2.4058   -2.1655   -2.0571 H       1  UNL1        0.0527
     39 H           2.4500   -2.7821   -0.3460 H       1  UNL1        0.0527
     40 H           0.1773   -1.6755   -1.8881 H       1  UNL1        0.1494
     41 H          -1.5342    0.5836    0.4095 H       1  UNL1        0.0647
     42 H          -5.9820    0.5226   -0.8108 H       1  UNL1        0.0836
     43 H          -5.8161    4.6810   -0.0459 H       1  UNL1        0.0832
     44 H          -3.9739    5.3999    1.4477 H       1  UNL1        0.0278
     45 H          -3.0608    5.5626   -0.1028 H       1  UNL1        0.0278
     46 H          -2.4064    4.5467    1.2797 H       1  UNL1        0.0278
     47 H          -2.3653    2.3531    0.5423 H       1  UNL1        0.0628
     48 H          -4.2775   -3.2138   -1.0127 H       1  UNL1        0.0837
     49 H           0.7522   -6.0113    0.0800 H       1  UNL1        0.0835
     50 H          -1.1314   -7.5549   -1.0189 H       1  UNL1        0.0709
     51 H           6.4907   -0.9413    2.8104 H       1  UNL1        0.0660
     52 H           5.1542   -0.5030    3.8722 H       1  UNL1        0.0660
     53 H           4.8658   -1.6619    2.4486 H       1  UNL1        0.0660
@<TRIPOS>BOND
     1     1     2    1
     2     2     3    1
     3     3     4   ar
     4     4     5   ar
     5     5     6   ar
     6     6     7    1
     7     7     8    1
     8     8     9   am
     9     9    10    2
    10     9    11    1
    11    11    12   ar
    12    12    13   ar
    13    13    14    1
    14    14    15   ar
    15    15    16   ar
    16    16    17   ar
    17    17    18   ar
    18    18    19    1
    19    18    20   ar
    20    13    21   ar
    21    21    22   ar
    22    22    23   ar
    23    23    24    1
    24    24    25   ar
    25    25    26   ar
    26    26    27   ar
    27    27    28   ar
    28     6    29   ar
    29    29    30   ar
    30    30    31    1
    31    31    32    1
    32    30     3   ar
    33    23    11   ar
    34    28    24   ar
    35    20    14   ar
    36     1    33    1
    37     1    34    1
    38     1    35    1
    39     4    36    1
    40     5    37    1
    41     7    38    1
    42     7    39    1
    43     8    40    1
    44    12    41    1
    45    15    42    1
    46    17    43    1
    47    19    44    1
    48    19    45    1
    49    19    46    1
    50    20    47    1
    51    22    48    1
    52    26    49    1
    53    27    50    1
    54    32    51    1
    55    32    52    1
    56    32    53    1
