@<TRIPOS>MOLECULE
*****
 36 39 0 0 0
SMALL
GASTEIGER

@<TRIPOS>ATOM
      1 O           1.6395   -0.6307    2.0107 O.2     1  UNL1       -0.2483
      2 C           0.5334   -0.2572    1.5661 C.2     1  UNL1        0.3414
      3 N          -0.7285   -0.4721    2.2262 N.am    1  UNL1       -0.1692
      4 C          -1.7242    0.1099    1.3839 C.2     1  UNL1        0.3822
      5 N          -3.1282    0.1367    1.6279 N.pl3   1  UNL1       -0.2056
      6 C          -4.1302    0.0089    0.6537 C.ar    1  UNL1        0.0916
      7 C          -5.4690    0.0863    1.0801 C.ar    1  UNL1       -0.0252
      8 C          -6.4843   -0.0358    0.1634 C.ar    1  UNL1       -0.0587
      9 C          -6.2131   -0.2364   -1.1913 C.ar    1  UNL1       -0.0616
     10 C          -4.9113   -0.3120   -1.6067 C.ar    1  UNL1       -0.0587
     11 C          -3.8827   -0.1879   -0.6745 C.ar    1  UNL1       -0.0252
     12 N          -1.2176    0.6285    0.3349 N.2     1  UNL1       -0.0693
     13 C           0.2186    0.4547    0.3402 C.2     1  UNL1        0.2196
     14 C           1.0442    0.8446   -0.6011 C.2     1  UNL1       -0.0056
     15 C           2.4653    0.6475   -0.6350 C.ar    1  UNL1       -0.0178
     16 C           3.2883    1.7319   -0.8607 C.ar    1  UNL1       -0.0508
     17 C           4.6523    1.5793   -0.9235 C.ar    1  UNL1       -0.0156
     18 C           5.2140    0.3526   -0.7634 C.ar    1  UNL1        0.1663
     19 C           4.4192   -0.7565   -0.5367 C.ar    1  UNL1        0.1668
     20 C           3.0635   -0.5687   -0.4808 C.ar    1  UNL1       -0.0089
     21 O           5.2063   -1.8891   -0.4055 O.3     1  UNL1       -0.4526
     22 C           6.5197   -1.3844   -0.1418 C.3     1  UNL1        0.2332
     23 O           6.5281   -0.1048   -0.7729 O.3     1  UNL1       -0.4526
     24 H          -0.8656   -0.9550    3.1315 H       1  UNL1        0.2544
     25 H          -3.3902    0.2626    2.6543 H       1  UNL1        0.2512
     26 H          -5.6845    0.2421    2.1318 H       1  UNL1        0.0650
     27 H          -7.5311    0.0204    0.4740 H       1  UNL1        0.0619
     28 H          -7.0592   -0.3269   -1.8681 H       1  UNL1        0.0618
     29 H          -4.7053   -0.4668   -2.6529 H       1  UNL1        0.0619
     30 H          -2.8662   -0.2529   -1.0145 H       1  UNL1        0.0650
     31 H           0.6203    1.3848   -1.4665 H       1  UNL1        0.0661
     32 H           2.8755    2.7149   -0.9908 H       1  UNL1        0.0625
     33 H           5.3028    2.4398   -1.1024 H       1  UNL1        0.0655
     34 H           2.4515   -1.4388   -0.3332 H       1  UNL1        0.0661
     35 H           6.6804   -1.2926    0.9405 H       1  UNL1        0.1166
     36 H           7.2684   -2.0766   -0.5582 H       1  UNL1        0.1166
@<TRIPOS>BOND
     1     1     2    2
     2     2     3   am
     3     3     4    1
     4     4     5    1
     5     5     6    1
     6     6     7   ar
     7     7     8   ar
     8     8     9   ar
     9     9    10   ar
    10    10    11   ar
    11     4    12    2
    12    12    13    1
    13    13    14    2
    14    14    15    1
    15    15    16   ar
    16    16    17   ar
    17    17    18   ar
    18    18    19   ar
    19    19    20   ar
    20    19    21    1
    21    21    22    1
    22    22    23    1
    23    13     2    1
    24    20    15   ar
    25    11     6   ar
    26    23    18    1
    27     3    24    1
    28     5    25    1
    29     7    26    1
    30     8    27    1
    31     9    28    1
    32    10    29    1
    33    11    30    1
    34    14    31    1
    35    16    32    1
    36    17    33    1
    37    20    34    1
    38    22    35    1
    39    22    36    1
