
     RDKit          3D

 36 39  0  0  0  0  0  0  0  0999 V2000
    1.6395   -0.6307    2.0107 O   0  0  0  0  0  0  0  0  0  0  0  0
    0.5334   -0.2572    1.5661 C   0  0  0  0  0  0  0  0  0  0  0  0
   -0.7285   -0.4721    2.2262 N   0  0  0  0  0  0  0  0  0  0  0  0
   -1.7242    0.1099    1.3839 C   0  0  0  0  0  0  0  0  0  0  0  0
   -3.1282    0.1367    1.6279 N   0  0  0  0  0  0  0  0  0  0  0  0
   -4.1302    0.0089    0.6537 C   0  0  0  0  0  0  0  0  0  0  0  0
   -5.4690    0.0863    1.0801 C   0  0  0  0  0  0  0  0  0  0  0  0
   -6.4843   -0.0358    0.1634 C   0  0  0  0  0  0  0  0  0  0  0  0
   -6.2131   -0.2364   -1.1913 C   0  0  0  0  0  0  0  0  0  0  0  0
   -4.9113   -0.3120   -1.6067 C   0  0  0  0  0  0  0  0  0  0  0  0
   -3.8827   -0.1879   -0.6745 C   0  0  0  0  0  0  0  0  0  0  0  0
   -1.2176    0.6285    0.3349 N   0  0  0  0  0  0  0  0  0  0  0  0
    0.2186    0.4547    0.3402 C   0  0  0  0  0  0  0  0  0  0  0  0
    1.0442    0.8446   -0.6011 C   0  0  0  0  0  0  0  0  0  0  0  0
    2.4653    0.6475   -0.6350 C   0  0  0  0  0  0  0  0  0  0  0  0
    3.2883    1.7319   -0.8607 C   0  0  0  0  0  0  0  0  0  0  0  0
    4.6523    1.5793   -0.9235 C   0  0  0  0  0  0  0  0  0  0  0  0
    5.2140    0.3526   -0.7634 C   0  0  0  0  0  0  0  0  0  0  0  0
    4.4192   -0.7565   -0.5367 C   0  0  0  0  0  0  0  0  0  0  0  0
    3.0635   -0.5687   -0.4808 C   0  0  0  0  0  0  0  0  0  0  0  0
    5.2063   -1.8891   -0.4055 O   0  0  0  0  0  0  0  0  0  0  0  0
    6.5197   -1.3844   -0.1418 C   0  0  0  0  0  0  0  0  0  0  0  0
    6.5281   -0.1048   -0.7729 O   0  0  0  0  0  0  0  0  0  0  0  0
   -0.8656   -0.9550    3.1315 H   0  0  0  0  0  0  0  0  0  0  0  0
   -3.3902    0.2626    2.6543 H   0  0  0  0  0  0  0  0  0  0  0  0
   -5.6845    0.2421    2.1318 H   0  0  0  0  0  0  0  0  0  0  0  0
   -7.5311    0.0204    0.4740 H   0  0  0  0  0  0  0  0  0  0  0  0
   -7.0592   -0.3269   -1.8681 H   0  0  0  0  0  0  0  0  0  0  0  0
   -4.7053   -0.4668   -2.6529 H   0  0  0  0  0  0  0  0  0  0  0  0
   -2.8662   -0.2529   -1.0145 H   0  0  0  0  0  0  0  0  0  0  0  0
    0.6203    1.3848   -1.4665 H   0  0  0  0  0  0  0  0  0  0  0  0
    2.8755    2.7149   -0.9908 H   0  0  0  0  0  0  0  0  0  0  0  0
    5.3028    2.4398   -1.1024 H   0  0  0  0  0  0  0  0  0  0  0  0
    2.4515   -1.4388   -0.3332 H   0  0  0  0  0  0  0  0  0  0  0  0
    6.6804   -1.2926    0.9405 H   0  0  0  0  0  0  0  0  0  0  0  0
    7.2684   -2.0766   -0.5582 H   0  0  0  0  0  0  0  0  0  0  0  0
  1  2  2  0
  2  3  1  0
  3  4  1  0
  4  5  1  0
  5  6  1  0
  6  7  2  0
  7  8  1  0
  8  9  2  0
  9 10  1  0
 10 11  2  0
  4 12  2  0
 12 13  1  0
 13 14  2  3
 14 15  1  0
 15 16  2  0
 16 17  1  0
 17 18  2  0
 18 19  1  0
 19 20  2  0
 19 21  1  0
 21 22  1  0
 22 23  1  0
 13  2  1  0
 20 15  1  0
 11  6  1  0
 23 18  1  0
  3 24  1  0
  5 25  1  0
  7 26  1  0
  8 27  1  0
  9 28  1  0
 10 29  1  0
 11 30  1  0
 14 31  1  0
 16 32  1  0
 17 33  1  0
 20 34  1  0
 22 35  1  0
 22 36  1  0
M  END
$$$$
