@<TRIPOS>MOLECULE
*****
 62 66 0 0 0
SMALL
GASTEIGER

@<TRIPOS>ATOM
      1 O          -2.5510   -2.7622    0.6178 O.2     1  UNL1       -0.2690
      2 C          -3.2394   -1.6928    0.7897 C.2     1  UNL1        0.2583
      3 C          -2.6894   -0.4198    0.3704 C.2     1  UNL1        0.0773
      4 C          -1.6291   -0.1252   -0.3414 C.2     1  UNL1       -0.0322
      5 C          -1.2387    1.2523   -0.6603 C.ar    1  UNL1        0.0220
      6 C          -2.1202    2.2966   -0.9477 C.ar    1  UNL1        0.0390
      7 N          -1.3719    3.3778   -1.1630 N.ar    1  UNL1       -0.2387
      8 C          -1.9341    4.6532   -1.4886 C.ar    1  UNL1        0.0654
      9 C          -2.6195    4.8398   -2.6642 C.ar    1  UNL1       -0.0363
     10 C          -3.1737    6.0743   -2.9981 C.ar    1  UNL1       -0.0598
     11 C          -3.0094    7.0941   -2.1101 C.ar    1  UNL1       -0.0616
     12 C          -2.3335    6.9460   -0.9301 C.ar    1  UNL1       -0.0598
     13 C          -1.7878    5.7055   -0.6156 C.ar    1  UNL1       -0.0363
     14 N          -0.0967    3.0635   -1.0266 N.ar    1  UNL1       -0.1658
     15 C           0.0297    1.7362   -0.7109 C.ar    1  UNL1        0.1003
     16 C           1.3075    1.0829   -0.4800 C.ar    1  UNL1        0.0029
     17 C           1.7140   -0.0957   -1.0321 C.ar    1  UNL1       -0.0490
     18 C           2.9369   -0.6818   -0.7671 C.ar    1  UNL1       -0.0193
     19 C           3.7820   -0.0264    0.1054 C.ar    1  UNL1        0.1210
     20 O           5.0229   -0.5580    0.4154 O.3     1  UNL1       -0.4874
     21 C           5.4236   -1.7820   -0.1686 C.3     1  UNL1        0.1146
     22 C           6.7926   -2.1023    0.3470 C.ar    1  UNL1       -0.0104
     23 C           7.8685   -1.6254   -0.3755 C.ar    1  UNL1       -0.0554
     24 C           9.1279   -1.9128    0.0873 C.ar    1  UNL1       -0.0614
     25 C           9.2909   -2.6511    1.2321 C.ar    1  UNL1       -0.0617
     26 C           8.2069   -3.1261    1.9517 C.ar    1  UNL1       -0.0614
     27 C           6.9515   -2.8451    1.4986 C.ar    1  UNL1       -0.0554
     28 C           3.4256    1.1659    0.6921 C.ar    1  UNL1       -0.0193
     29 C           2.2017    1.7068    0.3975 C.ar    1  UNL1       -0.0490
     30 S          -3.8150    0.7911    1.0562 S.3     1  UNL1       -0.0610
     31 C          -5.1063   -0.3771    1.4657 C.2     1  UNL1        0.1206
     32 S          -6.6615   -0.0409    1.8769 S.2     1  UNL1       -0.0272
     33 N          -4.5003   -1.6506    1.3587 N.am    1  UNL1       -0.2537
     34 C          -5.2087   -2.8614    1.8426 C.3     1  UNL1        0.0428
     35 C          -6.0392   -3.4468    0.7167 C.3     1  UNL1        0.1087
     36 S          -6.8896   -4.8906    1.2779 S.O2    1  UNL1        0.0812
     37 O          -5.9234   -5.8777    1.9067 O.2     1  UNL1       -0.1473
     38 O          -7.8227   -4.4585    2.3930 O.2     1  UNL1       -0.1473
     39 O          -7.8203   -5.5851    0.0929 O.3     1  UNL1       -0.2539
     40 H          -1.0119   -0.9130   -0.7149 H       1  UNL1        0.0637
     41 H          -3.1829    2.2059   -0.9793 H       1  UNL1        0.0837
     42 H          -2.7385    4.0174   -3.3552 H       1  UNL1        0.0639
     43 H          -3.6953    6.1360   -3.9388 H       1  UNL1        0.0618
     44 H          -3.4368    8.0785   -2.3493 H       1  UNL1        0.0618
     45 H          -2.2411    7.7966   -0.2727 H       1  UNL1        0.0618
     46 H          -1.2629    5.6372    0.3272 H       1  UNL1        0.0639
     47 H           1.0731   -0.5986   -1.7117 H       1  UNL1        0.0625
     48 H           3.2232   -1.6248   -1.2291 H       1  UNL1        0.0654
     49 H           5.4767   -1.7326   -1.2595 H       1  UNL1        0.0748
     50 H           4.7198   -2.5931    0.1459 H       1  UNL1        0.0748
     51 H           7.6993   -1.0433   -1.2786 H       1  UNL1        0.0621
     52 H           9.9902   -1.5565   -0.4516 H       1  UNL1        0.0618
     53 H          10.2720   -2.8863    1.6100 H       1  UNL1        0.0618
     54 H           8.3462   -3.7121    2.8604 H       1  UNL1        0.0618
     55 H           6.0923   -3.2017    2.0380 H       1  UNL1        0.0621
     56 H           4.1347    1.6245    1.3644 H       1  UNL1        0.0654
     57 H           1.9186    2.6262    0.8457 H       1  UNL1        0.0625
     58 H          -5.8625   -2.6180    2.6751 H       1  UNL1        0.0486
     59 H          -4.4742   -3.6190    2.1831 H       1  UNL1        0.0486
     60 H          -6.8096   -2.7252    0.3758 H       1  UNL1        0.0541
     61 H          -5.4086   -3.6556   -0.1820 H       1  UNL1        0.0541
     62 H          -7.3223   -5.8334   -0.7154 H       1  UNL1        0.2445
@<TRIPOS>BOND
     1     1     2    2
     2     2     3    1
     3     3     4    2
     4     4     5    1
     5     5     6   ar
     6     6     7   ar
     7     7     8    1
     8     8     9   ar
     9     9    10   ar
    10    10    11   ar
    11    11    12   ar
    12    12    13   ar
    13     7    14   ar
    14    14    15   ar
    15    15    16    1
    16    16    17   ar
    17    17    18   ar
    18    18    19   ar
    19    19    20    1
    20    20    21    1
    21    21    22    1
    22    22    23   ar
    23    23    24   ar
    24    24    25   ar
    25    25    26   ar
    26    26    27   ar
    27    19    28   ar
    28    28    29   ar
    29     3    30    1
    30    30    31    1
    31    31    32    2
    32    31    33    1
    33    33    34    1
    34    34    35    1
    35    35    36    1
    36    36    37    2
    37    36    38    2
    38    36    39    1
    39    33     2   am
    40    15     5   ar
    41    29    16   ar
    42    13     8   ar
    43    27    22   ar
    44     4    40    1
    45     6    41    1
    46     9    42    1
    47    10    43    1
    48    11    44    1
    49    12    45    1
    50    13    46    1
    51    17    47    1
    52    18    48    1
    53    21    49    1
    54    21    50    1
    55    23    51    1
    56    24    52    1
    57    25    53    1
    58    26    54    1
    59    27    55    1
    60    28    56    1
    61    29    57    1
    62    34    58    1
    63    34    59    1
    64    35    60    1
    65    35    61    1
    66    39    62    1
