
     RDKit          3D

 62 66  0  0  0  0  0  0  0  0999 V2000
   -2.5510   -2.7622    0.6178 O   0  0  0  0  0  0  0  0  0  0  0  0
   -3.2394   -1.6928    0.7897 C   0  0  0  0  0  0  0  0  0  0  0  0
   -2.6894   -0.4198    0.3704 C   0  0  0  0  0  0  0  0  0  0  0  0
   -1.6291   -0.1252   -0.3414 C   0  0  0  0  0  0  0  0  0  0  0  0
   -1.2387    1.2523   -0.6603 C   0  0  0  0  0  0  0  0  0  0  0  0
   -2.1202    2.2966   -0.9477 C   0  0  0  0  0  0  0  0  0  0  0  0
   -1.3719    3.3778   -1.1630 N   0  0  0  0  0  0  0  0  0  0  0  0
   -1.9341    4.6532   -1.4886 C   0  0  0  0  0  0  0  0  0  0  0  0
   -2.6195    4.8398   -2.6642 C   0  0  0  0  0  0  0  0  0  0  0  0
   -3.1737    6.0743   -2.9981 C   0  0  0  0  0  0  0  0  0  0  0  0
   -3.0094    7.0941   -2.1101 C   0  0  0  0  0  0  0  0  0  0  0  0
   -2.3335    6.9460   -0.9301 C   0  0  0  0  0  0  0  0  0  0  0  0
   -1.7878    5.7055   -0.6156 C   0  0  0  0  0  0  0  0  0  0  0  0
   -0.0967    3.0635   -1.0266 N   0  0  0  0  0  0  0  0  0  0  0  0
    0.0297    1.7362   -0.7109 C   0  0  0  0  0  0  0  0  0  0  0  0
    1.3075    1.0829   -0.4800 C   0  0  0  0  0  0  0  0  0  0  0  0
    1.7140   -0.0957   -1.0321 C   0  0  0  0  0  0  0  0  0  0  0  0
    2.9369   -0.6818   -0.7671 C   0  0  0  0  0  0  0  0  0  0  0  0
    3.7820   -0.0264    0.1054 C   0  0  0  0  0  0  0  0  0  0  0  0
    5.0229   -0.5580    0.4154 O   0  0  0  0  0  0  0  0  0  0  0  0
    5.4236   -1.7820   -0.1686 C   0  0  0  0  0  0  0  0  0  0  0  0
    6.7926   -2.1023    0.3470 C   0  0  0  0  0  0  0  0  0  0  0  0
    7.8685   -1.6254   -0.3755 C   0  0  0  0  0  0  0  0  0  0  0  0
    9.1279   -1.9128    0.0873 C   0  0  0  0  0  0  0  0  0  0  0  0
    9.2909   -2.6511    1.2321 C   0  0  0  0  0  0  0  0  0  0  0  0
    8.2069   -3.1261    1.9517 C   0  0  0  0  0  0  0  0  0  0  0  0
    6.9515   -2.8451    1.4986 C   0  0  0  0  0  0  0  0  0  0  0  0
    3.4256    1.1659    0.6921 C   0  0  0  0  0  0  0  0  0  0  0  0
    2.2017    1.7068    0.3975 C   0  0  0  0  0  0  0  0  0  0  0  0
   -3.8150    0.7911    1.0562 S   0  0  0  0  0  0  0  0  0  0  0  0
   -5.1063   -0.3771    1.4657 C   0  0  0  0  0  0  0  0  0  0  0  0
   -6.6615   -0.0409    1.8769 S   0  0  0  0  0  0  0  0  0  0  0  0
   -4.5003   -1.6506    1.3587 N   0  0  0  0  0  0  0  0  0  0  0  0
   -5.2087   -2.8614    1.8426 C   0  0  0  0  0  0  0  0  0  0  0  0
   -6.0392   -3.4468    0.7167 C   0  0  0  0  0  0  0  0  0  0  0  0
   -6.8896   -4.8906    1.2779 S   0  0  0  0  0  6  0  0  0  0  0  0
   -5.9234   -5.8777    1.9067 O   0  0  0  0  0  0  0  0  0  0  0  0
   -7.8227   -4.4585    2.3930 O   0  0  0  0  0  0  0  0  0  0  0  0
   -7.8203   -5.5851    0.0929 O   0  0  0  0  0  0  0  0  0  0  0  0
   -1.0119   -0.9130   -0.7149 H   0  0  0  0  0  0  0  0  0  0  0  0
   -3.1829    2.2059   -0.9793 H   0  0  0  0  0  0  0  0  0  0  0  0
   -2.7385    4.0174   -3.3552 H   0  0  0  0  0  0  0  0  0  0  0  0
   -3.6953    6.1360   -3.9388 H   0  0  0  0  0  0  0  0  0  0  0  0
   -3.4368    8.0785   -2.3493 H   0  0  0  0  0  0  0  0  0  0  0  0
   -2.2411    7.7966   -0.2727 H   0  0  0  0  0  0  0  0  0  0  0  0
   -1.2629    5.6372    0.3272 H   0  0  0  0  0  0  0  0  0  0  0  0
    1.0731   -0.5986   -1.7117 H   0  0  0  0  0  0  0  0  0  0  0  0
    3.2232   -1.6248   -1.2291 H   0  0  0  0  0  0  0  0  0  0  0  0
    5.4767   -1.7326   -1.2595 H   0  0  0  0  0  0  0  0  0  0  0  0
    4.7198   -2.5931    0.1459 H   0  0  0  0  0  0  0  0  0  0  0  0
    7.6993   -1.0433   -1.2786 H   0  0  0  0  0  0  0  0  0  0  0  0
    9.9902   -1.5565   -0.4516 H   0  0  0  0  0  0  0  0  0  0  0  0
   10.2720   -2.8863    1.6100 H   0  0  0  0  0  0  0  0  0  0  0  0
    8.3462   -3.7121    2.8604 H   0  0  0  0  0  0  0  0  0  0  0  0
    6.0923   -3.2017    2.0380 H   0  0  0  0  0  0  0  0  0  0  0  0
    4.1347    1.6245    1.3644 H   0  0  0  0  0  0  0  0  0  0  0  0
    1.9186    2.6262    0.8457 H   0  0  0  0  0  0  0  0  0  0  0  0
   -5.8625   -2.6180    2.6751 H   0  0  0  0  0  0  0  0  0  0  0  0
   -4.4742   -3.6190    2.1831 H   0  0  0  0  0  0  0  0  0  0  0  0
   -6.8096   -2.7252    0.3758 H   0  0  0  0  0  0  0  0  0  0  0  0
   -5.4086   -3.6556   -0.1820 H   0  0  0  0  0  0  0  0  0  0  0  0
   -7.3223   -5.8334   -0.7154 H   0  0  0  0  0  0  0  0  0  0  0  0
  1  2  2  0
  2  3  1  0
  3  4  2  0
  4  5  1  0
  5  6  2  0
  6  7  1  0
  7  8  1  0
  8  9  2  0
  9 10  1  0
 10 11  2  0
 11 12  1  0
 12 13  2  0
  7 14  1  0
 14 15  2  0
 15 16  1  0
 16 17  2  0
 17 18  1  0
 18 19  2  0
 19 20  1  0
 20 21  1  0
 21 22  1  0
 22 23  2  0
 23 24  1  0
 24 25  2  0
 25 26  1  0
 26 27  2  0
 19 28  1  0
 28 29  2  0
  3 30  1  0
 30 31  1  0
 31 32  2  0
 31 33  1  0
 33 34  1  0
 34 35  1  0
 35 36  1  0
 36 37  2  0
 36 38  2  0
 36 39  1  0
 33  2  1  0
 15  5  1  0
 29 16  1  0
 13  8  1  0
 27 22  1  0
  4 40  1  0
  6 41  1  0
  9 42  1  0
 10 43  1  0
 11 44  1  0
 12 45  1  0
 13 46  1  0
 17 47  1  0
 18 48  1  0
 21 49  1  0
 21 50  1  0
 23 51  1  0
 24 52  1  0
 25 53  1  0
 26 54  1  0
 27 55  1  0
 28 56  1  0
 29 57  1  0
 34 58  1  0
 34 59  1  0
 35 60  1  0
 35 61  1  0
 39 62  1  0
M  END
$$$$
