@<TRIPOS>MOLECULE
*****
 62 67 0 0 0
SMALL
GASTEIGER

@<TRIPOS>ATOM
      1 C           7.5906    0.0405   -1.0975 C.3     1  UNL1       -0.0130
      2 N           7.4808   -1.3076   -0.6073 N.3     1  UNL1       -0.3081
      3 C           8.6228   -1.5826    0.2418 C.3     1  UNL1       -0.0130
      4 C           6.2631   -1.6127    0.0664 C.3     1  UNL1        0.0012
      5 C           5.0362   -1.6555   -0.7858 C.3     1  UNL1       -0.0270
      6 C           3.8102   -1.9976    0.0812 C.3     1  UNL1       -0.0393
      7 C           3.6533   -0.5278    0.3137 C.3     1  UNL1        0.0182
      8 C           2.2700    0.0128    0.2558 C.ar    1  UNL1        0.1181
      9 N           1.2508   -0.3251   -0.5155 N.ar    1  UNL1       -0.2309
     10 C           0.1703    0.4281   -0.2352 C.ar    1  UNL1        0.1002
     11 C          -1.1398    0.3837   -0.8608 C.ar    1  UNL1        0.0046
     12 C          -1.2531    0.4688   -2.2545 C.ar    1  UNL1       -0.0518
     13 C          -2.4782    0.3951   -2.8759 C.ar    1  UNL1       -0.0519
     14 C          -3.6329    0.2366   -2.1632 C.ar    1  UNL1        0.0005
     15 C          -4.8802    0.1627   -2.7956 C.ar    1  UNL1       -0.0505
     16 C          -5.9758    0.0036   -1.9854 C.ar    1  UNL1       -0.0351
     17 C          -5.9244   -0.0861   -0.6154 C.ar    1  UNL1        0.0717
     18 C          -7.0972   -0.2514    0.2441 C.ar    1  UNL1        0.0004
     19 C          -8.3556   -0.3331   -0.2980 C.ar    1  UNL1       -0.0526
     20 C          -9.4790   -0.4894    0.5246 C.ar    1  UNL1       -0.0611
     21 C          -9.3380   -0.5633    1.8844 C.ar    1  UNL1       -0.0617
     22 C          -8.0739   -0.4826    2.4459 C.ar    1  UNL1       -0.0611
     23 C          -6.9808   -0.3284    1.6157 C.ar    1  UNL1       -0.0526
     24 N          -4.6829   -0.0070   -0.0659 N.ar    1  UNL1       -0.2467
     25 C          -3.5652    0.1483   -0.7939 C.ar    1  UNL1        0.0723
     26 C          -2.3145    0.2235   -0.1683 C.ar    1  UNL1       -0.0265
     27 C           0.5489    1.2852    0.7709 C.ar    1  UNL1        0.1135
     28 C          -0.0851    2.2951    1.4758 C.ar    1  UNL1        0.1424
     29 N          -1.4240    2.6403    1.1971 N.pl3   1  UNL1       -0.3414
     30 N           0.5382    3.0033    2.4286 N.ar    1  UNL1       -0.2371
     31 C           1.8110    2.7342    2.7129 C.ar    1  UNL1        0.0463
     32 C           2.4472    1.7311    2.0133 C.ar    1  UNL1        0.0297
     33 N           1.8400    1.0005    1.0452 N.ar    1  UNL1       -0.2982
     34 C           4.3631   -0.3282   -1.0352 C.3     1  UNL1       -0.0393
     35 H           7.1262    0.2087   -2.0889 H       1  UNL1        0.0391
     36 H           7.2275    0.7873   -0.3368 H       1  UNL1        0.0391
     37 H           8.6717    0.3391   -1.2366 H       1  UNL1        0.0391
     38 H           8.5258   -2.5924    0.7216 H       1  UNL1        0.0391
     39 H           8.7293   -0.8623    1.0747 H       1  UNL1        0.0391
     40 H           9.5729   -1.5340   -0.3549 H       1  UNL1        0.0391
     41 H           6.3899   -2.6502    0.5010 H       1  UNL1        0.0429
     42 H           6.0999   -0.9702    0.9690 H       1  UNL1        0.0429
     43 H           5.0911   -2.3159   -1.6709 H       1  UNL1        0.0313
     44 H           2.9803   -2.4514   -0.4992 H       1  UNL1        0.0275
     45 H           4.0598   -2.6258    0.9567 H       1  UNL1        0.0275
     46 H           4.2609   -0.1410    1.1539 H       1  UNL1        0.0379
     47 H          -0.3428    0.5924   -2.8196 H       1  UNL1        0.0624
     48 H          -2.5698    0.4611   -3.9605 H       1  UNL1        0.0624
     49 H          -4.9246    0.2315   -3.8647 H       1  UNL1        0.0625
     50 H          -6.9506   -0.0536   -2.4800 H       1  UNL1        0.0639
     51 H          -8.5626   -0.2864   -1.3466 H       1  UNL1        0.0624
     52 H         -10.4590   -0.5518    0.0881 H       1  UNL1        0.0618
     53 H         -10.1822   -0.6855    2.5646 H       1  UNL1        0.0618
     54 H          -7.9874   -0.5433    3.5204 H       1  UNL1        0.0618
     55 H          -5.9832   -0.2635    2.0339 H       1  UNL1        0.0624
     56 H          -2.3099    0.1237    0.9299 H       1  UNL1        0.0645
     57 H          -2.1476    2.4447    1.9188 H       1  UNL1        0.1438
     58 H          -1.7221    3.0834    0.3006 H       1  UNL1        0.1438
     59 H           2.3566    3.2788    3.4736 H       1  UNL1        0.0845
     60 H           3.4652    1.5107    2.2335 H       1  UNL1        0.0829
     61 H           4.9833    0.5630   -1.0857 H       1  UNL1        0.0275
     62 H           3.5857   -0.4119   -1.8315 H       1  UNL1        0.0275
@<TRIPOS>BOND
     1     1     2    1
     2     2     3    1
     3     2     4    1
     4     4     5    1
     5     5     6    1
     6     6     7    1
     7     7     8    1
     8     8     9   ar
     9     9    10   ar
    10    10    11    1
    11    11    12   ar
    12    12    13   ar
    13    13    14   ar
    14    14    15   ar
    15    15    16   ar
    16    16    17   ar
    17    17    18    1
    18    18    19   ar
    19    19    20   ar
    20    20    21   ar
    21    21    22   ar
    22    22    23   ar
    23    17    24   ar
    24    24    25   ar
    25    25    26   ar
    26    10    27   ar
    27    27    28   ar
    28    28    29    1
    29    28    30   ar
    30    30    31   ar
    31    31    32   ar
    32    32    33   ar
    33     7    34    1
    34    34     5    1
    35    33     8   ar
    36    26    11   ar
    37    33    27   ar
    38    25    14   ar
    39    23    18   ar
    40     1    35    1
    41     1    36    1
    42     1    37    1
    43     3    38    1
    44     3    39    1
    45     3    40    1
    46     4    41    1
    47     4    42    1
    48     5    43    1
    49     6    44    1
    50     6    45    1
    51     7    46    1
    52    12    47    1
    53    13    48    1
    54    15    49    1
    55    16    50    1
    56    19    51    1
    57    20    52    1
    58    21    53    1
    59    22    54    1
    60    23    55    1
    61    26    56    1
    62    29    57    1
    63    29    58    1
    64    31    59    1
    65    32    60    1
    66    34    61    1
    67    34    62    1
