
     RDKit          3D

 28 27  0  0  0  0  0  0  0  0999 V2000
   -3.7529   -1.7155    0.1528 N   0  0  0  0  0  0  0  0  0  0  0  0
   -2.7603   -0.6983    0.4233 C   0  0  1  0  0  0  0  0  0  0  0  0
   -1.3720   -1.1360    0.0105 C   0  0  0  0  0  0  0  0  0  0  0  0
   -0.4119   -0.0136    0.3311 C   0  0  0  0  0  0  0  0  0  0  0  0
    1.0170   -0.3799   -0.0576 C   0  0  0  0  0  0  0  0  0  0  0  0
    1.8788    0.8078    0.3068 C   0  0  0  0  0  0  0  0  0  0  0  0
    3.4090    0.5932   -0.0340 B   0  0  0  0  0  4  0  0  0  0  0  0
    3.9290   -0.6797    0.4505 O   0  0  0  0  0  0  0  0  0  0  0  0
    4.1535    1.6518    0.6681 O   0  0  0  0  0  0  0  0  0  0  0  0
    3.6639    0.7684   -1.4685 O   0  0  0  0  0  0  0  0  0  0  0  0
   -3.0867    0.5624   -0.2805 C   0  0  0  0  0  0  0  0  0  0  0  0
   -3.2413    1.8052   -0.8626 O   0  0  0  0  0  0  0  0  0  0  0  0
   -4.1353    0.5138   -0.9619 O   0  0  0  0  0  0  0  0  0  0  0  0
   -4.4458   -1.6868    0.9346 H   0  0  0  0  0  0  0  0  0  0  0  0
   -3.3498   -2.6692    0.0428 H   0  0  0  0  0  0  0  0  0  0  0  0
   -2.7179   -0.5114    1.5232 H   0  0  0  0  0  0  0  0  0  0  0  0
   -1.0603   -2.0961    0.4156 H   0  0  0  0  0  0  0  0  0  0  0  0
   -1.4173   -1.2461   -1.1048 H   0  0  0  0  0  0  0  0  0  0  0  0
   -0.4595    0.2492    1.4078 H   0  0  0  0  0  0  0  0  0  0  0  0
   -0.6550    0.9008   -0.2374 H   0  0  0  0  0  0  0  0  0  0  0  0
    1.0472   -0.5358   -1.1405 H   0  0  0  0  0  0  0  0  0  0  0  0
    1.3727   -1.3015    0.4310 H   0  0  0  0  0  0  0  0  0  0  0  0
    1.7687    1.0286    1.3674 H   0  0  0  0  0  0  0  0  0  0  0  0
    1.5526    1.6865   -0.2867 H   0  0  0  0  0  0  0  0  0  0  0  0
    4.7360   -0.9472   -0.0586 H   0  0  0  0  0  0  0  0  0  0  0  0
    3.6434    2.4996    0.4653 H   0  0  0  0  0  0  0  0  0  0  0  0
    3.7594   -0.1006   -1.8999 H   0  0  0  0  0  0  0  0  0  0  0  0
   -3.0652    2.6505   -0.3193 H   0  0  0  0  0  0  0  0  0  0  0  0
  1  2  1  0
  2  3  1  0
  3  4  1  0
  4  5  1  0
  5  6  1  0
  6  7  1  0
  7  8  1  0
  7  9  1  0
  7 10  1  0
  2 11  1  0
 11 12  1  0
 11 13  2  0
  1 14  1  0
  1 15  1  0
  2 16  1  1
  3 17  1  0
  3 18  1  0
  4 19  1  0
  4 20  1  0
  5 21  1  0
  5 22  1  0
  6 23  1  0
  6 24  1  0
  8 25  1  0
  9 26  1  0
 10 27  1  0
 12 28  1  0
M  CHG  1   7  -1
M  END
$$$$
