@<TRIPOS>MOLECULE
*****
 38 40 0 0 0
SMALL
GASTEIGER

@<TRIPOS>ATOM
      1 C           6.2762   -0.1241   -0.3841 C.3     1  UNL1        0.0004
      2 N           5.0043   -0.2903   -1.0575 N.pl3   1  UNL1       -0.3360
      3 C           5.0326   -0.6468   -2.4600 C.3     1  UNL1        0.0004
      4 C           3.7659   -0.1136   -0.3806 C.ar    1  UNL1        0.0304
      5 C           3.7100    0.2267    0.9542 C.ar    1  UNL1       -0.0386
      6 C           2.4978    0.3961    1.6042 C.ar    1  UNL1       -0.0335
      7 C           1.2829    0.2277    0.9284 C.ar    1  UNL1        0.0784
      8 N           0.1842    0.4133    1.6431 N.ar    1  UNL1       -0.2456
      9 C          -1.0720    0.3159    1.2454 C.ar    1  UNL1        0.0787
     10 C          -2.1099    0.5508    2.1544 C.ar    1  UNL1       -0.0290
     11 C          -3.4303    0.4532    1.7553 C.ar    1  UNL1        0.0113
     12 C          -3.8133    0.1278    0.4734 C.ar    1  UNL1        0.2033
     13 N          -5.0437    0.0490    0.1488 N.2     1  UNL1       -0.2338
     14 C          -5.4395   -0.2948   -1.2050 C.3     1  UNL1        0.1352
     15 C          -6.0665    0.3092    1.1573 C.3     1  UNL1        0.1352
     16 C          -2.8192   -0.1135   -0.4612 C.ar    1  UNL1        0.0250
     17 C          -1.4878   -0.0286   -0.1113 C.ar    1  UNL1        0.0443
     18 S          -0.1701   -0.3038   -1.1750 S.2     1  UNL1       -0.0849
     19 C           1.3519   -0.1090   -0.3919 C.ar    1  UNL1        0.0399
     20 C           2.5680   -0.2782   -1.0413 C.ar    1  UNL1       -0.0249
     21 H           7.0831    0.0837   -1.1240 H       1  UNL1        0.0428
     22 H           6.2833    0.7372    0.3160 H       1  UNL1        0.0428
     23 H           6.5188   -1.0249    0.2386 H       1  UNL1        0.0428
     24 H           4.2572   -0.0375   -3.0115 H       1  UNL1        0.0428
     25 H           4.8383   -1.7302   -2.5943 H       1  UNL1        0.0428
     26 H           5.9977   -0.3273   -2.9034 H       1  UNL1        0.0428
     27 H           4.6578    0.3606    1.4913 H       1  UNL1        0.0637
     28 H           2.5084    0.6646    2.6579 H       1  UNL1        0.0640
     29 H          -1.8744    0.8107    3.1774 H       1  UNL1        0.0641
     30 H          -4.2541    0.6353    2.4597 H       1  UNL1        0.0684
     31 H          -5.0280    0.4272   -1.9501 H       1  UNL1        0.0988
     32 H          -6.5514   -0.2099   -1.3008 H       1  UNL1        0.0988
     33 H          -5.1263   -1.3449   -1.4512 H       1  UNL1        0.0988
     34 H          -7.0701    0.1954    0.6976 H       1  UNL1        0.0988
     35 H          -5.9265    1.3425    1.4872 H       1  UNL1        0.0988
     36 H          -6.0184   -0.4304    1.9827 H       1  UNL1        0.0988
     37 H          -3.0312   -0.3743   -1.4872 H       1  UNL1        0.0695
     38 H           2.5142   -0.5447   -2.0866 H       1  UNL1        0.0648
@<TRIPOS>UNITY_ATOM_ATTR
13 1
charge 1
@<TRIPOS>BOND
     1     1     2    1
     2     2     3    1
     3     2     4    1
     4     4     5   ar
     5     5     6   ar
     6     6     7   ar
     7     7     8   ar
     8     8     9   ar
     9     9    10   ar
    10    10    11   ar
    11    11    12   ar
    12    12    13    2
    13    13    14    1
    14    13    15    1
    15    12    16   ar
    16    16    17   ar
    17    17    18   ar
    18    18    19   ar
    19    19    20   ar
    20    20     4   ar
    21    19     7   ar
    22    17     9    1
    23     1    21    1
    24     1    22    1
    25     1    23    1
    26     3    24    1
    27     3    25    1
    28     3    26    1
    29     5    27    1
    30     6    28    1
    31    10    29    1
    32    11    30    1
    33    14    31    1
    34    14    32    1
    35    14    33    1
    36    15    34    1
    37    15    35    1
    38    15    36    1
    39    16    37    1
    40    20    38    1
