
     RDKit          3D

 31 34  0  0  0  0  0  0  0  0999 V2000
    1.4397   -3.4522    0.4371 O   0  0  0  0  0  0  0  0  0  0  0  0
    1.6806   -2.2179    0.2499 C   0  0  0  0  0  0  0  0  0  0  0  0
    2.9515   -1.7803    0.1898 N   0  0  0  0  0  0  0  0  0  0  0  0
    3.2523   -0.4810   -0.0071 C   0  0  0  0  0  0  0  0  0  0  0  0
    4.5920   -0.0850   -0.0605 C   0  0  0  0  0  0  0  0  0  0  0  0
    4.8514    1.2547   -0.2637 C   0  0  0  0  0  0  0  0  0  0  0  0
    6.5251    1.7637   -0.3327 Cl  0  0  0  0  0  0  0  0  0  0  0  0
    3.8116    2.1469   -0.4054 C   0  0  0  0  0  0  0  0  0  0  0  0
    2.4810    1.7450   -0.3510 C   0  0  0  0  0  0  0  0  0  0  0  0
    2.2296    0.4208   -0.1501 C   0  0  0  0  0  0  0  0  0  0  0  0
    0.8934    0.0102   -0.0945 C   0  0  0  0  0  0  0  0  0  0  0  0
   -0.2816    0.6123   -0.1926 N   0  0  0  0  0  0  0  0  0  0  0  0
   -1.2597   -0.2955   -0.0590 C   0  0  0  0  0  0  0  0  0  0  0  0
   -2.6938   -0.0466   -0.1045 C   0  0  0  0  0  0  0  0  0  0  0  0
   -3.6188   -1.0652    0.0462 C   0  0  0  0  0  0  0  0  0  0  0  0
   -4.9816   -0.8223    0.0020 C   0  0  0  0  0  0  0  0  0  0  0  0
   -5.4070    0.4726   -0.1979 C   0  0  0  0  0  0  0  0  0  0  0  0
   -4.5049    1.4997   -0.3501 C   0  0  0  0  0  0  0  0  0  0  0  0
   -3.1415    1.2387   -0.3032 C   0  0  0  0  0  0  0  0  0  0  0  0
   -2.0127    2.5506   -0.4977 Cl  0  0  0  0  0  0  0  0  0  0  0  0
   -0.7113   -1.5052    0.1285 N   0  0  0  0  0  0  0  0  0  0  0  0
    0.6185   -1.3246    0.1079 C   0  0  0  0  0  0  0  0  0  0  0  0
    3.7228   -2.4877    0.3018 H   0  0  0  0  0  0  0  0  0  0  0  0
    5.3930   -0.8117    0.0547 H   0  0  0  0  0  0  0  0  0  0  0  0
    4.0438    3.1742   -0.5611 H   0  0  0  0  0  0  0  0  0  0  0  0
    1.6630    2.4255   -0.4593 H   0  0  0  0  0  0  0  0  0  0  0  0
   -3.2947   -2.0791    0.2028 H   0  0  0  0  0  0  0  0  0  0  0  0
   -5.7160   -1.6046    0.1177 H   0  0  0  0  0  0  0  0  0  0  0  0
   -6.4656    0.6760   -0.2345 H   0  0  0  0  0  0  0  0  0  0  0  0
   -4.8458    2.4992   -0.5046 H   0  0  0  0  0  0  0  0  0  0  0  0
   -1.2143   -2.4313    0.2673 H   0  0  0  0  0  0  0  0  0  0  0  0
  1  2  2  0
  2  3  1  0
  3  4  1  0
  4  5  2  0
  5  6  1  0
  6  7  1  0
  6  8  2  0
  8  9  1  0
  9 10  2  0
 10 11  1  0
 11 12  1  0
 12 13  2  0
 13 14  1  0
 14 15  2  0
 15 16  1  0
 16 17  2  0
 17 18  1  0
 18 19  2  0
 19 20  1  0
 13 21  1  0
 21 22  1  0
 22  2  1  0
 10  4  1  0
 22 11  2  0
 19 14  1  0
  3 23  1  0
  5 24  1  0
  8 25  1  0
  9 26  1  0
 15 27  1  0
 16 28  1  0
 17 29  1  0
 18 30  1  0
 21 31  1  0
M  END
$$$$
