@<TRIPOS>MOLECULE
*****
 31 34 0 0 0
SMALL
GASTEIGER

@<TRIPOS>ATOM
      1 O           1.4397   -3.4522    0.4371 O.2     1  UNL1       -0.2656
      2 C           1.6806   -2.2179    0.2499 C.ar    1  UNL1        0.2748
      3 N           2.9515   -1.7803    0.1898 N.ar    1  UNL1       -0.3203
      4 C           3.2523   -0.4810   -0.0071 C.ar    1  UNL1        0.0527
      5 C           4.5920   -0.0850   -0.0605 C.ar    1  UNL1       -0.0193
      6 C           4.8514    1.2547   -0.2637 C.ar    1  UNL1        0.0430
      7 CL          6.5251    1.7637   -0.3327 Cl      1  UNL1       -0.0835
      8 C           3.8116    2.1469   -0.4054 C.ar    1  UNL1       -0.0426
      9 C           2.4810    1.7450   -0.3510 C.ar    1  UNL1       -0.0491
     10 C           2.2296    0.4208   -0.1501 C.ar    1  UNL1        0.0261
     11 C           0.8934    0.0102   -0.0945 C.ar    1  UNL1        0.1039
     12 N          -0.2816    0.6123   -0.1926 N.ar    1  UNL1       -0.2269
     13 C          -1.2597   -0.2955   -0.0590 C.ar    1  UNL1        0.1408
     14 C          -2.6938   -0.0466   -0.1045 C.ar    1  UNL1        0.0356
     15 C          -3.6188   -1.0652    0.0462 C.ar    1  UNL1       -0.0497
     16 C          -4.9816   -0.8223    0.0020 C.ar    1  UNL1       -0.0610
     17 C          -5.4070    0.4726   -0.1979 C.ar    1  UNL1       -0.0603
     18 C          -4.5049    1.4997   -0.3501 C.ar    1  UNL1       -0.0427
     19 C          -3.1415    1.2387   -0.3032 C.ar    1  UNL1        0.0516
     20 CL         -2.0127    2.5506   -0.4977 Cl      1  UNL1       -0.0828
     21 N          -0.7113   -1.5052    0.1285 N.ar    1  UNL1       -0.3336
     22 C           0.6185   -1.3246    0.1079 C.ar    1  UNL1        0.1322
     23 H           3.7228   -2.4877    0.3018 H       1  UNL1        0.1690
     24 H           5.3930   -0.8117    0.0547 H       1  UNL1        0.0653
     25 H           4.0438    3.1742   -0.5611 H       1  UNL1        0.0632
     26 H           1.6630    2.4255   -0.4593 H       1  UNL1        0.0625
     27 H          -3.2947   -2.0791    0.2028 H       1  UNL1        0.0625
     28 H          -5.7160   -1.6046    0.1177 H       1  UNL1        0.0618
     29 H          -6.4656    0.6760   -0.2345 H       1  UNL1        0.0618
     30 H          -4.8458    2.4992   -0.5046 H       1  UNL1        0.0632
     31 H          -1.2143   -2.4313    0.2673 H       1  UNL1        0.1675
@<TRIPOS>BOND
     1     1     2    2
     2     2     3   ar
     3     3     4   ar
     4     4     5   ar
     5     5     6   ar
     6     6     7    1
     7     6     8   ar
     8     8     9   ar
     9     9    10   ar
    10    10    11   ar
    11    11    12   ar
    12    12    13   ar
    13    13    14    1
    14    14    15   ar
    15    15    16   ar
    16    16    17   ar
    17    17    18   ar
    18    18    19   ar
    19    19    20    1
    20    13    21   ar
    21    21    22   ar
    22    22     2   ar
    23    10     4   ar
    24    22    11   ar
    25    19    14   ar
    26     3    23    1
    27     5    24    1
    28     8    25    1
    29     9    26    1
    30    15    27    1
    31    16    28    1
    32    17    29    1
    33    18    30    1
    34    21    31    1
