@<TRIPOS>MOLECULE
*****
 68 72 0 0 0
SMALL
GASTEIGER

@<TRIPOS>ATOM
      1 C           4.1222   -1.4776    1.5766 C.3     1  UNL1        0.0000
      2 C           2.9137   -0.9045    0.8623 C.3     1  UNL1        0.0000
      3 O           2.3934   -1.8427   -0.0375 O.3     1  UNL1        0.0000
      4 P           1.0347   -1.2122   -0.8375 P.3     1  UNL1        0.0000
      5 O           1.5593    0.0813   -1.7948 O.3     1  UNL1        0.0000
      6 O           0.5129   -2.3057   -1.7441 O.2     1  UNL1        0.0000
      7 O          -0.1436   -0.7081    0.2352 O.3     1  UNL1        0.0000
      8 P          -1.1851    0.3687   -0.5510 P.3     1  UNL1        0.0000
      9 O          -1.5686    1.5679    0.5681 O.3     1  UNL1        0.0000
     10 O          -0.4630    0.9276   -1.7424 O.2     1  UNL1        0.0000
     11 O          -2.5312   -0.4875   -1.0667 O.3     1  UNL1        0.0000
     12 C          -3.6780   -0.1905   -0.3810 C.3     1  UNL1        0.0000
     13 C          -4.9027   -0.9542   -0.8355 C.3     1  UNL1        0.0000
     14 O          -5.9952   -0.5896   -0.0927 O.3     1  UNL1        0.0000
     15 C          -7.0531   -0.3980   -0.9777 C.3     1  UNL1        0.0000
     16 C          -8.2213    0.2029   -0.3984 C.ar    1  UNL1        0.0000
     17 N          -8.9504    0.1807    0.5501 N.ar    1  UNL1        0.0000
     18 C         -10.0089    0.9358    0.7622 C.ar    1  UNL1        0.0000
     19 C         -10.5147    1.9954   -0.1707 C.ar    1  UNL1        0.0000
     20 SE         -9.0357    1.7096   -1.6052 Se      1  UNL1        0.0000
     21 C         -10.6702    0.6274    2.0526 C.2     1  UNL1        0.0000
     22 O         -11.7969    1.2430    2.5603 O.2     1  UNL1        0.0000
     23 N         -10.4000   -0.2233    2.9733 N.2     1  UNL1        0.0000
     24 C          -6.3536    0.4026   -2.0548 C.3     1  UNL1        0.0000
     25 O          -7.1290    0.5666   -3.1759 O.3     1  UNL1        0.0000
     26 C          -5.1586   -0.5331   -2.2813 C.3     1  UNL1        0.0000
     27 O          -5.6256   -1.6336   -2.9688 O.3     1  UNL1        0.0000
     28 O           5.0969   -1.8060    0.6808 O.3     1  UNL1        0.0000
     29 C           6.2844   -1.2244    1.0700 C.3     1  UNL1        0.0000
     30 N           7.0590   -0.7889   -0.0773 N.ar    1  UNL1        0.0000
     31 C           7.0708   -1.2213   -1.3511 C.ar    1  UNL1        0.0000
     32 N           7.9672   -0.5088   -2.0816 N.ar    1  UNL1        0.0000
     33 C           8.5459    0.3993   -1.2708 C.ar    1  UNL1        0.0000
     34 C           9.5096    1.3600   -1.4986 C.ar    1  UNL1        0.0000
     35 N          10.1097    1.5606   -2.7788 N.pl3   1  UNL1        0.0000
     36 N           9.8927    2.1404   -0.4490 N.ar    1  UNL1        0.0000
     37 C           9.3215    1.9415    0.7466 C.ar    1  UNL1        0.0000
     38 N           8.3842    1.0074    0.9693 N.ar    1  UNL1        0.0000
     39 C           7.9753    0.2174   -0.0282 C.ar    1  UNL1        0.0000
     40 C           5.9527   -0.0731    1.9789 C.3     1  UNL1        0.0000
     41 O           6.9342   -0.0182    2.9729 O.3     1  UNL1        0.0000
     42 C           4.6395   -0.4990    2.5748 C.3     1  UNL1        0.0000
     43 O           4.8763   -1.0668    3.8341 O.3     1  UNL1        0.0000
     44 H           3.7881   -2.3850    2.1589 H       1  UNL1        0.0000
     45 H           2.1312   -0.7107    1.5996 H       1  UNL1        0.0000
     46 H           3.1897    0.0444    0.3647 H       1  UNL1        0.0000
     47 H           2.1730    0.6668   -1.2941 H       1  UNL1        0.0000
     48 H          -2.0427    2.3333    0.2113 H       1  UNL1        0.0000
     49 H          -3.5036   -0.5050    0.6779 H       1  UNL1        0.0000
     50 H          -3.9410    0.8781   -0.3363 H       1  UNL1        0.0000
     51 H          -4.6855   -2.0316   -0.7417 H       1  UNL1        0.0000
     52 H          -7.3008   -1.3886   -1.4107 H       1  UNL1        0.0000
     53 H         -11.4848    2.5424    0.2380 H       1  UNL1        0.0000
     54 H         -12.6520    0.7912    2.8389 H       1  UNL1        0.0000
     55 H          -9.5651   -0.8332    2.8255 H       1  UNL1        0.0000
     56 H          -5.9518    1.3646   -1.6301 H       1  UNL1        0.0000
     57 H          -6.6794    1.1535   -3.8044 H       1  UNL1        0.0000
     58 H          -4.3074   -0.0187   -2.7339 H       1  UNL1        0.0000
     59 H          -5.0500   -2.4311   -2.8740 H       1  UNL1        0.0000
     60 H           6.8472   -1.9886    1.6580 H       1  UNL1        0.0000
     61 H           6.4424   -2.0251   -1.7095 H       1  UNL1        0.0000
     62 H          10.9591    0.9389   -2.7382 H       1  UNL1        0.0000
     63 H           9.6114    2.2254   -3.4161 H       1  UNL1        0.0000
     64 H           9.6413    2.5738    1.5682 H       1  UNL1        0.0000
     65 H           5.8647    0.8923    1.4714 H       1  UNL1        0.0000
     66 H           6.9238    0.8137    3.4862 H       1  UNL1        0.0000
     67 H           3.9611    0.3836    2.7017 H       1  UNL1        0.0000
     68 H           4.8601   -2.0534    3.7404 H       1  UNL1        0.0000
@<TRIPOS>BOND
     1     1     2    1
     2     2     3    1
     3     3     4    1
     4     4     5    1
     5     4     6    2
     6     4     7    1
     7     7     8    1
     8     8     9    1
     9     8    10    2
    10     8    11    1
    11    11    12    1
    12    12    13    1
    13    13    14    1
    14    14    15    1
    15    15    16    1
    16    16    17   ar
    17    17    18   ar
    18    18    19   ar
    19    19    20   ar
    20    18    21    1
    21    21    22    1
    22    21    23    2
    23    15    24    1
    24    24    25    1
    25    24    26    1
    26    26    27    1
    27     1    28    1
    28    28    29    1
    29    29    30    1
    30    30    31   ar
    31    31    32   ar
    32    32    33   ar
    33    33    34   ar
    34    34    35    1
    35    34    36   ar
    36    36    37   ar
    37    37    38   ar
    38    38    39   ar
    39    29    40    1
    40    40    41    1
    41    40    42    1
    42    42    43    1
    43    42     1    1
    44    26    13    1
    45    39    30   ar
    46    20    16   ar
    47    39    33   ar
    48     1    44    1
    49     2    45    1
    50     2    46    1
    51     5    47    1
    52     9    48    1
    53    12    49    1
    54    12    50    1
    55    13    51    1
    56    15    52    1
    57    19    53    1
    58    22    54    1
    59    23    55    1
    60    24    56    1
    61    25    57    1
    62    26    58    1
    63    27    59    1
    64    29    60    1
    65    31    61    1
    66    35    62    1
    67    35    63    1
    68    37    64    1
    69    40    65    1
    70    41    66    1
    71    42    67    1
    72    43    68    1
