
     RDKit          3D

 68 72  0  0  0  0  0  0  0  0999 V2000
    4.1222   -1.4776    1.5766 C   0  0  1  0  0  0  0  0  0  0  0  0
    2.9137   -0.9045    0.8623 C   0  0  0  0  0  0  0  0  0  0  0  0
    2.3934   -1.8427   -0.0375 O   0  0  0  0  0  0  0  0  0  0  0  0
    1.0347   -1.2122   -0.8375 P   0  0  0  0  0  0  0  0  0  0  0  0
    1.5593    0.0813   -1.7948 O   0  0  0  0  0  0  0  0  0  0  0  0
    0.5129   -2.3057   -1.7441 O   0  0  0  0  0  0  0  0  0  0  0  0
   -0.1436   -0.7081    0.2352 O   0  0  0  0  0  0  0  0  0  0  0  0
   -1.1851    0.3687   -0.5510 P   0  0  0  0  0  0  0  0  0  0  0  0
   -1.5686    1.5679    0.5681 O   0  0  0  0  0  0  0  0  0  0  0  0
   -0.4630    0.9276   -1.7424 O   0  0  0  0  0  0  0  0  0  0  0  0
   -2.5312   -0.4875   -1.0667 O   0  0  0  0  0  0  0  0  0  0  0  0
   -3.6780   -0.1905   -0.3810 C   0  0  0  0  0  0  0  0  0  0  0  0
   -4.9027   -0.9542   -0.8355 C   0  0  1  0  0  0  0  0  0  0  0  0
   -5.9952   -0.5896   -0.0927 O   0  0  0  0  0  0  0  0  0  0  0  0
   -7.0531   -0.3980   -0.9777 C   0  0  1  0  0  0  0  0  0  0  0  0
   -8.2213    0.2029   -0.3984 C   0  0  0  0  0  0  0  0  0  0  0  0
   -8.9504    0.1807    0.5501 N   0  0  0  0  0  0  0  0  0  0  0  0
  -10.0089    0.9358    0.7622 C   0  0  0  0  0  0  0  0  0  0  0  0
  -10.5147    1.9954   -0.1707 C   0  0  0  0  0  0  0  0  0  0  0  0
   -9.0357    1.7096   -1.6052 Se  0  0  0  0  0  2  0  0  0  0  0  0
  -10.6702    0.6274    2.0526 C   0  0  0  0  0  0  0  0  0  0  0  0
  -11.7969    1.2430    2.5603 O   0  0  0  0  0  0  0  0  0  0  0  0
  -10.4000   -0.2233    2.9733 N   0  0  0  0  0  0  0  0  0  0  0  0
   -6.3536    0.4026   -2.0548 C   0  0  2  0  0  0  0  0  0  0  0  0
   -7.1290    0.5666   -3.1759 O   0  0  0  0  0  0  0  0  0  0  0  0
   -5.1586   -0.5331   -2.2813 C   0  0  2  0  0  0  0  0  0  0  0  0
   -5.6256   -1.6336   -2.9688 O   0  0  0  0  0  0  0  0  0  0  0  0
    5.0969   -1.8060    0.6808 O   0  0  0  0  0  0  0  0  0  0  0  0
    6.2844   -1.2244    1.0700 C   0  0  1  0  0  0  0  0  0  0  0  0
    7.0590   -0.7889   -0.0773 N   0  0  0  0  0  0  0  0  0  0  0  0
    7.0708   -1.2213   -1.3511 C   0  0  0  0  0  0  0  0  0  0  0  0
    7.9672   -0.5088   -2.0816 N   0  0  0  0  0  0  0  0  0  0  0  0
    8.5459    0.3993   -1.2708 C   0  0  0  0  0  0  0  0  0  0  0  0
    9.5096    1.3600   -1.4986 C   0  0  0  0  0  0  0  0  0  0  0  0
   10.1097    1.5606   -2.7788 N   0  0  0  0  0  0  0  0  0  0  0  0
    9.8927    2.1404   -0.4490 N   0  0  0  0  0  0  0  0  0  0  0  0
    9.3215    1.9415    0.7466 C   0  0  0  0  0  0  0  0  0  0  0  0
    8.3842    1.0074    0.9693 N   0  0  0  0  0  0  0  0  0  0  0  0
    7.9753    0.2174   -0.0282 C   0  0  0  0  0  0  0  0  0  0  0  0
    5.9527   -0.0731    1.9789 C   0  0  2  0  0  0  0  0  0  0  0  0
    6.9342   -0.0182    2.9729 O   0  0  0  0  0  0  0  0  0  0  0  0
    4.6395   -0.4990    2.5748 C   0  0  2  0  0  0  0  0  0  0  0  0
    4.8763   -1.0668    3.8341 O   0  0  0  0  0  0  0  0  0  0  0  0
    3.7881   -2.3850    2.1589 H   0  0  0  0  0  0  0  0  0  0  0  0
    2.1312   -0.7107    1.5996 H   0  0  0  0  0  0  0  0  0  0  0  0
    3.1897    0.0444    0.3647 H   0  0  0  0  0  0  0  0  0  0  0  0
    2.1730    0.6668   -1.2941 H   0  0  0  0  0  0  0  0  0  0  0  0
   -2.0427    2.3333    0.2113 H   0  0  0  0  0  0  0  0  0  0  0  0
   -3.5036   -0.5050    0.6779 H   0  0  0  0  0  0  0  0  0  0  0  0
   -3.9410    0.8781   -0.3363 H   0  0  0  0  0  0  0  0  0  0  0  0
   -4.6855   -2.0316   -0.7417 H   0  0  0  0  0  0  0  0  0  0  0  0
   -7.3008   -1.3886   -1.4107 H   0  0  0  0  0  0  0  0  0  0  0  0
  -11.4848    2.5424    0.2380 H   0  0  0  0  0  0  0  0  0  0  0  0
  -12.6520    0.7912    2.8389 H   0  0  0  0  0  0  0  0  0  0  0  0
   -9.5651   -0.8332    2.8255 H   0  0  0  0  0  0  0  0  0  0  0  0
   -5.9518    1.3646   -1.6301 H   0  0  0  0  0  0  0  0  0  0  0  0
   -6.6794    1.1535   -3.8044 H   0  0  0  0  0  0  0  0  0  0  0  0
   -4.3074   -0.0187   -2.7339 H   0  0  0  0  0  0  0  0  0  0  0  0
   -5.0500   -2.4311   -2.8740 H   0  0  0  0  0  0  0  0  0  0  0  0
    6.8472   -1.9886    1.6580 H   0  0  0  0  0  0  0  0  0  0  0  0
    6.4424   -2.0251   -1.7095 H   0  0  0  0  0  0  0  0  0  0  0  0
   10.9591    0.9389   -2.7382 H   0  0  0  0  0  0  0  0  0  0  0  0
    9.6114    2.2254   -3.4161 H   0  0  0  0  0  0  0  0  0  0  0  0
    9.6413    2.5738    1.5682 H   0  0  0  0  0  0  0  0  0  0  0  0
    5.8647    0.8923    1.4714 H   0  0  0  0  0  0  0  0  0  0  0  0
    6.9238    0.8137    3.4862 H   0  0  0  0  0  0  0  0  0  0  0  0
    3.9611    0.3836    2.7017 H   0  0  0  0  0  0  0  0  0  0  0  0
    4.8601   -2.0534    3.7404 H   0  0  0  0  0  0  0  0  0  0  0  0
  1  2  1  0
  2  3  1  0
  3  4  1  0
  4  5  1  0
  4  6  2  0
  4  7  1  0
  7  8  1  0
  8  9  1  0
  8 10  2  0
  8 11  1  0
 11 12  1  0
 12 13  1  0
 13 14  1  0
 14 15  1  0
 15 16  1  0
 16 17  2  0
 17 18  1  0
 18 19  2  0
 19 20  1  0
 18 21  1  0
 21 22  1  0
 21 23  2  3
 15 24  1  0
 24 25  1  0
 24 26  1  0
 26 27  1  0
  1 28  1  0
 28 29  1  0
 29 30  1  0
 30 31  1  0
 31 32  2  0
 32 33  1  0
 33 34  2  0
 34 35  1  0
 34 36  1  0
 36 37  2  0
 37 38  1  0
 38 39  2  0
 29 40  1  0
 40 41  1  0
 40 42  1  0
 42 43  1  0
 42  1  1  0
 26 13  1  0
 39 30  1  0
 20 16  1  0
 39 33  1  0
  1 44  1  1
  2 45  1  0
  2 46  1  0
  5 47  1  0
  9 48  1  0
 12 49  1  0
 12 50  1  0
 13 51  1  6
 15 52  1  6
 19 53  1  0
 22 54  1  0
 23 55  1  0
 24 56  1  1
 25 57  1  0
 26 58  1  6
 27 59  1  0
 29 60  1  1
 31 61  1  0
 35 62  1  0
 35 63  1  0
 37 64  1  0
 40 65  1  6
 41 66  1  0
 42 67  1  1
 43 68  1  0
M  END
$$$$
