@<TRIPOS>MOLECULE
*****
 49 51 0 0 0
SMALL
GASTEIGER

@<TRIPOS>ATOM
      1 C          -5.8093    2.4677    0.8227 C.3     1  UNL1        0.0790
      2 O          -5.6428    1.1974    0.2427 O.3     1  UNL1       -0.4913
      3 C          -4.3695    0.7180   -0.0151 C.ar    1  UNL1        0.1658
      4 C          -3.2134    1.4647    0.2811 C.ar    1  UNL1       -0.0068
      5 C          -1.9669    0.9751    0.0197 C.ar    1  UNL1        0.0090
      6 C          -0.7223    1.7238    0.3118 C.ar    1  UNL1        0.0901
      7 C          -0.7502    2.9769    0.8694 C.ar    1  UNL1        0.0559
      8 N           0.3827    3.6563    1.1386 N.ar    1  UNL1       -0.2338
      9 C           1.5495    3.0706    0.8449 C.ar    1  UNL1        0.1574
     10 N           2.8363    3.4859    0.9908 N.ar    1  UNL1       -0.3438
     11 C           3.6734    2.5376    0.5455 C.ar    1  UNL1        0.0178
     12 C           2.9570    1.4555    0.0858 C.ar    1  UNL1        0.0815
     13 C           3.4356    0.2028   -0.4795 C.2     1  UNL1        0.2478
     14 O           2.8074   -0.2956   -1.4326 O.2     1  UNL1       -0.2701
     15 N           4.5875   -0.4640    0.0190 N.am    1  UNL1       -0.3089
     16 C           5.1053   -1.7023   -0.4998 C.3     1  UNL1        0.0178
     17 C           6.5636   -1.4819   -0.8626 C.3     1  UNL1       -0.0469
     18 C           5.0785   -2.7228    0.6372 C.3     1  UNL1       -0.0469
     19 C           1.6108    1.8056    0.2796 C.ar    1  UNL1        0.1201
     20 N           0.4737    1.1505    0.0211 N.ar    1  UNL1       -0.2413
     21 C          -1.8790   -0.2870   -0.5480 C.ar    1  UNL1       -0.0068
     22 C          -3.0109   -1.0246   -0.8404 C.ar    1  UNL1        0.1658
     23 O          -2.9592   -2.2883   -1.4104 O.3     1  UNL1       -0.4913
     24 C          -1.8160   -2.9966   -1.7672 C.3     1  UNL1        0.0790
     25 C          -4.2794   -0.5363   -0.5802 C.ar    1  UNL1        0.2035
     26 O          -5.4119   -1.2921   -0.8795 O.3     1  UNL1       -0.4885
     27 C          -6.0279   -2.1943    0.0024 C.3     1  UNL1        0.0791
     28 H          -5.6439    3.2379    0.0095 H       1  UNL1        0.0660
     29 H          -6.8814    2.6127    1.1406 H       1  UNL1        0.0660
     30 H          -5.1141    2.6928    1.6485 H       1  UNL1        0.0660
     31 H          -3.3374    2.4426    0.7258 H       1  UNL1        0.0662
     32 H          -1.7257    3.4499    1.1093 H       1  UNL1        0.0852
     33 H           3.0724    4.4139    1.3941 H       1  UNL1        0.1668
     34 H           4.7710    2.5701    0.5246 H       1  UNL1        0.0816
     35 H           5.1136   -0.0387    0.8227 H       1  UNL1        0.1493
     36 H           4.5007   -2.0909   -1.3435 H       1  UNL1        0.0493
     37 H           6.8673   -0.4296   -0.7077 H       1  UNL1        0.0247
     38 H           6.7714   -1.7189   -1.9222 H       1  UNL1        0.0247
     39 H           7.2441   -2.1346   -0.2482 H       1  UNL1        0.0247
     40 H           5.0169   -2.1768    1.5958 H       1  UNL1        0.0247
     41 H           6.0057   -3.3564    0.6065 H       1  UNL1        0.0247
     42 H           4.1652   -3.3319    0.5394 H       1  UNL1        0.0247
     43 H          -0.9040   -0.6639   -0.7484 H       1  UNL1        0.0662
     44 H          -0.8706   -2.4305   -1.7168 H       1  UNL1        0.0660
     45 H          -1.6994   -3.8466   -1.0302 H       1  UNL1        0.0660
     46 H          -1.8638   -3.4182   -2.7968 H       1  UNL1        0.0660
     47 H          -6.8704   -1.7416    0.5826 H       1  UNL1        0.0660
     48 H          -6.5049   -3.0511   -0.5552 H       1  UNL1        0.0660
     49 H          -5.3154   -2.5929    0.7676 H       1  UNL1        0.0660
@<TRIPOS>BOND
     1     1     2    1
     2     2     3    1
     3     3     4   ar
     4     4     5   ar
     5     5     6    1
     6     6     7   ar
     7     7     8   ar
     8     8     9   ar
     9     9    10   ar
    10    10    11   ar
    11    11    12   ar
    12    12    13    1
    13    13    14    2
    14    13    15   am
    15    15    16    1
    16    16    17    1
    17    16    18    1
    18    12    19   ar
    19    19    20   ar
    20     5    21   ar
    21    21    22   ar
    22    22    23    1
    23    23    24    1
    24    22    25   ar
    25    25    26    1
    26    26    27    1
    27    25     3   ar
    28    20     6   ar
    29    19     9   ar
    30     1    28    1
    31     1    29    1
    32     1    30    1
    33     4    31    1
    34     7    32    1
    35    10    33    1
    36    11    34    1
    37    15    35    1
    38    16    36    1
    39    17    37    1
    40    17    38    1
    41    17    39    1
    42    18    40    1
    43    18    41    1
    44    18    42    1
    45    21    43    1
    46    24    44    1
    47    24    45    1
    48    24    46    1
    49    27    47    1
    50    27    48    1
    51    27    49    1
