
     RDKit          3D

 45 48  0  0  0  0  0  0  0  0999 V2000
   -3.3633   -3.0611   -0.5743 C   0  0  0  0  0  0  0  0  0  0  0  0
   -3.0065   -1.6689   -0.0763 C   0  0  1  0  0  0  0  0  0  0  0  0
   -2.7674   -0.8050   -1.1441 O   0  0  0  0  0  0  0  0  0  0  0  0
   -1.6190   -0.1589   -1.4989 C   0  0  0  0  0  0  0  0  0  0  0  0
   -1.5760    0.6795   -2.6218 C   0  0  0  0  0  0  0  0  0  0  0  0
   -0.4166    1.3302   -2.9777 C   0  0  0  0  0  0  0  0  0  0  0  0
    0.7461    1.1901   -2.2543 C   0  0  0  0  0  0  0  0  0  0  0  0
    1.8880    1.8189   -2.5882 N   0  0  0  0  0  0  0  0  0  0  0  0
    2.9830    1.6324   -1.8324 C   0  0  0  0  0  0  0  0  0  0  0  0
    3.0233    0.8300   -0.7204 C   0  0  0  0  0  0  0  0  0  0  0  0
    4.2891    0.6685    0.0797 C   0  0  0  0  0  0  0  0  0  0  0  0
    5.5957    0.5745   -0.6945 C   0  0  0  0  0  0  0  0  0  0  0  0
    5.2478    1.8174    0.1067 C   0  0  0  0  0  0  0  0  0  0  0  0
    6.0902    1.9927    1.3135 C   0  0  0  0  0  0  0  0  0  0  0  0
    6.5232    0.8564    2.0413 N   0  0  0  0  0  0  0  0  0  0  0  0
    6.4133    3.1362    1.6819 O   0  0  0  0  0  0  0  0  0  0  0  0
    1.8660    0.1755   -0.3585 C   0  0  0  0  0  0  0  0  0  0  0  0
    0.7299    0.3732   -1.1484 C   0  0  0  0  0  0  0  0  0  0  0  0
   -0.4567   -0.2869   -0.7921 C   0  0  0  0  0  0  0  0  0  0  0  0
   -4.0504   -1.1519    0.8508 C   0  0  0  0  0  0  0  0  0  0  0  0
   -3.9430   -1.4120    2.1997 C   0  0  0  0  0  0  0  0  0  0  0  0
   -2.5893   -2.3464    2.8402 Cl  0  0  0  0  0  0  0  0  0  0  0  0
   -4.8920   -0.9485    3.0891 C   0  0  0  0  0  0  0  0  0  0  0  0
   -5.9784   -0.2083    2.6436 C   0  0  0  0  0  0  0  0  0  0  0  0
   -6.0921    0.0574    1.2830 C   0  0  0  0  0  0  0  0  0  0  0  0
   -7.1155    0.7671    0.7763 F   0  0  0  0  0  0  0  0  0  0  0  0
   -5.1315   -0.4166    0.4164 C   0  0  0  0  0  0  0  0  0  0  0  0
   -5.2565   -0.0929   -1.3001 Cl  0  0  0  0  0  0  0  0  0  0  0  0
   -2.8322   -3.2828   -1.5213 H   0  0  0  0  0  0  0  0  0  0  0  0
   -3.0334   -3.8218    0.1633 H   0  0  0  0  0  0  0  0  0  0  0  0
   -4.4662   -3.1642   -0.6573 H   0  0  0  0  0  0  0  0  0  0  0  0
   -2.0921   -1.8059    0.5267 H   0  0  0  0  0  0  0  0  0  0  0  0
   -2.4888    0.7774   -3.1733 H   0  0  0  0  0  0  0  0  0  0  0  0
   -0.3800    1.9825   -3.8499 H   0  0  0  0  0  0  0  0  0  0  0  0
    3.9107    2.1480   -2.1102 H   0  0  0  0  0  0  0  0  0  0  0  0
    4.2233    0.0075    0.9475 H   0  0  0  0  0  0  0  0  0  0  0  0
    6.3918   -0.0875   -0.3436 H   0  0  0  0  0  0  0  0  0  0  0  0
    5.5068    0.6720   -1.8131 H   0  0  0  0  0  0  0  0  0  0  0  0
    4.9276    2.7275   -0.4378 H   0  0  0  0  0  0  0  0  0  0  0  0
    5.8631    0.5240    2.8027 H   0  0  0  0  0  0  0  0  0  0  0  0
    7.4166    0.3552    1.8727 H   0  0  0  0  0  0  0  0  0  0  0  0
    1.8431   -0.4658    0.5050 H   0  0  0  0  0  0  0  0  0  0  0  0
   -0.3971   -0.9153    0.0917 H   0  0  0  0  0  0  0  0  0  0  0  0
   -4.8053   -1.1537    4.1454 H   0  0  0  0  0  0  0  0  0  0  0  0
   -6.7292    0.1602    3.3341 H   0  0  0  0  0  0  0  0  0  0  0  0
  1  2  1  0
  2  3  1  0
  3  4  1  0
  4  5  2  0
  5  6  1  0
  6  7  2  0
  7  8  1  0
  8  9  2  0
  9 10  1  0
 10 11  1  0
 11 12  1  0
 12 13  1  0
 13 14  1  0
 14 15  1  0
 14 16  2  0
 10 17  2  0
 17 18  1  0
 18 19  2  0
  2 20  1  0
 20 21  2  0
 21 22  1  0
 21 23  1  0
 23 24  2  0
 24 25  1  0
 25 26  1  0
 25 27  2  0
 27 28  1  0
 19  4  1  0
 27 20  1  0
 18  7  1  0
 13 11  1  0
  1 29  1  0
  1 30  1  0
  1 31  1  0
  2 32  1  1
  5 33  1  0
  6 34  1  0
  9 35  1  0
 11 36  1  0
 12 37  1  0
 12 38  1  0
 13 39  1  0
 15 40  1  0
 15 41  1  0
 17 42  1  0
 19 43  1  0
 23 44  1  0
 24 45  1  0
M  END
$$$$
