@<TRIPOS>MOLECULE
*****
 45 48 0 0 0
SMALL
GASTEIGER

@<TRIPOS>ATOM
      1 C          -3.3633   -3.0611   -0.5743 C.3     1  UNL1       -0.0234
      2 C          -3.0065   -1.6689   -0.0763 C.3     1  UNL1        0.1251
      3 O          -2.7674   -0.8050   -1.1441 O.3     1  UNL1       -0.4844
      4 C          -1.6190   -0.1589   -1.4989 C.ar    1  UNL1        0.1221
      5 C          -1.5760    0.6795   -2.6218 C.ar    1  UNL1       -0.0179
      6 C          -0.4166    1.3302   -2.9777 C.ar    1  UNL1       -0.0323
      7 C           0.7461    1.1901   -2.2543 C.ar    1  UNL1        0.0712
      8 N           1.8880    1.8189   -2.5882 N.ar    1  UNL1       -0.2547
      9 C           2.9830    1.6324   -1.8324 C.ar    1  UNL1        0.0317
     10 C           3.0233    0.8300   -0.7204 C.ar    1  UNL1       -0.0248
     11 C           4.2891    0.6685    0.0797 C.3     1  UNL1       -0.0026
     12 C           5.5957    0.5745   -0.6945 C.3     1  UNL1       -0.0338
     13 C           5.2478    1.8174    0.1067 C.3     1  UNL1        0.0428
     14 C           6.0902    1.9927    1.3135 C.2     1  UNL1        0.2142
     15 N           6.5232    0.8564    2.0413 N.am    1  UNL1       -0.3291
     16 O           6.4133    3.1362    1.6819 O.2     1  UNL1       -0.2757
     17 C           1.8660    0.1755   -0.3585 C.ar    1  UNL1       -0.0475
     18 C           0.7299    0.3732   -1.1484 C.ar    1  UNL1        0.0041
     19 C          -0.4567   -0.2869   -0.7921 C.ar    1  UNL1       -0.0107
     20 C          -4.0504   -1.1519    0.8508 C.ar    1  UNL1        0.0317
     21 C          -3.9430   -1.4120    2.1997 C.ar    1  UNL1        0.0492
     22 CL         -2.5893   -2.3464    2.8402 Cl      1  UNL1       -0.0831
     23 C          -4.8920   -0.9485    3.0891 C.ar    1  UNL1       -0.0402
     24 C          -5.9784   -0.2083    2.6436 C.ar    1  UNL1       -0.0236
     25 C          -6.0921    0.0574    1.2830 C.ar    1  UNL1        0.1421
     26 F          -7.1155    0.7671    0.7763 F       1  UNL1       -0.2039
     27 C          -5.1315   -0.4166    0.4164 C.ar    1  UNL1        0.0841
     28 CL         -5.2565   -0.0929   -1.3001 Cl      1  UNL1       -0.0801
     29 H          -2.8322   -3.2828   -1.5213 H       1  UNL1        0.0269
     30 H          -3.0334   -3.8218    0.1633 H       1  UNL1        0.0269
     31 H          -4.4662   -3.1642   -0.6573 H       1  UNL1        0.0269
     32 H          -2.0921   -1.8059    0.5267 H       1  UNL1        0.0782
     33 H          -2.4888    0.7774   -3.1733 H       1  UNL1        0.0655
     34 H          -0.3800    1.9825   -3.8499 H       1  UNL1        0.0640
     35 H           3.9107    2.1480   -2.1102 H       1  UNL1        0.0832
     36 H           4.2233    0.0075    0.9475 H       1  UNL1        0.0357
     37 H           6.3918   -0.0875   -0.3436 H       1  UNL1        0.0279
     38 H           5.5068    0.6720   -1.8131 H       1  UNL1        0.0279
     39 H           4.9276    2.7275   -0.4378 H       1  UNL1        0.0400
     40 H           5.8631    0.5240    2.8027 H       1  UNL1        0.1449
     41 H           7.4166    0.3552    1.8727 H       1  UNL1        0.1449
     42 H           1.8431   -0.4658    0.5050 H       1  UNL1        0.0627
     43 H          -0.3971   -0.9153    0.0917 H       1  UNL1        0.0661
     44 H          -4.8053   -1.1537    4.1454 H       1  UNL1        0.0633
     45 H          -6.7292    0.1602    3.3341 H       1  UNL1        0.0647
@<TRIPOS>BOND
     1     1     2    1
     2     2     3    1
     3     3     4    1
     4     4     5   ar
     5     5     6   ar
     6     6     7   ar
     7     7     8   ar
     8     8     9   ar
     9     9    10   ar
    10    10    11    1
    11    11    12    1
    12    12    13    1
    13    13    14    1
    14    14    15   am
    15    14    16    2
    16    10    17   ar
    17    17    18   ar
    18    18    19   ar
    19     2    20    1
    20    20    21   ar
    21    21    22    1
    22    21    23   ar
    23    23    24   ar
    24    24    25   ar
    25    25    26    1
    26    25    27   ar
    27    27    28    1
    28    19     4   ar
    29    27    20   ar
    30    18     7   ar
    31    13    11    1
    32     1    29    1
    33     1    30    1
    34     1    31    1
    35     2    32    1
    36     5    33    1
    37     6    34    1
    38     9    35    1
    39    11    36    1
    40    12    37    1
    41    12    38    1
    42    13    39    1
    43    15    40    1
    44    15    41    1
    45    17    42    1
    46    19    43    1
    47    23    44    1
    48    24    45    1
