
     RDKit          3D

 36 38  0  0  0  0  0  0  0  0999 V2000
    0.5934   -3.6705   -0.6113 C   0  0  0  0  0  0  0  0  0  0  0  0
   -0.6386   -2.8755   -0.5743 C   0  0  0  0  0  0  0  0  0  0  0  0
   -0.7421   -1.4976   -0.4009 C   0  0  0  0  0  0  0  0  0  0  0  0
   -2.0904   -1.2020   -0.4353 C   0  0  0  0  0  0  0  0  0  0  0  0
   -2.7470   -2.3842   -0.6243 N   0  0  0  0  0  0  0  0  0  0  0  0
   -1.8778   -3.3170   -0.6985 O   0  0  0  0  0  0  0  0  0  0  0  0
   -2.7131    0.1054   -0.3002 C   0  0  0  0  0  0  0  0  0  0  0  0
   -3.4876    0.1878    0.8583 C   0  0  0  0  0  0  0  0  0  0  0  0
   -4.1681    1.3533    1.1710 C   0  0  0  0  0  0  0  0  0  0  0  0
   -4.1104    2.4649    0.3637 C   0  0  0  0  0  0  0  0  0  0  0  0
   -3.3364    2.3634   -0.7819 C   0  0  0  0  0  0  0  0  0  0  0  0
   -2.6540    1.2193   -1.1116 C   0  0  0  0  0  0  0  0  0  0  0  0
    0.3706   -0.6281   -0.2284 C   0  0  0  0  0  0  0  0  0  0  0  0
    0.8525    0.3919   -1.0222 C   0  0  0  0  0  0  0  0  0  0  0  0
    1.9410    1.1590   -0.7314 C   0  0  0  0  0  0  0  0  0  0  0  0
    2.5889    0.8678    0.4558 C   0  0  0  0  0  0  0  0  0  0  0  0
    2.1814   -0.1298    1.3101 C   0  0  0  0  0  0  0  0  0  0  0  0
    1.0565   -0.8910    0.9663 C   0  0  0  0  0  0  0  0  0  0  0  0
    3.9949    1.8370    0.8617 S   0  0  0  0  0  0  0  0  0  0  0  0
    5.4256    1.1212    0.2313 N   0  0  0  0  0  0  0  0  0  0  0  0
    3.8746    3.2065    0.2064 O   0  0  0  0  0  0  0  0  0  0  0  0
    4.1231    2.0837    2.3252 O   0  0  0  0  0  0  0  0  0  0  0  0
    0.7917   -4.2704    0.2941 H   0  0  0  0  0  0  0  0  0  0  0  0
    0.4380   -4.4590   -1.4105 H   0  0  0  0  0  0  0  0  0  0  0  0
    1.4736   -3.1097   -0.9770 H   0  0  0  0  0  0  0  0  0  0  0  0
   -3.6306   -0.6106    1.5977 H   0  0  0  0  0  0  0  0  0  0  0  0
   -4.7745    1.4537    2.0558 H   0  0  0  0  0  0  0  0  0  0  0  0
   -4.6344    3.3916    0.5847 H   0  0  0  0  0  0  0  0  0  0  0  0
   -3.2207    3.1753   -1.4872 H   0  0  0  0  0  0  0  0  0  0  0  0
   -2.0347    1.0567   -1.9808 H   0  0  0  0  0  0  0  0  0  0  0  0
    0.2974    0.5414   -1.9066 H   0  0  0  0  0  0  0  0  0  0  0  0
    2.2654    1.9377   -1.3923 H   0  0  0  0  0  0  0  0  0  0  0  0
    2.7393   -0.2980    2.2198 H   0  0  0  0  0  0  0  0  0  0  0  0
    0.8135   -1.6492    1.6966 H   0  0  0  0  0  0  0  0  0  0  0  0
    5.2416    0.6300   -0.6888 H   0  0  0  0  0  0  0  0  0  0  0  0
    5.7977    0.4449    0.9519 H   0  0  0  0  0  0  0  0  0  0  0  0
  1  2  1  0
  2  3  2  0
  3  4  1  0
  4  5  2  0
  5  6  1  0
  4  7  1  0
  7  8  2  0
  8  9  1  0
  9 10  2  0
 10 11  1  0
 11 12  2  0
  3 13  1  0
 13 14  2  0
 14 15  1  0
 15 16  2  0
 16 17  1  0
 17 18  2  0
 16 19  1  0
 19 20  1  0
 19 21  2  0
 19 22  2  0
  6  2  1  0
 12  7  1  0
 18 13  1  0
  1 23  1  0
  1 24  1  0
  1 25  1  0
  8 26  1  0
  9 27  1  0
 10 28  1  0
 11 29  1  0
 12 30  1  0
 14 31  1  0
 15 32  1  0
 17 33  1  0
 18 34  1  0
 20 35  1  0
 20 36  1  0
M  END
$$$$
