@<TRIPOS>MOLECULE
*****
 36 38 0 0 0
SMALL
GASTEIGER

@<TRIPOS>ATOM
      1 C           0.5934   -3.6705   -0.6113 C.3     1  UNL1       -0.0031
      2 C          -0.6386   -2.8755   -0.5743 C.ar    1  UNL1        0.1425
      3 C          -0.7421   -1.4976   -0.4009 C.ar    1  UNL1        0.0516
      4 C          -2.0904   -1.2020   -0.4353 C.ar    1  UNL1        0.1213
      5 N          -2.7470   -2.3842   -0.6243 N.ar    1  UNL1       -0.0774
      6 O          -1.8778   -3.3170   -0.6985 O.2     1  UNL1       -0.3587
      7 C          -2.7131    0.1054   -0.3002 C.ar    1  UNL1        0.0043
      8 C          -3.4876    0.1878    0.8583 C.ar    1  UNL1       -0.0524
      9 C          -4.1681    1.3533    1.1710 C.ar    1  UNL1       -0.0611
     10 C          -4.1104    2.4649    0.3637 C.ar    1  UNL1       -0.0617
     11 C          -3.3364    2.3634   -0.7819 C.ar    1  UNL1       -0.0611
     12 C          -2.6540    1.2193   -1.1116 C.ar    1  UNL1       -0.0524
     13 C           0.3706   -0.6281   -0.2284 C.ar    1  UNL1       -0.0123
     14 C           0.8525    0.3919   -1.0222 C.ar    1  UNL1       -0.0520
     15 C           1.9410    1.1590   -0.7314 C.ar    1  UNL1       -0.0348
     16 C           2.5889    0.8678    0.4558 C.ar    1  UNL1        0.1050
     17 C           2.1814   -0.1298    1.3101 C.ar    1  UNL1       -0.0348
     18 C           1.0565   -0.8910    0.9663 C.ar    1  UNL1       -0.0520
     19 S           3.9949    1.8370    0.8617 S.O2    1  UNL1        0.0559
     20 N           5.4256    1.1212    0.2313 N.3     1  UNL1       -0.2035
     21 O           3.8746    3.2065    0.2064 O.2     1  UNL1       -0.1533
     22 O           4.1231    2.0837    2.3252 O.2     1  UNL1       -0.1533
     23 H           0.7917   -4.2704    0.2941 H       1  UNL1        0.0309
     24 H           0.4380   -4.4590   -1.4105 H       1  UNL1        0.0309
     25 H           1.4736   -3.1097   -0.9770 H       1  UNL1        0.0309
     26 H          -3.6306   -0.6106    1.5977 H       1  UNL1        0.0624
     27 H          -4.7745    1.4537    2.0558 H       1  UNL1        0.0618
     28 H          -4.6344    3.3916    0.5847 H       1  UNL1        0.0618
     29 H          -3.2207    3.1753   -1.4872 H       1  UNL1        0.0618
     30 H          -2.0347    1.0567   -1.9808 H       1  UNL1        0.0624
     31 H           0.2974    0.5414   -1.9066 H       1  UNL1        0.0624
     32 H           2.2654    1.9377   -1.3923 H       1  UNL1        0.0637
     33 H           2.7393   -0.2980    2.2198 H       1  UNL1        0.0637
     34 H           0.8135   -1.6492    1.6966 H       1  UNL1        0.0624
     35 H           5.2416    0.6300   -0.6888 H       1  UNL1        0.1442
     36 H           5.7977    0.4449    0.9519 H       1  UNL1        0.1442
@<TRIPOS>BOND
     1     1     2    1
     2     2     3   ar
     3     3     4   ar
     4     4     5   ar
     5     5     6   ar
     6     4     7    1
     7     7     8   ar
     8     8     9   ar
     9     9    10   ar
    10    10    11   ar
    11    11    12   ar
    12     3    13    1
    13    13    14   ar
    14    14    15   ar
    15    15    16   ar
    16    16    17   ar
    17    17    18   ar
    18    16    19    1
    19    19    20    1
    20    19    21    2
    21    19    22    2
    22     6     2   ar
    23    12     7   ar
    24    18    13   ar
    25     1    23    1
    26     1    24    1
    27     1    25    1
    28     8    26    1
    29     9    27    1
    30    10    28    1
    31    11    29    1
    32    12    30    1
    33    14    31    1
    34    15    32    1
    35    17    33    1
    36    18    34    1
    37    20    35    1
    38    20    36    1
