@<TRIPOS>MOLECULE
*****
 38 40 0 0 0
SMALL
GASTEIGER

@<TRIPOS>ATOM
      1 O          -3.3156   -3.4587   -2.2332 O.2     1  UNL1       -0.2510
      2 C          -3.1277   -3.6997   -1.0329 C.2     1  UNL1        0.3064
      3 O          -3.8698   -4.6879   -0.4131 O.3     1  UNL1       -0.4806
      4 C          -2.0970   -2.9035   -0.3012 C.3     1  UNL1        0.0627
      5 C          -1.4412   -1.9011   -1.2139 C.3     1  UNL1        0.0334
      6 N          -0.4394   -1.1137   -0.5332 N.ar    1  UNL1       -0.3458
      7 C           0.8687   -1.3350   -0.3759 C.ar    1  UNL1        0.0106
      8 C           1.4597   -0.3250    0.3437 C.ar    1  UNL1       -0.0025
      9 C           2.8899   -0.2068    0.7210 C.3     1  UNL1        0.0511
     10 N           3.6306    0.7244   -0.0732 N.ar    1  UNL1       -0.3324
     11 C           3.8404    2.0363    0.1145 C.ar    1  UNL1        0.0244
     12 C           4.6300    2.5019   -0.9400 C.ar    1  UNL1        0.0454
     13 N           4.8828    1.4761   -1.7402 N.ar    1  UNL1       -0.2441
     14 C           4.2783    0.3904   -1.2198 C.ar    1  UNL1        0.0962
     15 C           0.4573    0.5700    0.6470 C.ar    1  UNL1        0.0048
     16 C           0.4017    1.7630    1.3336 C.ar    1  UNL1       -0.0517
     17 C          -0.7744    2.4623    1.4861 C.ar    1  UNL1       -0.0494
     18 C          -1.9413    1.9618    0.9380 C.ar    1  UNL1        0.0568
     19 C          -3.2231    2.6818    1.0797 C.3     1  UNL1        0.4175
     20 F          -3.0813    3.7363    1.9626 F       1  UNL1       -0.1659
     21 F          -4.2260    1.8746    1.5904 F       1  UNL1       -0.1659
     22 F          -3.6322    3.2378   -0.1346 F       1  UNL1       -0.1659
     23 C          -1.8654    0.7716    0.2576 C.ar    1  UNL1       -0.0260
     24 C          -0.7163    0.0511    0.0868 C.ar    1  UNL1        0.0499
     25 H          -4.7211   -5.0876   -0.7979 H       1  UNL1        0.2951
     26 H          -1.3284   -3.6284    0.0308 H       1  UNL1        0.0395
     27 H          -2.5661   -2.4681    0.5745 H       1  UNL1        0.0395
     28 H          -0.9920   -2.4179   -2.0855 H       1  UNL1        0.0497
     29 H          -2.2618   -1.2615   -1.6241 H       1  UNL1        0.0497
     30 H           1.3837   -2.1914   -0.7634 H       1  UNL1        0.0812
     31 H           3.3896   -1.2194    0.7226 H       1  UNL1        0.0542
     32 H           2.9939    0.1301    1.7935 H       1  UNL1        0.0542
     33 H           3.4770    2.6321    0.9205 H       1  UNL1        0.0825
     34 H           4.9816    3.5193   -1.0899 H       1  UNL1        0.0845
     35 H           4.3231   -0.5936   -1.6774 H       1  UNL1        0.1029
     36 H           1.2938    2.1813    1.7751 H       1  UNL1        0.0624
     37 H          -0.7831    3.4081    2.0377 H       1  UNL1        0.0623
     38 H          -2.7792    0.3889   -0.1662 H       1  UNL1        0.0644
@<TRIPOS>BOND
     1     1     2    2
     2     2     3    1
     3     2     4    1
     4     4     5    1
     5     5     6    1
     6     6     7   ar
     7     7     8   ar
     8     8     9    1
     9     9    10    1
    10    10    11   ar
    11    11    12   ar
    12    12    13   ar
    13    13    14   ar
    14     8    15   ar
    15    15    16   ar
    16    16    17   ar
    17    17    18   ar
    18    18    19    1
    19    19    20    1
    20    19    21    1
    21    19    22    1
    22    18    23   ar
    23    23    24   ar
    24    24     6   ar
    25    14    10   ar
    26    24    15   ar
    27     3    25    1
    28     4    26    1
    29     4    27    1
    30     5    28    1
    31     5    29    1
    32     7    30    1
    33     9    31    1
    34     9    32    1
    35    11    33    1
    36    12    34    1
    37    14    35    1
    38    16    36    1
    39    17    37    1
    40    23    38    1
