@<TRIPOS>MOLECULE
*****
 36 38 0 0 0
SMALL
GASTEIGER

@<TRIPOS>ATOM
      1 C          -5.9889    1.6085   -1.5448 C.3     1  UNL1        0.0788
      2 O          -4.5680    1.4922   -1.5287 O.3     1  UNL1       -0.4951
      3 C          -4.0167    0.7110   -0.5096 C.ar    1  UNL1        0.1210
      4 C          -4.8153    0.0870    0.4299 C.ar    1  UNL1       -0.0165
      5 C          -4.1919   -0.6654    1.4021 C.ar    1  UNL1       -0.0160
      6 C          -2.8178   -0.7863    1.4292 C.ar    1  UNL1        0.1277
      7 O          -2.2916   -1.5584    2.4384 O.3     1  UNL1       -0.5061
      8 C          -1.9952   -0.1873    0.5217 C.ar    1  UNL1        0.0621
      9 C          -2.6472    0.5580   -0.4378 C.ar    1  UNL1       -0.0058
     10 C          -0.5468   -0.2932    0.5207 C.ar    1  UNL1        0.1429
     11 N           0.2662    0.2900   -0.3642 N.ar    1  UNL1       -0.2276
     12 C           1.5560    0.0098   -0.1092 C.ar    1  UNL1        0.0903
     13 C           1.5599   -0.8023    1.0079 C.ar    1  UNL1        0.0665
     14 N           0.2707   -0.9553    1.3488 N.ar    1  UNL1       -0.3378
     15 C           2.7633   -1.2583    1.5134 C.ar    1  UNL1       -0.0354
     16 C           3.9683   -0.9022    0.9013 C.ar    1  UNL1       -0.0450
     17 C           3.8984   -0.0884   -0.2114 C.ar    1  UNL1        0.0629
     18 C           2.7321    0.3792   -0.7367 C.ar    1  UNL1       -0.0195
     19 C           5.1982    0.2394   -0.7941 C.2     1  UNL1        0.2662
     20 N           6.3539   -0.5907   -0.7569 N.pl3   1  UNL1       -0.2497
     21 N           5.3754    1.3621   -1.4073 N.2     1  UNL1       -0.2884
     22 H          -6.3507    2.1322   -0.6401 H       1  UNL1        0.0660
     23 H          -6.4551    0.5911   -1.5695 H       1  UNL1        0.0660
     24 H          -6.3126    2.1889   -2.4392 H       1  UNL1        0.0660
     25 H          -5.8711    0.2120    0.3649 H       1  UNL1        0.0655
     26 H          -4.8172   -1.1513    2.1339 H       1  UNL1        0.0655
     27 H          -2.3220   -2.5739    2.4621 H       1  UNL1        0.2922
     28 H          -2.0556    1.0703   -1.2027 H       1  UNL1        0.0662
     29 H           0.0095   -1.5262    2.1609 H       1  UNL1        0.1674
     30 H           2.7698   -1.8858    2.3760 H       1  UNL1        0.0639
     31 H           4.9188   -1.2719    1.3138 H       1  UNL1        0.0627
     32 H           2.7160    1.0199   -1.6165 H       1  UNL1        0.0648
     33 H           6.6945   -1.0472    0.1294 H       1  UNL1        0.2883
     34 H           6.9703   -0.8329   -1.5650 H       1  UNL1        0.2883
     35 H           4.6700    2.1371   -1.5629 H       1  UNL1        0.3009
     36 H           5.3724    2.2881   -1.8648 H       1  UNL1        0.3009
@<TRIPOS>UNITY_ATOM_ATTR
21 1
charge 1
@<TRIPOS>BOND
     1     1     2    1
     2     2     3    1
     3     3     4   ar
     4     4     5   ar
     5     5     6   ar
     6     6     7    1
     7     6     8   ar
     8     8     9   ar
     9     8    10    1
    10    10    11   ar
    11    11    12   ar
    12    12    13   ar
    13    13    14   ar
    14    13    15   ar
    15    15    16   ar
    16    16    17   ar
    17    17    18   ar
    18    17    19    1
    19    19    20    1
    20    19    21    2
    21     9     3   ar
    22    14    10   ar
    23    18    12   ar
    24     1    22    1
    25     1    23    1
    26     1    24    1
    27     4    25    1
    28     5    26    1
    29     7    27    1
    30     9    28    1
    31    14    29    1
    32    15    30    1
    33    16    31    1
    34    18    32    1
    35    20    33    1
    36    20    34    1
    37    21    35    1
    38    21    36    1
