
     RDKit          3D

 56 57  0  0  0  0  0  0  0  0999 V2000
   -0.1514    2.7012    0.2497 C   0  0  0  0  0  0  0  0  0  0  0  0
   -0.4118    1.5534   -0.6164 N   0  0  0  0  0  0  0  0  0  0  0  0
    0.3005    0.4261   -0.0714 C   0  0  0  0  0  0  0  0  0  0  0  0
    1.7877    0.7482   -0.2686 C   0  0  0  0  0  0  0  0  0  0  0  0
    2.5200   -0.3205    0.2472 O   0  0  0  0  0  0  0  0  0  0  0  0
    3.9114   -0.2436    0.1714 C   0  0  0  0  0  0  0  0  0  0  0  0
    4.4664    0.8967   -0.4169 C   0  0  0  0  0  0  0  0  0  0  0  0
    5.8522    1.0502   -0.5310 C   0  0  0  0  0  0  0  0  0  0  0  0
    6.7103    0.0830   -0.0669 C   0  0  0  0  0  0  0  0  0  0  0  0
    8.1147    0.2502   -0.1866 N   0  0  0  0  0  0  0  0  0  0  0  0
    9.2696   -0.9222   -0.7117 S   0  0  0  0  0  0  0  0  0  0  0  0
    9.2989   -2.3461    0.3693 C   0  0  0  0  0  0  0  0  0  0  0  0
   10.6127   -0.2674   -0.7629 O   0  0  0  0  0  0  0  0  0  0  0  0
    8.9378   -1.4345   -2.0943 O   0  0  0  0  0  0  0  0  0  0  0  0
    6.1499   -1.0310    0.5084 C   0  0  0  0  0  0  0  0  0  0  0  0
    4.7839   -1.2144    0.6366 C   0  0  0  0  0  0  0  0  0  0  0  0
   -1.8162    1.2871   -0.7187 C   0  0  0  0  0  0  0  0  0  0  0  0
   -2.3746    0.7979    0.5746 C   0  0  0  0  0  0  0  0  0  0  0  0
   -3.8380    0.5548    0.3715 C   0  0  0  0  0  0  0  0  0  0  0  0
   -4.7086    1.5945    0.6188 C   0  0  0  0  0  0  0  0  0  0  0  0
   -6.0499    1.3497    0.4239 C   0  0  0  0  0  0  0  0  0  0  0  0
   -6.5926    0.1327   -0.0038 C   0  0  0  0  0  0  0  0  0  0  0  0
   -8.0008    0.0471   -0.1491 N   0  0  0  0  0  0  0  0  0  0  0  0
   -9.0967   -1.1817    0.3735 S   0  0  0  0  0  0  0  0  0  0  0  0
   -8.6421   -2.6869   -0.4569 C   0  0  0  0  0  0  0  0  0  0  0  0
   -8.8547   -1.3335    1.8632 O   0  0  0  0  0  0  0  0  0  0  0  0
  -10.4896   -0.7708    0.0817 O   0  0  0  0  0  0  0  0  0  0  0  0
   -5.6731   -0.8688   -0.2347 C   0  0  0  0  0  0  0  0  0  0  0  0
   -4.3193   -0.6737   -0.0539 C   0  0  0  0  0  0  0  0  0  0  0  0
    0.7154    3.2473   -0.1693 H   0  0  0  0  0  0  0  0  0  0  0  0
   -1.0297    3.3788    0.2918 H   0  0  0  0  0  0  0  0  0  0  0  0
    0.1063    2.3375    1.2457 H   0  0  0  0  0  0  0  0  0  0  0  0
    0.0452   -0.5277   -0.5362 H   0  0  0  0  0  0  0  0  0  0  0  0
    0.1313    0.3038    1.0256 H   0  0  0  0  0  0  0  0  0  0  0  0
    1.9474    1.6853    0.3209 H   0  0  0  0  0  0  0  0  0  0  0  0
    1.9580    0.9670   -1.3410 H   0  0  0  0  0  0  0  0  0  0  0  0
    3.8470    1.7182   -0.8148 H   0  0  0  0  0  0  0  0  0  0  0  0
    6.2203    1.9554   -0.9962 H   0  0  0  0  0  0  0  0  0  0  0  0
    8.4151    1.2247    0.0939 H   0  0  0  0  0  0  0  0  0  0  0  0
   10.3387   -2.7626    0.3775 H   0  0  0  0  0  0  0  0  0  0  0  0
    9.0725   -2.0864    1.4192 H   0  0  0  0  0  0  0  0  0  0  0  0
    8.6052   -3.1421    0.0326 H   0  0  0  0  0  0  0  0  0  0  0  0
    6.7471   -1.8248    0.8926 H   0  0  0  0  0  0  0  0  0  0  0  0
    4.3109   -2.0920    1.0900 H   0  0  0  0  0  0  0  0  0  0  0  0
   -1.9382    0.4802   -1.4741 H   0  0  0  0  0  0  0  0  0  0  0  0
   -2.3323    2.1914   -1.0893 H   0  0  0  0  0  0  0  0  0  0  0  0
   -2.2748    1.5844    1.3265 H   0  0  0  0  0  0  0  0  0  0  0  0
   -1.8511   -0.1373    0.8606 H   0  0  0  0  0  0  0  0  0  0  0  0
   -4.3743    2.5693    0.9527 H   0  0  0  0  0  0  0  0  0  0  0  0
   -6.7282    2.1725    0.6203 H   0  0  0  0  0  0  0  0  0  0  0  0
   -8.3893    0.8757   -0.6573 H   0  0  0  0  0  0  0  0  0  0  0  0
   -9.5159   -3.3673   -0.5689 H   0  0  0  0  0  0  0  0  0  0  0  0
   -8.1867   -2.4238   -1.4198 H   0  0  0  0  0  0  0  0  0  0  0  0
   -7.8656   -3.1645    0.1768 H   0  0  0  0  0  0  0  0  0  0  0  0
   -6.0430   -1.8073   -0.5606 H   0  0  0  0  0  0  0  0  0  0  0  0
   -3.6278   -1.4843   -0.2455 H   0  0  0  0  0  0  0  0  0  0  0  0
  1  2  1  0
  2  3  1  0
  3  4  1  0
  4  5  1  0
  5  6  1  0
  6  7  2  0
  7  8  1  0
  8  9  2  0
  9 10  1  0
 10 11  1  0
 11 12  1  0
 11 13  2  0
 11 14  2  0
  9 15  1  0
 15 16  2  0
  2 17  1  0
 17 18  1  0
 18 19  1  0
 19 20  2  0
 20 21  1  0
 21 22  2  0
 22 23  1  0
 23 24  1  0
 24 25  1  0
 24 26  2  0
 24 27  2  0
 22 28  1  0
 28 29  2  0
 16  6  1  0
 29 19  1  0
  1 30  1  0
  1 31  1  0
  1 32  1  0
  3 33  1  0
  3 34  1  0
  4 35  1  0
  4 36  1  0
  7 37  1  0
  8 38  1  0
 10 39  1  0
 12 40  1  0
 12 41  1  0
 12 42  1  0
 15 43  1  0
 16 44  1  0
 17 45  1  0
 17 46  1  0
 18 47  1  0
 18 48  1  0
 20 49  1  0
 21 50  1  0
 23 51  1  0
 25 52  1  0
 25 53  1  0
 25 54  1  0
 28 55  1  0
 29 56  1  0
M  END
$$$$
