@<TRIPOS>MOLECULE
*****
 56 57 0 0 0
SMALL
GASTEIGER

@<TRIPOS>ATOM
      1 C          -0.1514    2.7012    0.2497 C.3     1  UNL1       -0.0126
      2 N          -0.4118    1.5534   -0.6164 N.3     1  UNL1       -0.3018
      3 C           0.3005    0.4261   -0.0714 C.3     1  UNL1        0.0328
      4 C           1.7877    0.7482   -0.2686 C.3     1  UNL1        0.1022
      5 O           2.5200   -0.3205    0.2472 O.3     1  UNL1       -0.4907
      6 C           3.9114   -0.2436    0.1714 C.ar    1  UNL1        0.1207
      7 C           4.4664    0.8967   -0.4169 C.ar    1  UNL1       -0.0182
      8 C           5.8522    1.0502   -0.5310 C.ar    1  UNL1       -0.0359
      9 C           6.7103    0.0830   -0.0669 C.ar    1  UNL1        0.0479
     10 N           8.1147    0.2502   -0.1866 N.pl3   1  UNL1       -0.2209
     11 S           9.2696   -0.9222   -0.7117 S.O2    1  UNL1        0.0403
     12 C           9.2989   -2.3461    0.3693 C.3     1  UNL1        0.0736
     13 O          10.6127   -0.2674   -0.7629 O.2     1  UNL1       -0.1555
     14 O           8.9378   -1.4345   -2.0943 O.2     1  UNL1       -0.1555
     15 C           6.1499   -1.0310    0.5084 C.ar    1  UNL1       -0.0359
     16 C           4.7839   -1.2144    0.6366 C.ar    1  UNL1       -0.0182
     17 C          -1.8162    1.2871   -0.7187 C.3     1  UNL1        0.0027
     18 C          -2.3746    0.7979    0.5746 C.3     1  UNL1       -0.0149
     19 C          -3.8380    0.5548    0.3715 C.ar    1  UNL1       -0.0460
     20 C          -4.7086    1.5945    0.6188 C.ar    1  UNL1       -0.0567
     21 C          -6.0499    1.3497    0.4239 C.ar    1  UNL1       -0.0391
     22 C          -6.5926    0.1327   -0.0038 C.ar    1  UNL1        0.0477
     23 N          -8.0008    0.0471   -0.1491 N.pl3   1  UNL1       -0.2209
     24 S          -9.0967   -1.1817    0.3735 S.O2    1  UNL1        0.0403
     25 C          -8.6421   -2.6869   -0.4569 C.3     1  UNL1        0.0736
     26 O          -8.8547   -1.3335    1.8632 O.2     1  UNL1       -0.1555
     27 O         -10.4896   -0.7708    0.0817 O.2     1  UNL1       -0.1555
     28 C          -5.6731   -0.8688   -0.2347 C.ar    1  UNL1       -0.0391
     29 C          -4.3193   -0.6737   -0.0539 C.ar    1  UNL1       -0.0567
     30 H           0.7154    3.2473   -0.1693 H       1  UNL1        0.0391
     31 H          -1.0297    3.3788    0.2918 H       1  UNL1        0.0391
     32 H           0.1063    2.3375    1.2457 H       1  UNL1        0.0391
     33 H           0.0452   -0.5277   -0.5362 H       1  UNL1        0.0460
     34 H           0.1313    0.3038    1.0256 H       1  UNL1        0.0460
     35 H           1.9474    1.6853    0.3209 H       1  UNL1        0.0709
     36 H           1.9580    0.9670   -1.3410 H       1  UNL1        0.0709
     37 H           3.8470    1.7182   -0.8148 H       1  UNL1        0.0655
     38 H           6.2203    1.9554   -0.9962 H       1  UNL1        0.0638
     39 H           8.4151    1.2247    0.0939 H       1  UNL1        0.1733
     40 H          10.3387   -2.7626    0.3775 H       1  UNL1        0.0482
     41 H           9.0725   -2.0864    1.4192 H       1  UNL1        0.0482
     42 H           8.6052   -3.1421    0.0326 H       1  UNL1        0.0482
     43 H           6.7471   -1.8248    0.8926 H       1  UNL1        0.0638
     44 H           4.3109   -2.0920    1.0900 H       1  UNL1        0.0655
     45 H          -1.9382    0.4802   -1.4741 H       1  UNL1        0.0430
     46 H          -2.3323    2.1914   -1.0893 H       1  UNL1        0.0430
     47 H          -2.2748    1.5844    1.3265 H       1  UNL1        0.0326
     48 H          -1.8511   -0.1373    0.8606 H       1  UNL1        0.0326
     49 H          -4.3743    2.5693    0.9527 H       1  UNL1        0.0621
     50 H          -6.7282    2.1725    0.6203 H       1  UNL1        0.0636
     51 H          -8.3893    0.8757   -0.6573 H       1  UNL1        0.1733
     52 H          -9.5159   -3.3673   -0.5689 H       1  UNL1        0.0482
     53 H          -8.1867   -2.4238   -1.4198 H       1  UNL1        0.0482
     54 H          -7.8656   -3.1645    0.1768 H       1  UNL1        0.0482
     55 H          -6.0430   -1.8073   -0.5606 H       1  UNL1        0.0636
     56 H          -3.6278   -1.4843   -0.2455 H       1  UNL1        0.0621
@<TRIPOS>BOND
     1     1     2    1
     2     2     3    1
     3     3     4    1
     4     4     5    1
     5     5     6    1
     6     6     7   ar
     7     7     8   ar
     8     8     9   ar
     9     9    10    1
    10    10    11    1
    11    11    12    1
    12    11    13    2
    13    11    14    2
    14     9    15   ar
    15    15    16   ar
    16     2    17    1
    17    17    18    1
    18    18    19    1
    19    19    20   ar
    20    20    21   ar
    21    21    22   ar
    22    22    23    1
    23    23    24    1
    24    24    25    1
    25    24    26    2
    26    24    27    2
    27    22    28   ar
    28    28    29   ar
    29    16     6   ar
    30    29    19   ar
    31     1    30    1
    32     1    31    1
    33     1    32    1
    34     3    33    1
    35     3    34    1
    36     4    35    1
    37     4    36    1
    38     7    37    1
    39     8    38    1
    40    10    39    1
    41    12    40    1
    42    12    41    1
    43    12    42    1
    44    15    43    1
    45    16    44    1
    46    17    45    1
    47    17    46    1
    48    18    47    1
    49    18    48    1
    50    20    49    1
    51    21    50    1
    52    23    51    1
    53    25    52    1
    54    25    53    1
    55    25    54    1
    56    28    55    1
    57    29    56    1
