@<TRIPOS>MOLECULE
*****
 54 56 0 0 0
SMALL
GASTEIGER

@<TRIPOS>ATOM
      1 C           0.6448   -0.0735   -0.3819 C.3     1  UNL1        0.1255
      2 C          -0.1092    0.3721    0.8535 C.3     1  UNL1        0.0436
      3 N          -0.8322   -0.7618    1.3977 N.am    1  UNL1       -0.2641
      4 C           0.1515   -1.6623    1.9691 C.3     1  UNL1        0.0323
      5 C           1.2987   -1.8572    1.0154 C.3     1  UNL1        0.0373
      6 N           1.0050   -1.4577   -0.3411 N.3     1  UNL1       -0.1616
      7 S           2.4597   -1.6731   -1.2491 S.O2    1  UNL1        0.0616
      8 O           2.8625   -3.1160   -1.1480 O.2     1  UNL1       -0.1528
      9 O           2.2660   -1.3430   -2.7077 O.2     1  UNL1       -0.1528
     10 C           3.7687   -0.6932   -0.6781 C.ar    1  UNL1        0.1057
     11 C           4.0512    0.5847   -1.1202 C.ar    1  UNL1       -0.0319
     12 C           5.1263    1.3060   -0.6070 C.ar    1  UNL1       -0.0181
     13 C           5.9185    0.7171    0.3651 C.ar    1  UNL1        0.1202
     14 O           6.9987    1.3941    0.9060 O.3     1  UNL1       -0.4951
     15 C           7.2718    2.6949    0.4442 C.3     1  UNL1        0.0788
     16 C           5.6825   -0.5547    0.8427 C.ar    1  UNL1       -0.0181
     17 C           4.6019   -1.2240    0.2972 C.ar    1  UNL1       -0.0319
     18 C          -2.1916   -1.1694    1.4949 C.2     1  UNL1        0.4033
     19 O          -2.6529   -2.2352    2.0258 O.2     1  UNL1       -0.2262
     20 O          -3.2567   -0.4312    1.0032 O.3     1  UNL1       -0.4455
     21 C          -4.6084   -0.8967    1.1322 C.3     1  UNL1        0.1191
     22 C          -5.5625    0.0467    0.5403 C.ar    1  UNL1       -0.0103
     23 C          -6.1673    1.0865    1.2055 C.ar    1  UNL1       -0.0554
     24 C          -7.0625    1.9724    0.6524 C.ar    1  UNL1       -0.0614
     25 C          -7.3899    1.8139   -0.6860 C.ar    1  UNL1       -0.0617
     26 C          -6.7986    0.7714   -1.3973 C.ar    1  UNL1       -0.0614
     27 C          -5.9035   -0.0994   -0.8085 C.ar    1  UNL1       -0.0554
     28 C          -0.2623    0.2147   -1.5477 C.2     1  UNL1        0.2559
     29 O          -0.5360    1.4622   -1.5148 O.2     1  UNL1       -0.2719
     30 N          -0.7974   -0.6188   -2.5682 N.am    1  UNL1       -0.1961
     31 O          -1.5703    0.1571   -3.3858 O.3     1  UNL1       -0.2951
     32 H           1.5401    0.5617   -0.4431 H       1  UNL1        0.0592
     33 H          -0.9025    1.1270    0.5864 H       1  UNL1        0.0486
     34 H           0.5196    0.8394    1.6114 H       1  UNL1        0.0486
     35 H          -0.2745   -2.6242    2.3028 H       1  UNL1        0.0479
     36 H           0.5852   -1.0942    2.8436 H       1  UNL1        0.0479
     37 H           2.2261   -1.3252    1.3115 H       1  UNL1        0.0460
     38 H           1.5834   -2.9492    0.9737 H       1  UNL1        0.0460
     39 H           3.4116    1.0081   -1.8774 H       1  UNL1        0.0638
     40 H           5.3183    2.2982   -0.9729 H       1  UNL1        0.0655
     41 H           6.4826    3.3784    0.7594 H       1  UNL1        0.0660
     42 H           8.2557    3.0163    0.8482 H       1  UNL1        0.0660
     43 H           7.3474    2.6683   -0.6636 H       1  UNL1        0.0660
     44 H           6.2924   -1.0058    1.5896 H       1  UNL1        0.0655
     45 H           4.4157   -2.2226    0.6714 H       1  UNL1        0.0638
     46 H          -4.8132   -1.1891    2.1720 H       1  UNL1        0.0749
     47 H          -4.6224   -1.8507    0.5329 H       1  UNL1        0.0749
     48 H          -5.9004    1.2025    2.2653 H       1  UNL1        0.0621
     49 H          -7.5081    2.7790    1.2377 H       1  UNL1        0.0618
     50 H          -8.0866    2.4734   -1.1873 H       1  UNL1        0.0618
     51 H          -6.9958    0.5770   -2.4362 H       1  UNL1        0.0618
     52 H          -5.4364   -0.9205   -1.3649 H       1  UNL1        0.0621
     53 H          -0.4566   -1.6003   -2.4197 H       1  UNL1        0.1822
     54 H          -1.3878   -0.0362   -4.3448 H       1  UNL1        0.2414
@<TRIPOS>BOND
     1     1     2    1
     2     2     3    1
     3     3     4    1
     4     4     5    1
     5     5     6    1
     6     6     7    1
     7     7     8    2
     8     7     9    2
     9     7    10    1
    10    10    11   ar
    11    11    12   ar
    12    12    13   ar
    13    13    14    1
    14    14    15    1
    15    13    16   ar
    16    16    17   ar
    17     3    18   am
    18    18    19    2
    19    18    20    1
    20    20    21    1
    21    21    22    1
    22    22    23   ar
    23    23    24   ar
    24    24    25   ar
    25    25    26   ar
    26    26    27   ar
    27     1    28    1
    28    28    29    2
    29    28    30   am
    30    30    31    1
    31     6     1    1
    32    17    10   ar
    33    27    22   ar
    34     1    32    1
    35     2    33    1
    36     2    34    1
    37     4    35    1
    38     4    36    1
    39     5    37    1
    40     5    38    1
    41    11    39    1
    42    12    40    1
    43    15    41    1
    44    15    42    1
    45    15    43    1
    46    16    44    1
    47    17    45    1
    48    21    46    1
    49    21    47    1
    50    23    48    1
    51    24    49    1
    52    25    50    1
    53    26    51    1
    54    27    52    1
    55    30    53    1
    56    31    54    1
