
     RDKit          3D

 84 89  0  0  0  0  0  0  0  0999 V2000
   -4.1767    2.5325   -1.8078 C   0  0  0  0  0  0  0  0  0  0  0  0
   -3.8927    1.7756   -0.6044 O   0  0  0  0  0  0  0  0  0  0  0  0
   -4.3559    0.4629   -0.6034 C   0  0  0  0  0  0  0  0  0  0  0  0
   -3.4692   -0.4541   -1.1928 C   0  0  0  0  0  0  0  0  0  0  0  0
   -2.1991    0.0167   -1.6783 N   0  0  0  0  0  0  0  0  0  0  0  0
   -1.0506   -0.0136   -0.8557 C   0  0  0  0  0  0  0  0  0  0  0  0
   -1.1813   -0.4859    0.3044 O   0  0  0  0  0  0  0  0  0  0  0  0
    0.2291    0.4440   -1.2349 N   0  0  0  0  0  0  0  0  0  0  0  0
    1.3052    0.3410   -0.3172 C   0  0  0  0  0  0  0  0  0  0  0  0
    1.5533    1.3317    0.5950 C   0  0  0  0  0  0  0  0  0  0  0  0
    2.5865    1.1366    1.4831 C   0  0  0  0  0  0  0  0  0  0  0  0
    3.3695   -0.0233    1.4726 C   0  0  0  0  0  0  0  0  0  0  0  0
    4.3929   -0.1934    2.3761 O   0  0  0  0  0  0  0  0  0  0  0  0
    5.7351   -0.3070    2.0622 C   0  0  0  0  0  0  0  0  0  0  0  0
    6.6755   -0.6917    2.9958 C   0  0  0  0  0  0  0  0  0  0  0  0
    7.9993   -0.7941    2.6547 C   0  0  0  0  0  0  0  0  0  0  0  0
    8.3982   -0.5186    1.3997 N   0  0  0  0  0  0  0  0  0  0  0  0
    7.5115   -0.1361    0.4440 C   0  0  0  0  0  0  0  0  0  0  0  0
    8.0449    0.1331   -0.8573 N   0  0  0  0  0  0  0  0  0  0  0  0
    8.7504    1.3557   -1.0961 C   0  0  0  0  0  0  0  0  0  0  0  0
    8.8652    2.2817   -0.0757 C   0  0  0  0  0  0  0  0  0  0  0  0
    9.5559    3.4528   -0.2878 C   0  0  0  0  0  0  0  0  0  0  0  0
   10.1190    3.6588   -1.5401 C   0  0  0  0  0  0  0  0  0  0  0  0
   10.0102    2.7490   -2.5566 C   0  0  0  0  0  0  0  0  0  0  0  0
    9.3120    1.5751   -2.3289 C   0  0  0  0  0  0  0  0  0  0  0  0
    6.1932   -0.0334    0.7820 C   0  0  0  0  0  0  0  0  0  0  0  0
    3.1024   -1.0214    0.5335 C   0  0  0  0  0  0  0  0  0  0  0  0
    3.8475   -2.1750    0.4973 C   0  0  0  0  0  0  0  0  0  0  0  0
    3.5606   -3.1425   -0.4379 C   0  0  0  0  0  0  0  0  0  0  0  0
    2.5373   -2.9747   -1.3384 C   0  0  0  0  0  0  0  0  0  0  0  0
    1.7965   -1.8162   -1.2912 C   0  0  0  0  0  0  0  0  0  0  0  0
    2.0618   -0.8134   -0.3533 C   0  0  0  0  0  0  0  0  0  0  0  0
   -3.8389   -1.7770   -1.2473 C   0  0  0  0  0  0  0  0  0  0  0  0
   -5.0430   -2.2225   -0.7431 C   0  0  0  0  0  0  0  0  0  0  0  0
   -5.3767   -3.6589   -0.8336 C   0  0  0  0  0  0  0  0  0  0  0  0
   -4.9568   -4.4073    0.4245 C   0  0  0  0  0  0  0  0  0  0  0  0
   -6.8410   -3.8953   -1.0395 C   0  0  0  0  0  0  0  0  0  0  0  0
   -4.6308   -4.2233   -2.0315 C   0  0  0  0  0  0  0  0  0  0  0  0
   -5.8666   -1.2906   -0.1784 C   0  0  0  0  0  0  0  0  0  0  0  0
   -5.5462    0.0719   -0.0922 C   0  0  0  0  0  0  0  0  0  0  0  0
   -6.4866    0.9335    0.5869 C   0  0  0  0  0  0  0  0  0  0  0  0
   -7.5974    0.4312    1.0195 O   0  0  0  0  0  0  0  0  0  0  0  0
   -6.3502    2.3049    0.8532 N   0  0  0  0  0  0  0  0  0  0  0  0
   -7.3647    3.0681    1.5465 C   0  0  0  0  0  0  0  0  0  0  0  0
   -6.8934    4.2561    2.3019 C   0  0  0  0  0  0  0  0  0  0  0  0
   -7.1641    5.0349    1.1666 O   0  0  0  0  0  0  0  0  0  0  0  0
   -8.0371    4.1083    0.6380 C   0  0  0  0  0  0  0  0  0  0  0  0
   -5.1907    2.9402   -1.8023 H   0  0  0  0  0  0  0  0  0  0  0  0
   -3.4374    3.3287   -1.9154 H   0  0  0  0  0  0  0  0  0  0  0  0
   -4.1337    1.8262   -2.6725 H   0  0  0  0  0  0  0  0  0  0  0  0
   -2.1381    0.3754   -2.6403 H   0  0  0  0  0  0  0  0  0  0  0  0
    0.3727    0.8484   -2.1638 H   0  0  0  0  0  0  0  0  0  0  0  0
    0.9303    2.2335    0.5842 H   0  0  0  0  0  0  0  0  0  0  0  0
    2.8269    1.8894    2.2251 H   0  0  0  0  0  0  0  0  0  0  0  0
    6.3669   -0.9135    4.0000 H   0  0  0  0  0  0  0  0  0  0  0  0
    8.7738   -1.0940    3.3561 H   0  0  0  0  0  0  0  0  0  0  0  0
    7.9389   -0.5288   -1.6484 H   0  0  0  0  0  0  0  0  0  0  0  0
    8.4238    2.1155    0.8987 H   0  0  0  0  0  0  0  0  0  0  0  0
    9.6704    4.2110    0.5003 H   0  0  0  0  0  0  0  0  0  0  0  0
   10.6621    4.5924   -1.6777 H   0  0  0  0  0  0  0  0  0  0  0  0
   10.4724    2.9709   -3.5038 H   0  0  0  0  0  0  0  0  0  0  0  0
    9.2214    0.8550   -3.1278 H   0  0  0  0  0  0  0  0  0  0  0  0
    5.4947    0.2718    0.0209 H   0  0  0  0  0  0  0  0  0  0  0  0
    4.6442   -2.3570    1.1857 H   0  0  0  0  0  0  0  0  0  0  0  0
    4.1610   -4.0662   -0.4672 H   0  0  0  0  0  0  0  0  0  0  0  0
    2.3172   -3.7284   -2.0678 H   0  0  0  0  0  0  0  0  0  0  0  0
    0.9783   -1.6126   -1.9677 H   0  0  0  0  0  0  0  0  0  0  0  0
   -3.1420   -2.4585   -1.7049 H   0  0  0  0  0  0  0  0  0  0  0  0
   -3.8687   -4.6214    0.4261 H   0  0  0  0  0  0  0  0  0  0  0  0
   -5.2308   -3.7490    1.2680 H   0  0  0  0  0  0  0  0  0  0  0  0
   -5.5784   -5.3033    0.4835 H   0  0  0  0  0  0  0  0  0  0  0  0
   -7.3658   -3.0692   -1.5785 H   0  0  0  0  0  0  0  0  0  0  0  0
   -7.3787   -4.0985   -0.0721 H   0  0  0  0  0  0  0  0  0  0  0  0
   -6.9596   -4.7914   -1.6790 H   0  0  0  0  0  0  0  0  0  0  0  0
   -4.6143   -3.4314   -2.8187 H   0  0  0  0  0  0  0  0  0  0  0  0
   -3.5718   -4.4765   -1.7430 H   0  0  0  0  0  0  0  0  0  0  0  0
   -5.1361   -5.1489   -2.4245 H   0  0  0  0  0  0  0  0  0  0  0  0
   -6.8229   -1.6477    0.2217 H   0  0  0  0  0  0  0  0  0  0  0  0
   -5.5013    2.8016    0.5695 H   0  0  0  0  0  0  0  0  0  0  0  0
   -8.0978    2.4620    2.0907 H   0  0  0  0  0  0  0  0  0  0  0  0
   -5.8241    4.2807    2.6099 H   0  0  0  0  0  0  0  0  0  0  0  0
   -7.5421    4.5879    3.1483 H   0  0  0  0  0  0  0  0  0  0  0  0
   -7.8165    3.8646   -0.4312 H   0  0  0  0  0  0  0  0  0  0  0  0
   -9.0982    4.2542    0.8505 H   0  0  0  0  0  0  0  0  0  0  0  0
  1  2  1  0
  2  3  1  0
  3  4  2  0
  4  5  1  0
  5  6  1  0
  6  7  2  0
  6  8  1  0
  8  9  1  0
  9 10  2  0
 10 11  1  0
 11 12  2  0
 12 13  1  0
 13 14  1  0
 14 15  2  0
 15 16  1  0
 16 17  2  0
 17 18  1  0
 18 19  1  0
 19 20  1  0
 20 21  2  0
 21 22  1  0
 22 23  2  0
 23 24  1  0
 24 25  2  0
 18 26  2  0
 12 27  1  0
 27 28  2  0
 28 29  1  0
 29 30  2  0
 30 31  1  0
 31 32  2  0
  4 33  1  0
 33 34  2  0
 34 35  1  0
 35 36  1  0
 35 37  1  0
 35 38  1  0
 34 39  1  0
 39 40  2  0
 40 41  1  0
 41 42  2  0
 41 43  1  0
 43 44  1  0
 44 45  1  0
 45 46  1  0
 46 47  1  0
 40  3  1  0
 47 44  1  0
 32  9  1  0
 26 14  1  0
 32 27  1  0
 25 20  1  0
  1 48  1  0
  1 49  1  0
  1 50  1  0
  5 51  1  0
  8 52  1  0
 10 53  1  0
 11 54  1  0
 15 55  1  0
 16 56  1  0
 19 57  1  0
 21 58  1  0
 22 59  1  0
 23 60  1  0
 24 61  1  0
 25 62  1  0
 26 63  1  0
 28 64  1  0
 29 65  1  0
 30 66  1  0
 31 67  1  0
 33 68  1  0
 36 69  1  0
 36 70  1  0
 36 71  1  0
 37 72  1  0
 37 73  1  0
 37 74  1  0
 38 75  1  0
 38 76  1  0
 38 77  1  0
 39 78  1  0
 43 79  1  0
 44 80  1  0
 45 81  1  0
 45 82  1  0
 47 83  1  0
 47 84  1  0
M  END
$$$$
