@<TRIPOS>MOLECULE
*****
 84 89 0 0 0
SMALL
GASTEIGER

@<TRIPOS>ATOM
      1 C          -4.1767    2.5325   -1.8078 C.3     1  UNL1        0.0789
      2 O          -3.8927    1.7756   -0.6044 O.3     1  UNL1       -0.4925
      3 C          -4.3559    0.4629   -0.6034 C.ar    1  UNL1        0.1533
      4 C          -3.4692   -0.4541   -1.1928 C.ar    1  UNL1        0.0778
      5 N          -2.1991    0.0167   -1.6783 N.am    1  UNL1       -0.2661
      6 C          -1.0506   -0.0136   -0.8557 C.2     1  UNL1        0.3082
      7 O          -1.1813   -0.4859    0.3044 O.2     1  UNL1       -0.2521
      8 N           0.2291    0.4440   -1.2349 N.am    1  UNL1       -0.2686
      9 C           1.3052    0.3410   -0.3172 C.ar    1  UNL1        0.0427
     10 C           1.5533    1.3317    0.5950 C.ar    1  UNL1       -0.0364
     11 C           2.5865    1.1366    1.4831 C.ar    1  UNL1       -0.0170
     12 C           3.3695   -0.0233    1.4726 C.ar    1  UNL1        0.1362
     13 O           4.3929   -0.1934    2.3761 O.3     1  UNL1       -0.4553
     14 C           5.7351   -0.3070    2.0622 C.ar    1  UNL1        0.1332
     15 C           6.6755   -0.6917    2.9958 C.ar    1  UNL1       -0.0011
     16 C           7.9993   -0.7941    2.6547 C.ar    1  UNL1        0.0332
     17 N           8.3982   -0.5186    1.3997 N.ar    1  UNL1       -0.2400
     18 C           7.5115   -0.1361    0.4440 C.ar    1  UNL1        0.1263
     19 N           8.0449    0.1331   -0.8573 N.pl3   1  UNL1       -0.2993
     20 C           8.7504    1.3557   -1.0961 C.ar    1  UNL1        0.0324
     21 C           8.8652    2.2817   -0.0757 C.ar    1  UNL1       -0.0405
     22 C           9.5559    3.4528   -0.2878 C.ar    1  UNL1       -0.0600
     23 C          10.1190    3.6588   -1.5401 C.ar    1  UNL1       -0.0616
     24 C          10.0102    2.7490   -2.5566 C.ar    1  UNL1       -0.0600
     25 C           9.3120    1.5751   -2.3289 C.ar    1  UNL1       -0.0405
     26 C           6.1932   -0.0334    0.7820 C.ar    1  UNL1        0.0208
     27 C           3.1024   -1.0214    0.5335 C.ar    1  UNL1        0.0262
     28 C           3.8475   -2.1750    0.4973 C.ar    1  UNL1       -0.0505
     29 C           3.5606   -3.1425   -0.4379 C.ar    1  UNL1       -0.0611
     30 C           2.5373   -2.9747   -1.3384 C.ar    1  UNL1       -0.0611
     31 C           1.7965   -1.8162   -1.2912 C.ar    1  UNL1       -0.0521
     32 C           2.0618   -0.8134   -0.3533 C.ar    1  UNL1        0.0069
     33 C          -3.8389   -1.7770   -1.2473 C.ar    1  UNL1       -0.0331
     34 C          -5.0430   -2.2225   -0.7431 C.ar    1  UNL1       -0.0393
     35 C          -5.3767   -3.6589   -0.8336 C.3     1  UNL1       -0.0126
     36 C          -4.9568   -4.4073    0.4245 C.3     1  UNL1       -0.0560
     37 C          -6.8410   -3.8953   -1.0395 C.3     1  UNL1       -0.0560
     38 C          -4.6308   -4.2233   -2.0315 C.3     1  UNL1       -0.0560
     39 C          -5.8666   -1.2906   -0.1784 C.ar    1  UNL1       -0.0423
     40 C          -5.5462    0.0719   -0.0922 C.ar    1  UNL1        0.0804
     41 C          -6.4866    0.9335    0.5869 C.2     1  UNL1        0.2480
     42 O          -7.5974    0.4312    1.0195 O.2     1  UNL1       -0.2701
     43 N          -6.3502    2.3049    0.8532 N.am    1  UNL1       -0.3040
     44 C          -7.3647    3.0681    1.5465 C.3     1  UNL1        0.0700
     45 C          -6.8934    4.2561    2.3019 C.3     1  UNL1        0.0682
     46 O          -7.1641    5.0349    1.1666 O.3     1  UNL1       -0.3760
     47 C          -8.0371    4.1083    0.6380 C.3     1  UNL1        0.0682
     48 H          -5.1907    2.9402   -1.8023 H       1  UNL1        0.0660
     49 H          -3.4374    3.3287   -1.9154 H       1  UNL1        0.0660
     50 H          -4.1337    1.8262   -2.6725 H       1  UNL1        0.0660
     51 H          -2.1381    0.3754   -2.6403 H       1  UNL1        0.1565
     52 H           0.3727    0.8484   -2.1638 H       1  UNL1        0.1564
     53 H           0.9303    2.2335    0.5842 H       1  UNL1        0.0637
     54 H           2.8269    1.8894    2.2251 H       1  UNL1        0.0655
     55 H           6.3669   -0.9135    4.0000 H       1  UNL1        0.0669
     56 H           8.7738   -1.0940    3.3561 H       1  UNL1        0.0831
     57 H           7.9389   -0.5288   -1.6484 H       1  UNL1        0.1536
     58 H           8.4238    2.1155    0.8987 H       1  UNL1        0.0636
     59 H           9.6704    4.2110    0.5003 H       1  UNL1        0.0618
     60 H          10.6621    4.5924   -1.6777 H       1  UNL1        0.0618
     61 H          10.4724    2.9709   -3.5038 H       1  UNL1        0.0618
     62 H           9.2214    0.8550   -3.1278 H       1  UNL1        0.0636
     63 H           5.4947    0.2718    0.0209 H       1  UNL1        0.0689
     64 H           4.6442   -2.3570    1.1857 H       1  UNL1        0.0625
     65 H           4.1610   -4.0662   -0.4672 H       1  UNL1        0.0618
     66 H           2.3172   -3.7284   -2.0678 H       1  UNL1        0.0618
     67 H           0.9783   -1.6126   -1.9677 H       1  UNL1        0.0624
     68 H          -3.1420   -2.4585   -1.7049 H       1  UNL1        0.0640
     69 H          -3.8687   -4.6214    0.4261 H       1  UNL1        0.0238
     70 H          -5.2308   -3.7490    1.2680 H       1  UNL1        0.0238
     71 H          -5.5784   -5.3033    0.4835 H       1  UNL1        0.0238
     72 H          -7.3658   -3.0692   -1.5785 H       1  UNL1        0.0238
     73 H          -7.3787   -4.0985   -0.0721 H       1  UNL1        0.0238
     74 H          -6.9596   -4.7914   -1.6790 H       1  UNL1        0.0238
     75 H          -4.6143   -3.4314   -2.8187 H       1  UNL1        0.0238
     76 H          -3.5718   -4.4765   -1.7430 H       1  UNL1        0.0238
     77 H          -5.1361   -5.1489   -2.4245 H       1  UNL1        0.0238
     78 H          -6.8229   -1.6477    0.2217 H       1  UNL1        0.0629
     79 H          -5.5013    2.8016    0.5695 H       1  UNL1        0.1495
     80 H          -8.0978    2.4620    2.0907 H       1  UNL1        0.0544
     81 H          -5.8241    4.2807    2.6099 H       1  UNL1        0.0579
     82 H          -7.5421    4.5879    3.1483 H       1  UNL1        0.0579
     83 H          -7.8165    3.8646   -0.4312 H       1  UNL1        0.0579
     84 H          -9.0982    4.2542    0.8505 H       1  UNL1        0.0579
@<TRIPOS>BOND
     1     1     2    1
     2     2     3    1
     3     3     4   ar
     4     4     5    1
     5     5     6   am
     6     6     7    2
     7     6     8   am
     8     8     9    1
     9     9    10   ar
    10    10    11   ar
    11    11    12   ar
    12    12    13    1
    13    13    14    1
    14    14    15   ar
    15    15    16   ar
    16    16    17   ar
    17    17    18   ar
    18    18    19    1
    19    19    20    1
    20    20    21   ar
    21    21    22   ar
    22    22    23   ar
    23    23    24   ar
    24    24    25   ar
    25    18    26   ar
    26    12    27   ar
    27    27    28   ar
    28    28    29   ar
    29    29    30   ar
    30    30    31   ar
    31    31    32   ar
    32     4    33   ar
    33    33    34   ar
    34    34    35    1
    35    35    36    1
    36    35    37    1
    37    35    38    1
    38    34    39   ar
    39    39    40   ar
    40    40    41    1
    41    41    42    2
    42    41    43   am
    43    43    44    1
    44    44    45    1
    45    45    46    1
    46    46    47    1
    47    40     3   ar
    48    47    44    1
    49    32     9   ar
    50    26    14   ar
    51    32    27   ar
    52    25    20   ar
    53     1    48    1
    54     1    49    1
    55     1    50    1
    56     5    51    1
    57     8    52    1
    58    10    53    1
    59    11    54    1
    60    15    55    1
    61    16    56    1
    62    19    57    1
    63    21    58    1
    64    22    59    1
    65    23    60    1
    66    24    61    1
    67    25    62    1
    68    26    63    1
    69    28    64    1
    70    29    65    1
    71    30    66    1
    72    31    67    1
    73    33    68    1
    74    36    69    1
    75    36    70    1
    76    36    71    1
    77    37    72    1
    78    37    73    1
    79    37    74    1
    80    38    75    1
    81    38    76    1
    82    38    77    1
    83    39    78    1
    84    43    79    1
    85    44    80    1
    86    45    81    1
    87    45    82    1
    88    47    83    1
    89    47    84    1
