
     RDKit          3D

 57 62  0  0  0  0  0  0  0  0999 V2000
   -3.2963   -2.8342   -0.2694 C   0  0  0  0  0  0  0  0  0  0  0  0
   -2.3131   -2.3015   -1.2933 C   0  0  0  0  0  0  0  0  0  0  0  0
   -2.8751   -1.1489   -2.0708 C   0  0  0  0  0  0  0  0  0  0  0  0
   -3.2518    0.0209   -1.2424 C   0  0  0  0  0  0  0  0  0  0  0  0
   -4.4950    0.1340   -0.6749 N   0  0  0  0  0  0  0  0  0  0  0  0
   -4.5980    1.2894    0.0009 C   0  0  0  0  0  0  0  0  0  0  0  0
   -5.5963    1.8932    0.7365 C   0  0  0  0  0  0  0  0  0  0  0  0
   -6.9064    1.2238    0.9034 C   0  0  0  0  0  0  0  0  0  0  0  0
   -5.3456    3.1162    1.3035 C   0  0  0  0  0  0  0  0  0  0  0  0
   -4.1027    3.7251    1.1315 C   0  0  0  0  0  0  0  0  0  0  0  0
   -3.1368    3.1339    0.4160 N   0  0  0  0  0  0  0  0  0  0  0  0
   -3.4040    1.9351   -0.1309 C   0  0  0  0  0  0  0  0  0  0  0  0
   -2.5923    1.1325   -0.9019 N   0  0  0  0  0  0  0  0  0  0  0  0
   -1.2592    1.4624   -1.3086 C   0  0  0  0  0  0  0  0  0  0  0  0
   -0.1735    1.0806   -0.4236 C   0  0  0  0  0  0  0  0  0  0  0  0
    0.1296    1.8088    0.7068 C   0  0  0  0  0  0  0  0  0  0  0  0
    1.1824    1.4056    1.4887 C   0  0  0  0  0  0  0  0  0  0  0  0
    1.9502    0.2929    1.1812 C   0  0  0  0  0  0  0  0  0  0  0  0
    1.6489   -0.4347    0.0530 C   0  0  0  0  0  0  0  0  0  0  0  0
    0.5980   -0.0189   -0.7134 C   0  0  0  0  0  0  0  0  0  0  0  0
    2.5721   -1.4879   -0.0123 O   0  0  0  0  0  0  0  0  0  0  0  0
    3.6875   -1.1184    0.8130 C   0  0  0  0  0  0  0  0  0  0  0  0
    4.6999   -0.3781    0.0261 C   0  0  0  0  0  0  0  0  0  0  0  0
    5.2368   -1.0051   -1.0819 C   0  0  0  0  0  0  0  0  0  0  0  0
    6.1796   -0.4224   -1.8865 C   0  0  0  0  0  0  0  0  0  0  0  0
    6.6154    0.8455   -1.5822 C   0  0  0  0  0  0  0  0  0  0  0  0
    6.0908    1.4854   -0.4811 C   0  0  0  0  0  0  0  0  0  0  0  0
    5.1450    0.8791    0.3116 C   0  0  0  0  0  0  0  0  0  0  0  0
    4.2751   -2.3131    1.4457 C   0  0  0  0  0  0  0  0  0  0  0  0
    5.2421   -2.3051    2.3673 N   0  0  0  0  0  0  0  0  0  0  0  0
    5.5208   -3.5536    2.7096 N   0  0  0  0  0  0  0  0  0  0  0  0
    4.7371   -4.3582    2.0116 N   0  0  0  0  0  0  0  0  0  0  0  0
    3.9610   -3.5950    1.2247 N   0  0  0  0  0  0  0  0  0  0  0  0
    3.0380   -0.3224    1.7773 O   0  0  0  0  0  0  0  0  0  0  0  0
   -4.1413   -2.1561   -0.0943 H   0  0  0  0  0  0  0  0  0  0  0  0
   -3.7001   -3.8143   -0.5973 H   0  0  0  0  0  0  0  0  0  0  0  0
   -2.7766   -3.0395    0.7085 H   0  0  0  0  0  0  0  0  0  0  0  0
   -1.3449   -2.0677   -0.8686 H   0  0  0  0  0  0  0  0  0  0  0  0
   -2.1311   -3.1140   -2.0512 H   0  0  0  0  0  0  0  0  0  0  0  0
   -3.7241   -1.4709   -2.7312 H   0  0  0  0  0  0  0  0  0  0  0  0
   -2.0690   -0.8592   -2.8086 H   0  0  0  0  0  0  0  0  0  0  0  0
   -6.7134    0.1150    0.8302 H   0  0  0  0  0  0  0  0  0  0  0  0
   -7.6041    1.5526    0.1125 H   0  0  0  0  0  0  0  0  0  0  0  0
   -7.3277    1.3657    1.9279 H   0  0  0  0  0  0  0  0  0  0  0  0
   -6.0762    3.6404    1.8868 H   0  0  0  0  0  0  0  0  0  0  0  0
   -3.8762    4.6903    1.5670 H   0  0  0  0  0  0  0  0  0  0  0  0
   -1.0630    1.0094   -2.3258 H   0  0  0  0  0  0  0  0  0  0  0  0
   -1.2471    2.5675   -1.4836 H   0  0  0  0  0  0  0  0  0  0  0  0
   -0.4511    2.6963    0.9855 H   0  0  0  0  0  0  0  0  0  0  0  0
    1.4471    1.9683    2.3978 H   0  0  0  0  0  0  0  0  0  0  0  0
    0.4006   -0.6327   -1.6088 H   0  0  0  0  0  0  0  0  0  0  0  0
    4.8983   -2.0121   -1.3336 H   0  0  0  0  0  0  0  0  0  0  0  0
    6.5712   -0.9405   -2.7354 H   0  0  0  0  0  0  0  0  0  0  0  0
    7.3704    1.3319   -2.2136 H   0  0  0  0  0  0  0  0  0  0  0  0
    6.4298    2.4833   -0.2366 H   0  0  0  0  0  0  0  0  0  0  0  0
    4.7169    1.3707    1.1889 H   0  0  0  0  0  0  0  0  0  0  0  0
    3.2474   -3.9510    0.5660 H   0  0  0  0  0  0  0  0  0  0  0  0
  1  2  1  0
  2  3  1  0
  3  4  1  0
  4  5  2  0
  5  6  1  0
  6  7  2  0
  7  8  1  0
  7  9  1  0
  9 10  2  0
 10 11  1  0
 11 12  2  0
 12 13  1  0
 13 14  1  0
 14 15  1  0
 15 16  2  0
 16 17  1  0
 17 18  2  0
 18 19  1  0
 19 20  2  0
 19 21  1  0
 21 22  1  0
 22 23  1  0
 23 24  2  0
 24 25  1  0
 25 26  2  0
 26 27  1  0
 27 28  2  0
 22 29  1  0
 29 30  2  0
 30 31  1  0
 31 32  2  0
 32 33  1  0
 22 34  1  0
 13  4  1  0
 20 15  1  0
 28 23  1  0
 33 29  1  0
 12  6  1  0
 34 18  1  0
  1 35  1  0
  1 36  1  0
  1 37  1  0
  2 38  1  0
  2 39  1  0
  3 40  1  0
  3 41  1  0
  8 42  1  0
  8 43  1  0
  8 44  1  0
  9 45  1  0
 10 46  1  0
 14 47  1  0
 14 48  1  0
 16 49  1  0
 17 50  1  0
 20 51  1  0
 24 52  1  0
 25 53  1  0
 26 54  1  0
 27 55  1  0
 28 56  1  0
 33 57  1  0
M  END
$$$$
