@<TRIPOS>MOLECULE
*****
 57 62 0 0 0
SMALL
GASTEIGER

@<TRIPOS>ATOM
      1 C          -3.2963   -2.8342   -0.2694 C.3     1  UNL1       -0.0649
      2 C          -2.3131   -2.3015   -1.2933 C.3     1  UNL1       -0.0491
      3 C          -2.8751   -1.1489   -2.0708 C.3     1  UNL1        0.0054
      4 C          -3.2518    0.0209   -1.2424 C.ar    1  UNL1        0.1122
      5 N          -4.4950    0.1340   -0.6749 N.ar    1  UNL1       -0.2304
      6 C          -4.5980    1.2894    0.0009 C.ar    1  UNL1        0.1111
      7 C          -5.5963    1.8932    0.7365 C.ar    1  UNL1       -0.0200
      8 C          -6.9064    1.2238    0.9034 C.3     1  UNL1       -0.0375
      9 C          -5.3456    3.1162    1.3035 C.ar    1  UNL1       -0.0385
     10 C          -4.1027    3.7251    1.1315 C.ar    1  UNL1        0.0303
     11 N          -3.1368    3.1339    0.4160 N.ar    1  UNL1       -0.2357
     12 C          -3.4040    1.9351   -0.1309 C.ar    1  UNL1        0.1610
     13 N          -2.5923    1.1325   -0.9019 N.ar    1  UNL1       -0.3081
     14 C          -1.2592    1.4624   -1.3086 C.3     1  UNL1        0.0514
     15 C          -0.1735    1.0806   -0.4236 C.ar    1  UNL1       -0.0240
     16 C           0.1296    1.8088    0.7068 C.ar    1  UNL1       -0.0532
     17 C           1.1824    1.4056    1.4887 C.ar    1  UNL1       -0.0158
     18 C           1.9502    0.2929    1.1812 C.ar    1  UNL1        0.1677
     19 C           1.6489   -0.4347    0.0530 C.ar    1  UNL1        0.1680
     20 C           0.5980   -0.0189   -0.7134 C.ar    1  UNL1       -0.0112
     21 O           2.5721   -1.4879   -0.0123 O.3     1  UNL1       -0.4375
     22 C           3.6875   -1.1184    0.8130 C.3     1  UNL1        0.3443
     23 C           4.6999   -0.3781    0.0261 C.ar    1  UNL1        0.0444
     24 C           5.2368   -1.0051   -1.0819 C.ar    1  UNL1       -0.0507
     25 C           6.1796   -0.4224   -1.8865 C.ar    1  UNL1       -0.0612
     26 C           6.6154    0.8455   -1.5822 C.ar    1  UNL1       -0.0617
     27 C           6.0908    1.4854   -0.4811 C.ar    1  UNL1       -0.0612
     28 C           5.1450    0.8791    0.3116 C.ar    1  UNL1       -0.0507
     29 C           4.2751   -2.3131    1.4457 C.ar    1  UNL1        0.2387
     30 N           5.2421   -2.3051    2.3673 N.ar    1  UNL1       -0.1051
     31 N           5.5208   -3.5536    2.7096 N.ar    1  UNL1       -0.0230
     32 N           4.7371   -4.3582    2.0116 N.ar    1  UNL1       -0.0464
     33 N           3.9610   -3.5950    1.2247 N.ar    1  UNL1       -0.2362
     34 O           3.0380   -0.3224    1.7773 O.3     1  UNL1       -0.4375
     35 H          -4.1413   -2.1561   -0.0943 H       1  UNL1        0.0230
     36 H          -3.7001   -3.8143   -0.5973 H       1  UNL1        0.0230
     37 H          -2.7766   -3.0395    0.7085 H       1  UNL1        0.0230
     38 H          -1.3449   -2.0677   -0.8686 H       1  UNL1        0.0267
     39 H          -2.1311   -3.1140   -2.0512 H       1  UNL1        0.0267
     40 H          -3.7241   -1.4709   -2.7312 H       1  UNL1        0.0343
     41 H          -2.0690   -0.8592   -2.8086 H       1  UNL1        0.0343
     42 H          -6.7134    0.1150    0.8302 H       1  UNL1        0.0278
     43 H          -7.6041    1.5526    0.1125 H       1  UNL1        0.0278
     44 H          -7.3277    1.3657    1.9279 H       1  UNL1        0.0278
     45 H          -6.0762    3.6404    1.8868 H       1  UNL1        0.0636
     46 H          -3.8762    4.6903    1.5670 H       1  UNL1        0.0830
     47 H          -1.0630    1.0094   -2.3258 H       1  UNL1        0.0542
     48 H          -1.2471    2.5675   -1.4836 H       1  UNL1        0.0542
     49 H          -0.4511    2.6963    0.9855 H       1  UNL1        0.0622
     50 H           1.4471    1.9683    2.3978 H       1  UNL1        0.0655
     51 H           0.4006   -0.6327   -1.6088 H       1  UNL1        0.0659
     52 H           4.8983   -2.0121   -1.3336 H       1  UNL1        0.0623
     53 H           6.5712   -0.9405   -2.7354 H       1  UNL1        0.0618
     54 H           7.3704    1.3319   -2.2136 H       1  UNL1        0.0618
     55 H           6.4298    2.4833   -0.2366 H       1  UNL1        0.0618
     56 H           4.7169    1.3707    1.1889 H       1  UNL1        0.0623
     57 H           3.2474   -3.9510    0.5660 H       1  UNL1        0.1922
@<TRIPOS>BOND
     1     1     2    1
     2     2     3    1
     3     3     4    1
     4     4     5   ar
     5     5     6   ar
     6     6     7   ar
     7     7     8    1
     8     7     9   ar
     9     9    10   ar
    10    10    11   ar
    11    11    12   ar
    12    12    13   ar
    13    13    14    1
    14    14    15    1
    15    15    16   ar
    16    16    17   ar
    17    17    18   ar
    18    18    19   ar
    19    19    20   ar
    20    19    21    1
    21    21    22    1
    22    22    23    1
    23    23    24   ar
    24    24    25   ar
    25    25    26   ar
    26    26    27   ar
    27    27    28   ar
    28    22    29    1
    29    29    30   ar
    30    30    31   ar
    31    31    32   ar
    32    32    33   ar
    33    22    34    1
    34    13     4   ar
    35    20    15   ar
    36    28    23   ar
    37    33    29   ar
    38    12     6   ar
    39    34    18    1
    40     1    35    1
    41     1    36    1
    42     1    37    1
    43     2    38    1
    44     2    39    1
    45     3    40    1
    46     3    41    1
    47     8    42    1
    48     8    43    1
    49     8    44    1
    50     9    45    1
    51    10    46    1
    52    14    47    1
    53    14    48    1
    54    16    49    1
    55    17    50    1
    56    20    51    1
    57    24    52    1
    58    25    53    1
    59    26    54    1
    60    27    55    1
    61    28    56    1
    62    33    57    1
