@<TRIPOS>MOLECULE
*****
 68 71 0 0 0
SMALL
GASTEIGER

@<TRIPOS>ATOM
      1 C          -7.2404    3.5856   -0.2138 C.1     1  UNL1       -0.1179
      2 C          -7.6312    2.4635    0.2634 C.1     1  UNL1       -0.0900
      3 C          -8.0748    1.2336    0.7850 C.3     1  UNL1        0.0606
      4 N          -7.6361    0.1421    0.0634 N.3     1  UNL1       -0.2916
      5 C          -8.3386   -1.0449    0.4407 C.3     1  UNL1       -0.0116
      6 C          -6.1915   -0.0819    0.1063 C.3     1  UNL1        0.0121
      7 C          -5.5596    0.5749    1.2834 C.3     1  UNL1       -0.0492
      8 C          -5.6245    0.3036   -1.2161 C.3     1  UNL1       -0.0122
      9 C          -4.2452    0.0635   -1.5277 C.ar    1  UNL1       -0.0457
     10 C          -3.3585    1.0493   -1.6613 C.ar    1  UNL1       -0.0551
     11 C          -2.0102    0.9993   -1.8094 C.ar    1  UNL1       -0.0197
     12 C          -1.4756   -0.2378   -1.8192 C.ar    1  UNL1        0.1205
     13 O          -0.1072   -0.3464   -1.9286 O.3     1  UNL1       -0.4919
     14 C           0.9346    0.5450   -2.0470 C.3     1  UNL1        0.0910
     15 C           2.1381   -0.4841   -2.0643 C.3     1  UNL1       -0.0031
     16 C           2.2858   -1.0348   -0.6868 C.3     1  UNL1        0.0122
     17 N           2.7768   -0.0111    0.2786 N.pl3   1  UNL1       -0.3430
     18 C           4.2125   -0.0547    0.4048 C.ar    1  UNL1        0.0413
     19 C           4.7149   -0.9661    1.3598 C.ar    1  UNL1       -0.0047
     20 C           6.0282   -1.1325    1.3479 C.ar    1  UNL1        0.0469
     21 N           6.9776   -0.5331    0.5492 N.ar    1  UNL1       -0.2512
     22 C           6.4314    0.3543   -0.3498 C.ar    1  UNL1        0.0731
     23 C           7.2491    1.0638   -1.1703 C.ar    1  UNL1       -0.0357
     24 C           6.8848    2.0171   -2.1075 C.ar    1  UNL1       -0.0597
     25 C           5.5383    2.2236   -2.1646 C.ar    1  UNL1       -0.0610
     26 C           4.5912    1.5931   -1.4058 C.ar    1  UNL1       -0.0508
     27 C           5.0140    0.6322   -0.4664 C.ar    1  UNL1        0.0215
     28 C           6.6722   -2.1297    2.3446 C.3     1  UNL1       -0.0101
     29 C           6.1514   -1.9340    3.7234 C.3     1  UNL1       -0.0473
     30 C           4.8038   -1.2260    3.7434 C.3     1  UNL1       -0.0486
     31 C           3.9632   -1.5720    2.4683 C.3     1  UNL1       -0.0242
     32 C          -2.2230   -1.3863   -1.7187 C.ar    1  UNL1       -0.0197
     33 C          -3.6070   -1.2671   -1.5733 C.ar    1  UNL1       -0.0551
     34 H          -6.8032    4.7637   -0.7166 H       1  UNL1        0.1228
     35 H          -7.9520    1.2062    1.9192 H       1  UNL1        0.0563
     36 H          -9.2375    1.2661    0.6543 H       1  UNL1        0.0563
     37 H          -8.6558   -1.6297   -0.4586 H       1  UNL1        0.0391
     38 H          -7.6582   -1.7044    1.0654 H       1  UNL1        0.0391
     39 H          -9.2515   -0.9010    1.0572 H       1  UNL1        0.0391
     40 H          -6.1315   -1.2312    0.2216 H       1  UNL1        0.0463
     41 H          -6.1234    0.4345    2.2166 H       1  UNL1        0.0245
     42 H          -4.5521    0.2165    1.4699 H       1  UNL1        0.0245
     43 H          -5.4350    1.6881    1.0782 H       1  UNL1        0.0245
     44 H          -6.3091    0.0021   -2.0300 H       1  UNL1        0.0328
     45 H          -5.7759    1.4885   -1.1781 H       1  UNL1        0.0328
     46 H          -3.7565    2.1358   -1.6783 H       1  UNL1        0.0621
     47 H          -1.4323    1.8601   -1.9673 H       1  UNL1        0.0654
     48 H           1.0305    1.2217   -1.2116 H       1  UNL1        0.0697
     49 H           0.9719    1.1546   -2.9785 H       1  UNL1        0.0697
     50 H           1.6622   -1.3735   -2.6653 H       1  UNL1        0.0313
     51 H           2.9903   -0.1123   -2.5974 H       1  UNL1        0.0313
     52 H           2.9965   -1.9035   -0.7703 H       1  UNL1        0.0462
     53 H           1.2709   -1.3750   -0.3143 H       1  UNL1        0.0462
     54 H           2.1272    0.6143    0.7471 H       1  UNL1        0.1461
     55 H           8.3581    0.8912   -1.0763 H       1  UNL1        0.0639
     56 H           7.6534    2.4614   -2.6889 H       1  UNL1        0.0618
     57 H           5.2189    3.0216   -2.9026 H       1  UNL1        0.0618
     58 H           3.5863    1.8320   -1.4888 H       1  UNL1        0.0625
     59 H           7.7807   -2.0522    2.2557 H       1  UNL1        0.0328
     60 H           6.3275   -3.1382    1.9995 H       1  UNL1        0.0328
     61 H           6.9211   -1.3642    4.3173 H       1  UNL1        0.0269
     62 H           6.0058   -2.9163    4.2442 H       1  UNL1        0.0269
     63 H           4.2542   -1.4857    4.6615 H       1  UNL1        0.0269
     64 H           4.9671   -0.1453    3.7233 H       1  UNL1        0.0269
     65 H           2.9567   -1.1859    2.6883 H       1  UNL1        0.0314
     66 H           4.0132   -2.7029    2.4647 H       1  UNL1        0.0314
     67 H          -1.7749   -2.3733   -1.7806 H       1  UNL1        0.0654
     68 H          -4.2882   -2.0658   -1.5120 H       1  UNL1        0.0621
@<TRIPOS>BOND
     1     1     2    3
     2     2     3    1
     3     3     4    1
     4     4     5    1
     5     4     6    1
     6     6     7    1
     7     6     8    1
     8     8     9    1
     9     9    10   ar
    10    10    11   ar
    11    11    12   ar
    12    12    13    1
    13    13    14    1
    14    14    15    1
    15    15    16    1
    16    16    17    1
    17    17    18    1
    18    18    19   ar
    19    19    20   ar
    20    20    21   ar
    21    21    22   ar
    22    22    23   ar
    23    23    24   ar
    24    24    25   ar
    25    25    26   ar
    26    26    27   ar
    27    20    28    1
    28    28    29    1
    29    29    30    1
    30    30    31    1
    31    12    32   ar
    32    32    33   ar
    33    33     9   ar
    34    27    18   ar
    35    31    19    1
    36    27    22   ar
    37     1    34    1
    38     3    35    1
    39     3    36    1
    40     5    37    1
    41     5    38    1
    42     5    39    1
    43     6    40    1
    44     7    41    1
    45     7    42    1
    46     7    43    1
    47     8    44    1
    48     8    45    1
    49    10    46    1
    50    11    47    1
    51    14    48    1
    52    14    49    1
    53    15    50    1
    54    15    51    1
    55    16    52    1
    56    16    53    1
    57    17    54    1
    58    23    55    1
    59    24    56    1
    60    25    57    1
    61    26    58    1
    62    28    59    1
    63    28    60    1
    64    29    61    1
    65    29    62    1
    66    30    63    1
    67    30    64    1
    68    31    65    1
    69    31    66    1
    70    32    67    1
    71    33    68    1
