
     RDKit          3D

 68 71  0  0  0  0  0  0  0  0999 V2000
   -7.2404    3.5856   -0.2138 C   0  0  0  0  0  0  0  0  0  0  0  0
   -7.6312    2.4635    0.2634 C   0  0  0  0  0  0  0  0  0  0  0  0
   -8.0748    1.2336    0.7850 C   0  0  0  0  0  0  0  0  0  0  0  0
   -7.6361    0.1421    0.0634 N   0  0  0  0  0  0  0  0  0  0  0  0
   -8.3386   -1.0449    0.4407 C   0  0  0  0  0  0  0  0  0  0  0  0
   -6.1915   -0.0819    0.1063 C   0  0  2  0  0  0  0  0  0  0  0  0
   -5.5596    0.5749    1.2834 C   0  0  0  0  0  0  0  0  0  0  0  0
   -5.6245    0.3036   -1.2161 C   0  0  0  0  0  0  0  0  0  0  0  0
   -4.2452    0.0635   -1.5277 C   0  0  0  0  0  0  0  0  0  0  0  0
   -3.3585    1.0493   -1.6613 C   0  0  0  0  0  0  0  0  0  0  0  0
   -2.0102    0.9993   -1.8094 C   0  0  0  0  0  0  0  0  0  0  0  0
   -1.4756   -0.2378   -1.8192 C   0  0  0  0  0  0  0  0  0  0  0  0
   -0.1072   -0.3464   -1.9286 O   0  0  0  0  0  0  0  0  0  0  0  0
    0.9346    0.5450   -2.0470 C   0  0  0  0  0  0  0  0  0  0  0  0
    2.1381   -0.4841   -2.0643 C   0  0  0  0  0  0  0  0  0  0  0  0
    2.2858   -1.0348   -0.6868 C   0  0  0  0  0  0  0  0  0  0  0  0
    2.7768   -0.0111    0.2786 N   0  0  0  0  0  0  0  0  0  0  0  0
    4.2125   -0.0547    0.4048 C   0  0  0  0  0  0  0  0  0  0  0  0
    4.7149   -0.9661    1.3598 C   0  0  0  0  0  0  0  0  0  0  0  0
    6.0282   -1.1325    1.3479 C   0  0  0  0  0  0  0  0  0  0  0  0
    6.9776   -0.5331    0.5492 N   0  0  0  0  0  0  0  0  0  0  0  0
    6.4314    0.3543   -0.3498 C   0  0  0  0  0  0  0  0  0  0  0  0
    7.2491    1.0638   -1.1703 C   0  0  0  0  0  0  0  0  0  0  0  0
    6.8848    2.0171   -2.1075 C   0  0  0  0  0  0  0  0  0  0  0  0
    5.5383    2.2236   -2.1646 C   0  0  0  0  0  0  0  0  0  0  0  0
    4.5912    1.5931   -1.4058 C   0  0  0  0  0  0  0  0  0  0  0  0
    5.0140    0.6322   -0.4664 C   0  0  0  0  0  0  0  0  0  0  0  0
    6.6722   -2.1297    2.3446 C   0  0  0  0  0  0  0  0  0  0  0  0
    6.1514   -1.9340    3.7234 C   0  0  0  0  0  0  0  0  0  0  0  0
    4.8038   -1.2260    3.7434 C   0  0  0  0  0  0  0  0  0  0  0  0
    3.9632   -1.5720    2.4683 C   0  0  0  0  0  0  0  0  0  0  0  0
   -2.2230   -1.3863   -1.7187 C   0  0  0  0  0  0  0  0  0  0  0  0
   -3.6070   -1.2671   -1.5733 C   0  0  0  0  0  0  0  0  0  0  0  0
   -6.8032    4.7637   -0.7166 H   0  0  0  0  0  0  0  0  0  0  0  0
   -7.9520    1.2062    1.9192 H   0  0  0  0  0  0  0  0  0  0  0  0
   -9.2375    1.2661    0.6543 H   0  0  0  0  0  0  0  0  0  0  0  0
   -8.6558   -1.6297   -0.4586 H   0  0  0  0  0  0  0  0  0  0  0  0
   -7.6582   -1.7044    1.0654 H   0  0  0  0  0  0  0  0  0  0  0  0
   -9.2515   -0.9010    1.0572 H   0  0  0  0  0  0  0  0  0  0  0  0
   -6.1315   -1.2312    0.2216 H   0  0  0  0  0  0  0  0  0  0  0  0
   -6.1234    0.4345    2.2166 H   0  0  0  0  0  0  0  0  0  0  0  0
   -4.5521    0.2165    1.4699 H   0  0  0  0  0  0  0  0  0  0  0  0
   -5.4350    1.6881    1.0782 H   0  0  0  0  0  0  0  0  0  0  0  0
   -6.3091    0.0021   -2.0300 H   0  0  0  0  0  0  0  0  0  0  0  0
   -5.7759    1.4885   -1.1781 H   0  0  0  0  0  0  0  0  0  0  0  0
   -3.7565    2.1358   -1.6783 H   0  0  0  0  0  0  0  0  0  0  0  0
   -1.4323    1.8601   -1.9673 H   0  0  0  0  0  0  0  0  0  0  0  0
    1.0305    1.2217   -1.2116 H   0  0  0  0  0  0  0  0  0  0  0  0
    0.9719    1.1546   -2.9785 H   0  0  0  0  0  0  0  0  0  0  0  0
    1.6622   -1.3735   -2.6653 H   0  0  0  0  0  0  0  0  0  0  0  0
    2.9903   -0.1123   -2.5974 H   0  0  0  0  0  0  0  0  0  0  0  0
    2.9965   -1.9035   -0.7703 H   0  0  0  0  0  0  0  0  0  0  0  0
    1.2709   -1.3750   -0.3143 H   0  0  0  0  0  0  0  0  0  0  0  0
    2.1272    0.6143    0.7471 H   0  0  0  0  0  0  0  0  0  0  0  0
    8.3581    0.8912   -1.0763 H   0  0  0  0  0  0  0  0  0  0  0  0
    7.6534    2.4614   -2.6889 H   0  0  0  0  0  0  0  0  0  0  0  0
    5.2189    3.0216   -2.9026 H   0  0  0  0  0  0  0  0  0  0  0  0
    3.5863    1.8320   -1.4888 H   0  0  0  0  0  0  0  0  0  0  0  0
    7.7807   -2.0522    2.2557 H   0  0  0  0  0  0  0  0  0  0  0  0
    6.3275   -3.1382    1.9995 H   0  0  0  0  0  0  0  0  0  0  0  0
    6.9211   -1.3642    4.3173 H   0  0  0  0  0  0  0  0  0  0  0  0
    6.0058   -2.9163    4.2442 H   0  0  0  0  0  0  0  0  0  0  0  0
    4.2542   -1.4857    4.6615 H   0  0  0  0  0  0  0  0  0  0  0  0
    4.9671   -0.1453    3.7233 H   0  0  0  0  0  0  0  0  0  0  0  0
    2.9567   -1.1859    2.6883 H   0  0  0  0  0  0  0  0  0  0  0  0
    4.0132   -2.7029    2.4647 H   0  0  0  0  0  0  0  0  0  0  0  0
   -1.7749   -2.3733   -1.7806 H   0  0  0  0  0  0  0  0  0  0  0  0
   -4.2882   -2.0658   -1.5120 H   0  0  0  0  0  0  0  0  0  0  0  0
  1  2  3  0
  2  3  1  0
  3  4  1  0
  4  5  1  0
  4  6  1  0
  6  7  1  0
  6  8  1  0
  8  9  1  0
  9 10  2  0
 10 11  1  0
 11 12  2  0
 12 13  1  0
 13 14  1  0
 14 15  1  0
 15 16  1  0
 16 17  1  0
 17 18  1  0
 18 19  2  0
 19 20  1  0
 20 21  2  0
 21 22  1  0
 22 23  2  0
 23 24  1  0
 24 25  2  0
 25 26  1  0
 26 27  2  0
 20 28  1  0
 28 29  1  0
 29 30  1  0
 30 31  1  0
 12 32  1  0
 32 33  2  0
 33  9  1  0
 27 18  1  0
 31 19  1  0
 27 22  1  0
  1 34  1  0
  3 35  1  0
  3 36  1  0
  5 37  1  0
  5 38  1  0
  5 39  1  0
  6 40  1  1
  7 41  1  0
  7 42  1  0
  7 43  1  0
  8 44  1  0
  8 45  1  0
 10 46  1  0
 11 47  1  0
 14 48  1  0
 14 49  1  0
 15 50  1  0
 15 51  1  0
 16 52  1  0
 16 53  1  0
 17 54  1  0
 23 55  1  0
 24 56  1  0
 25 57  1  0
 26 58  1  0
 28 59  1  0
 28 60  1  0
 29 61  1  0
 29 62  1  0
 30 63  1  0
 30 64  1  0
 31 65  1  0
 31 66  1  0
 32 67  1  0
 33 68  1  0
M  END
$$$$
