@<TRIPOS>MOLECULE
*****
 81 84 0 0 0
SMALL
GASTEIGER

@<TRIPOS>ATOM
      1 C          -0.3628   -1.8976   -0.5930 C.2     1  UNL1       -0.0124
      2 C          -1.2662   -0.7857   -0.7952 C.ar    1  UNL1        0.0449
      3 C          -1.3094    0.3625   -1.5417 C.ar    1  UNL1       -0.0220
      4 C          -0.2916    0.7595   -2.5260 C.3     1  UNL1       -0.0374
      5 C          -2.4436    1.0778   -1.2453 C.ar    1  UNL1       -0.0186
      6 C          -2.9768    2.3506   -1.7708 C.3     1  UNL1       -0.0154
      7 C          -3.6925    2.2541   -3.0735 C.3     1  UNL1        0.0488
      8 C          -2.8481    1.7199   -4.1529 C.2     1  UNL1        0.3050
      9 O          -1.9773    2.4177   -4.9759 O.3     1  UNL1       -0.4806
     10 O          -2.9609    0.4835   -4.3136 O.2     1  UNL1       -0.2510
     11 C          -3.1250    0.3334   -0.2734 C.ar    1  UNL1        0.0452
     12 N          -2.3894   -0.7745   -0.0320 N.ar    1  UNL1       -0.3545
     13 C          -4.3838    0.7136    0.3571 C.2     1  UNL1       -0.0123
     14 C          -5.4074   -0.0404    0.7147 C.2     1  UNL1        0.0732
     15 N          -5.3880   -1.4458    0.4996 N.2     1  UNL1       -0.2130
     16 C          -6.4764   -1.9559    0.9290 C.2     1  UNL1        0.2161
     17 O          -6.8390   -3.3078    0.8987 O.2     1  UNL1       -0.4922
     18 C          -7.2808   -0.8639    1.4619 C.2     1  UNL1        0.0160
     19 C          -8.6155   -1.0098    2.0564 C.3     1  UNL1       -0.0343
     20 C          -6.6869    0.2930    1.3566 C.2     1  UNL1       -0.0141
     21 C          -6.9274    1.6928    1.6833 C.3     1  UNL1       -0.0281
     22 C          -8.2304    1.9883    2.3734 C.3     1  UNL1       -0.0612
     23 C           0.9130   -1.8933   -0.2532 C.2     1  UNL1        0.0697
     24 N           1.5920   -0.6895   -0.0261 N.2     1  UNL1       -0.2472
     25 C           2.8222   -0.8389    0.3003 C.2     1  UNL1        0.0700
     26 C           3.5565    0.3586    0.5451 C.2     1  UNL1       -0.0102
     27 C           4.7408    0.7435    0.9125 C.2     1  UNL1        0.0733
     28 N           5.6892   -0.2596    1.1875 N.2     1  UNL1       -0.2130
     29 C           6.8244    0.1701    1.5433 C.2     1  UNL1        0.2161
     30 O           7.9645   -0.5431    1.8818 O.2     1  UNL1       -0.4922
     31 C           6.6865    1.6191    1.5247 C.2     1  UNL1        0.0160
     32 C           7.6851    2.6602    1.8475 C.3     1  UNL1       -0.0343
     33 C           5.4501    1.9799    1.1506 C.2     1  UNL1       -0.0141
     34 C           4.7577    3.2703    0.9618 C.3     1  UNL1       -0.0281
     35 C           4.2765    3.4427   -0.4704 C.3     1  UNL1       -0.0612
     36 C           3.0000   -2.2645    0.2923 C.2     1  UNL1       -0.0165
     37 C           4.2221   -3.0113    0.5969 C.3     1  UNL1       -0.0153
     38 C           5.2525   -2.9031   -0.5164 C.3     1  UNL1        0.0488
     39 C           6.4959   -3.6456   -0.1688 C.2     1  UNL1        0.3050
     40 O           7.4470   -3.5444   -1.1997 O.3     1  UNL1       -0.4806
     41 O           6.7264   -4.2955    0.8887 O.2     1  UNL1       -0.2510
     42 C           1.9008   -2.9221   -0.0266 C.2     1  UNL1       -0.0198
     43 C           1.5871   -4.3636   -0.1657 C.3     1  UNL1       -0.0374
     44 H          -0.7550   -2.9161   -0.7335 H       1  UNL1        0.0659
     45 H           0.7487    0.5932   -2.2086 H       1  UNL1        0.0278
     46 H          -0.3560    1.8574   -2.7267 H       1  UNL1        0.0278
     47 H          -0.3801    0.1769   -3.4903 H       1  UNL1        0.0278
     48 H          -2.1529    3.1213   -1.8679 H       1  UNL1        0.0319
     49 H          -3.6593    2.8322   -1.0087 H       1  UNL1        0.0319
     50 H          -3.9751    3.2994   -3.4018 H       1  UNL1        0.0381
     51 H          -4.6713    1.7326   -3.0001 H       1  UNL1        0.0381
     52 H          -1.7866    2.1469   -5.9324 H       1  UNL1        0.2951
     53 H          -2.7531   -1.4719    0.6875 H       1  UNL1        0.1659
     54 H          -4.4674    1.7840    0.5524 H       1  UNL1        0.0659
     55 H          -6.1078   -4.0319    0.8302 H       1  UNL1        0.2937
     56 H          -8.5970   -1.0531    3.1658 H       1  UNL1        0.0279
     57 H          -9.3216   -0.2657    1.6394 H       1  UNL1        0.0279
     58 H          -9.0620   -2.0033    1.7440 H       1  UNL1        0.0279
     59 H          -6.8918    2.3382    0.7758 H       1  UNL1        0.0311
     60 H          -6.1122    2.1222    2.3407 H       1  UNL1        0.0311
     61 H          -8.1010    3.0082    2.8606 H       1  UNL1        0.0233
     62 H          -9.0720    2.0884    1.6263 H       1  UNL1        0.0233
     63 H          -8.4782    1.3188    3.2055 H       1  UNL1        0.0233
     64 H           3.0275    1.3170    0.3990 H       1  UNL1        0.0660
     65 H           7.9068   -1.5200    2.1408 H       1  UNL1        0.2937
     66 H           8.1596    3.0106    0.8990 H       1  UNL1        0.0279
     67 H           8.4292    2.2378    2.5510 H       1  UNL1        0.0279
     68 H           7.2244    3.5286    2.3882 H       1  UNL1        0.0279
     69 H           3.8682    3.2647    1.6582 H       1  UNL1        0.0311
     70 H           5.4214    4.0965    1.2386 H       1  UNL1        0.0311
     71 H           3.1743    3.5786   -0.4659 H       1  UNL1        0.0233
     72 H           4.5451    2.5717   -1.1036 H       1  UNL1        0.0233
     73 H           4.7536    4.3260   -0.9407 H       1  UNL1        0.0233
     74 H           4.0163   -4.1000    0.7701 H       1  UNL1        0.0319
     75 H           4.6937   -2.6558    1.5322 H       1  UNL1        0.0319
     76 H           5.3903   -1.9101   -0.9117 H       1  UNL1        0.0381
     77 H           4.8176   -3.5089   -1.3845 H       1  UNL1        0.0381
     78 H           8.3314   -4.0720   -1.1301 H       1  UNL1        0.2951
     79 H           0.5572   -4.5513    0.2420 H       1  UNL1        0.0278
     80 H           2.2472   -5.0213    0.4343 H       1  UNL1        0.0278
     81 H           1.6775   -4.7052   -1.2184 H       1  UNL1        0.0278
@<TRIPOS>BOND
     1     1     2    1
     2     2     3   ar
     3     3     4    1
     4     3     5   ar
     5     5     6    1
     6     6     7    1
     7     7     8    1
     8     8     9    1
     9     8    10    2
    10     5    11   ar
    11    11    12   ar
    12    11    13    1
    13    13    14    2
    14    14    15    1
    15    15    16    2
    16    16    17    1
    17    16    18    1
    18    18    19    1
    19    18    20    2
    20    20    21    1
    21    21    22    1
    22     1    23    2
    23    23    24    1
    24    24    25    2
    25    25    26    1
    26    26    27    2
    27    27    28    1
    28    28    29    2
    29    29    30    1
    30    29    31    1
    31    31    32    1
    32    31    33    2
    33    33    34    1
    34    34    35    1
    35    25    36    1
    36    36    37    1
    37    37    38    1
    38    38    39    1
    39    39    40    1
    40    39    41    2
    41    36    42    2
    42    42    43    1
    43    12     2   ar
    44    20    14    1
    45    42    23    1
    46    33    27    1
    47     1    44    1
    48     4    45    1
    49     4    46    1
    50     4    47    1
    51     6    48    1
    52     6    49    1
    53     7    50    1
    54     7    51    1
    55     9    52    1
    56    12    53    1
    57    13    54    1
    58    17    55    1
    59    19    56    1
    60    19    57    1
    61    19    58    1
    62    21    59    1
    63    21    60    1
    64    22    61    1
    65    22    62    1
    66    22    63    1
    67    26    64    1
    68    30    65    1
    69    32    66    1
    70    32    67    1
    71    32    68    1
    72    34    69    1
    73    34    70    1
    74    35    71    1
    75    35    72    1
    76    35    73    1
    77    37    74    1
    78    37    75    1
    79    38    76    1
    80    38    77    1
    81    40    78    1
    82    43    79    1
    83    43    80    1
    84    43    81    1
