@<TRIPOS>MOLECULE
*****
 38 41 0 0 0
SMALL
GASTEIGER

@<TRIPOS>ATOM
      1 O           4.2693    3.0232    0.5300 O.2     1  UNL1       -0.2671
      2 C           3.7681    1.8835    0.2919 C.ar    1  UNL1        0.2595
      3 N           2.4427    1.7810   -0.0337 N.ar    1  UNL1       -0.3064
      4 C           1.9048    0.5813   -0.2868 C.ar    1  UNL1        0.1414
      5 C           0.4968    0.4688   -0.6331 C.ar    1  UNL1        0.0176
      6 C          -0.3429    1.5251   -0.7224 C.ar    1  UNL1       -0.0476
      7 C          -1.6792    1.3628   -1.0568 C.ar    1  UNL1       -0.0187
      8 C          -2.1810    0.1094   -1.3068 C.ar    1  UNL1        0.1285
      9 O          -3.5415   -0.0694   -1.6487 O.3     1  UNL1       -0.4546
     10 C          -4.4366   -0.2734   -0.6196 C.ar    1  UNL1        0.1467
     11 C          -4.0783   -0.3120    0.7125 C.ar    1  UNL1       -0.0165
     12 C          -4.9868   -0.5163    1.7172 C.ar    1  UNL1       -0.0398
     13 C          -6.3142   -0.6923    1.4068 C.ar    1  UNL1        0.0426
     14 CL         -7.5405   -0.9590    2.6310 Cl      1  UNL1       -0.0835
     15 C          -6.7110   -0.6596    0.0774 C.ar    1  UNL1       -0.0215
     16 C          -5.7674   -0.4509   -0.9156 C.ar    1  UNL1        0.0845
     17 CL         -6.2655   -0.4083   -2.6075 Cl      1  UNL1       -0.0797
     18 C          -1.3494   -0.9682   -1.2216 C.ar    1  UNL1       -0.0187
     19 C          -0.0243   -0.7974   -0.8890 C.ar    1  UNL1       -0.0476
     20 N           2.6751   -0.5458   -0.2216 N.ar    1  UNL1       -0.2290
     21 C           3.9749   -0.5066    0.0913 C.ar    1  UNL1        0.0785
     22 C           4.7304   -1.6629    0.1499 C.ar    1  UNL1       -0.0355
     23 C           6.0746   -1.6266    0.4730 C.ar    1  UNL1       -0.0597
     24 C           6.6130   -0.3689    0.7323 C.ar    1  UNL1       -0.0609
     25 C           5.8540    0.7843    0.6725 C.ar    1  UNL1       -0.0474
     26 C           4.5247    0.7352    0.3516 C.ar    1  UNL1        0.0647
     27 H           1.8827    2.6462   -0.0763 H       1  UNL1        0.1704
     28 H          -0.0048    2.5422   -0.5359 H       1  UNL1        0.0626
     29 H          -2.3517    2.2324   -1.1258 H       1  UNL1        0.0654
     30 H          -3.0269   -0.1717    0.9448 H       1  UNL1        0.0655
     31 H          -4.6979   -0.5445    2.7485 H       1  UNL1        0.0633
     32 H          -7.7516   -0.7982   -0.1560 H       1  UNL1        0.0648
     33 H          -1.7368   -1.9739   -1.4186 H       1  UNL1        0.0654
     34 H           0.6367   -1.6583   -0.8218 H       1  UNL1        0.0626
     35 H           4.3042   -2.6358   -0.0529 H       1  UNL1        0.0639
     36 H           6.6775   -2.5229    0.5226 H       1  UNL1        0.0618
     37 H           7.6613   -0.2904    0.9895 H       1  UNL1        0.0618
     38 H           6.2972    1.7379    0.8774 H       1  UNL1        0.0626
@<TRIPOS>BOND
     1     1     2    2
     2     2     3   ar
     3     3     4   ar
     4     4     5    1
     5     5     6   ar
     6     6     7   ar
     7     7     8   ar
     8     8     9    1
     9     9    10    1
    10    10    11   ar
    11    11    12   ar
    12    12    13   ar
    13    13    14    1
    14    13    15   ar
    15    15    16   ar
    16    16    17    1
    17     8    18   ar
    18    18    19   ar
    19     4    20   ar
    20    20    21   ar
    21    21    22   ar
    22    22    23   ar
    23    23    24   ar
    24    24    25   ar
    25    25    26   ar
    26    26     2   ar
    27    19     5   ar
    28    26    21   ar
    29    16    10   ar
    30     3    27    1
    31     6    28    1
    32     7    29    1
    33    11    30    1
    34    12    31    1
    35    15    32    1
    36    18    33    1
    37    19    34    1
    38    22    35    1
    39    23    36    1
    40    24    37    1
    41    25    38    1
