@<TRIPOS>MOLECULE
*****
 58 63 0 0 0
SMALL
GASTEIGER

@<TRIPOS>ATOM
      1 C           1.1701    4.9555   -2.0207 C.3     1  UNL1        0.0790
      2 O           0.8156    3.6979   -2.5090 O.3     1  UNL1       -0.4915
      3 C           0.5845    2.5841   -1.7441 C.ar    1  UNL1        0.1613
      4 C           0.6847    2.6067   -0.3767 C.ar    1  UNL1       -0.0157
      5 C           0.4479    1.4831    0.3424 C.ar    1  UNL1       -0.0503
      6 C           0.0927    0.2427   -0.2229 C.ar    1  UNL1       -0.0116
      7 C          -0.1402   -0.9261    0.5833 C.ar    1  UNL1        0.0167
      8 C           0.8133   -1.8452    0.9506 C.ar    1  UNL1        0.0263
      9 C           2.1566   -1.9957    0.7342 C.ar    1  UNL1        0.0311
     10 C           2.8352   -1.0814   -0.0102 C.ar    1  UNL1       -0.0050
     11 C           4.1983   -1.2796   -0.2005 C.ar    1  UNL1        0.1621
     12 O           4.9558   -0.3689   -0.9610 O.3     1  UNL1       -0.4914
     13 C           4.2900    0.7605   -1.5303 C.3     1  UNL1        0.0790
     14 C           4.8862   -2.3475    0.3242 C.ar    1  UNL1        0.1620
     15 O           6.2407   -2.5522    0.1400 O.3     1  UNL1       -0.5032
     16 C           4.1878   -3.2638    1.0745 C.ar    1  UNL1        0.0265
     17 C           2.8412   -3.0922    1.2780 C.ar    1  UNL1        0.1435
     18 O           2.1919   -3.9628    1.9877 O.2     1  UNL1       -0.4206
     19 C           0.9129   -3.8872    2.2373 C.ar    1  UNL1        0.3621
     20 O           0.3277   -4.7329    2.9161 O.2     1  UNL1       -0.2428
     21 C           0.2193   -2.8223    1.7158 C.ar    1  UNL1        0.1404
     22 N          -1.0935   -2.5113    1.8224 N.ar    1  UNL1       -0.3089
     23 C          -2.1084   -3.1204    2.4498 C.ar    1  UNL1        0.0112
     24 C          -3.3795   -2.6430    2.4400 C.ar    1  UNL1       -0.0373
     25 C          -3.6380   -1.4873    1.7589 C.ar    1  UNL1       -0.0108
     26 C          -4.9201   -0.9647    1.7230 C.ar    1  UNL1       -0.0087
     27 C          -5.2030    0.1932    1.0464 C.ar    1  UNL1        0.1590
     28 O          -6.5046    0.6968    1.0271 O.3     1  UNL1       -0.5033
     29 C          -4.1629    0.8466    0.3849 C.ar    1  UNL1        0.1619
     30 O          -4.4252    2.0078   -0.2986 O.3     1  UNL1       -0.4914
     31 C          -3.4445    2.7310   -0.9911 C.3     1  UNL1        0.0790
     32 C          -2.8791    0.3425    0.4086 C.ar    1  UNL1       -0.0066
     33 C          -2.6243   -0.8145    1.0910 C.ar    1  UNL1        0.0103
     34 C          -1.3286   -1.3517    1.1334 C.ar    1  UNL1        0.0629
     35 C           0.0030    0.2665   -1.6085 C.ar    1  UNL1       -0.0087
     36 C           0.2387    1.3882   -2.3364 C.ar    1  UNL1        0.1590
     37 O           0.1271    1.3279   -3.7298 O.3     1  UNL1       -0.5033
     38 H           1.8263    4.8495   -1.1201 H       1  UNL1        0.0660
     39 H           1.6829    5.5945   -2.7460 H       1  UNL1        0.0660
     40 H           0.2392    5.4715   -1.6725 H       1  UNL1        0.0660
     41 H           0.9562    3.5261    0.1631 H       1  UNL1        0.0655
     42 H           0.5315    1.5197    1.4175 H       1  UNL1        0.0625
     43 H           2.4393   -0.2252   -0.4665 H       1  UNL1        0.0662
     44 H           3.4952    0.4027   -2.2017 H       1  UNL1        0.0660
     45 H           3.8187    1.3760   -0.7099 H       1  UNL1        0.0660
     46 H           5.0397    1.4064   -2.0114 H       1  UNL1        0.0660
     47 H           6.9133   -1.9153    0.5799 H       1  UNL1        0.2923
     48 H           4.7098   -4.1248    1.5051 H       1  UNL1        0.0692
     49 H          -1.8694   -4.0513    2.9911 H       1  UNL1        0.0813
     50 H          -4.1621   -3.1644    2.9569 H       1  UNL1        0.0638
     51 H          -5.6931   -1.5180    2.2581 H       1  UNL1        0.0661
     52 H          -7.0232    0.6751    0.1369 H       1  UNL1        0.2923
     53 H          -2.9638    2.0758   -1.7485 H       1  UNL1        0.0660
     54 H          -3.9402    3.5879   -1.4860 H       1  UNL1        0.0660
     55 H          -2.7258    3.1260   -0.2424 H       1  UNL1        0.0660
     56 H          -2.1542    0.8827   -0.1067 H       1  UNL1        0.0662
     57 H          -0.2711   -0.6835   -2.0713 H       1  UNL1        0.0661
     58 H          -0.2185    2.1082   -4.2672 H       1  UNL1        0.2923
@<TRIPOS>BOND
     1     1     2    1
     2     2     3    1
     3     3     4   ar
     4     4     5   ar
     5     5     6   ar
     6     6     7    1
     7     7     8   ar
     8     8     9   ar
     9     9    10   ar
    10    10    11   ar
    11    11    12    1
    12    12    13    1
    13    11    14   ar
    14    14    15    1
    15    14    16   ar
    16    16    17   ar
    17    17    18   ar
    18    18    19   ar
    19    19    20    2
    20    19    21   ar
    21    21    22   ar
    22    22    23   ar
    23    23    24   ar
    24    24    25   ar
    25    25    26   ar
    26    26    27   ar
    27    27    28    1
    28    27    29   ar
    29    29    30    1
    30    30    31    1
    31    29    32   ar
    32    32    33   ar
    33    33    34   ar
    34     6    35   ar
    35    35    36   ar
    36    36    37    1
    37    36     3   ar
    38    34     7   ar
    39    21     8   ar
    40    34    22   ar
    41    17     9   ar
    42    33    25   ar
    43     1    38    1
    44     1    39    1
    45     1    40    1
    46     4    41    1
    47     5    42    1
    48    10    43    1
    49    13    44    1
    50    13    45    1
    51    13    46    1
    52    15    47    1
    53    16    48    1
    54    23    49    1
    55    24    50    1
    56    26    51    1
    57    28    52    1
    58    31    53    1
    59    31    54    1
    60    31    55    1
    61    32    56    1
    62    35    57    1
    63    37    58    1
