
     RDKit          3D

 46 49  0  0  0  0  0  0  0  0999 V2000
    5.9964   -0.8731    1.1333 N   0  0  0  0  0  0  0  0  0  0  0  0
    4.8486   -0.0563    0.7176 C   0  0  0  0  0  0  0  0  0  0  0  0
    3.7083   -0.9155    0.2941 C   0  0  0  0  0  0  0  0  0  0  0  0
    3.2980   -0.6756   -1.1205 C   0  0  0  0  0  0  0  0  0  0  0  0
    2.8568    0.7459   -1.2896 C   0  0  0  0  0  0  0  0  0  0  0  0
    1.7151    1.0653   -0.4988 N   0  0  0  0  0  0  0  0  0  0  0  0
    0.5197    0.3330   -0.7445 C   0  0  1  0  0  0  0  0  0  0  0  0
    0.3232   -1.0900   -0.5041 C   0  0  0  0  0  0  0  0  0  0  0  0
   -0.3596   -0.0112    0.3797 C   0  0  2  0  0  0  0  0  0  0  0  0
   -1.8317   -0.0262    0.2572 C   0  0  0  0  0  0  0  0  0  0  0  0
   -2.4637   -0.2410   -0.9518 C   0  0  0  0  0  0  0  0  0  0  0  0
   -3.8404   -0.2499   -1.0378 C   0  0  0  0  0  0  0  0  0  0  0  0
   -4.6498   -0.0482    0.0597 C   0  0  0  0  0  0  0  0  0  0  0  0
   -6.1458   -0.0632   -0.0631 C   0  0  0  0  0  0  0  0  0  0  0  0
   -6.8329    1.0501    0.6759 C   0  0  0  0  0  0  0  0  0  0  0  0
   -6.9497   -0.4168    1.1148 C   0  0  0  0  0  0  0  0  0  0  0  0
   -4.0229    0.1663    1.2668 C   0  0  0  0  0  0  0  0  0  0  0  0
   -2.6450    0.1755    1.3547 C   0  0  0  0  0  0  0  0  0  0  0  0
    4.0042    1.6373   -0.8496 C   0  0  0  0  0  0  0  0  0  0  0  0
    5.2258    0.8635   -0.4160 C   0  0  0  0  0  0  0  0  0  0  0  0
    6.6731   -0.2234    1.5896 H   0  0  0  0  0  0  0  0  0  0  0  0
    5.6512   -1.5202    1.8760 H   0  0  0  0  0  0  0  0  0  0  0  0
    4.6199    0.5850    1.5957 H   0  0  0  0  0  0  0  0  0  0  0  0
    2.8889   -0.7553    1.0342 H   0  0  0  0  0  0  0  0  0  0  0  0
    3.9860   -2.0002    0.4137 H   0  0  0  0  0  0  0  0  0  0  0  0
    2.5435   -1.3423   -1.5311 H   0  0  0  0  0  0  0  0  0  0  0  0
    4.2245   -0.8582   -1.7439 H   0  0  0  0  0  0  0  0  0  0  0  0
    2.6830    0.9874   -2.3681 H   0  0  0  0  0  0  0  0  0  0  0  0
    1.5462    2.0780   -0.5354 H   0  0  0  0  0  0  0  0  0  0  0  0
   -0.0385    0.7401   -1.6485 H   0  0  0  0  0  0  0  0  0  0  0  0
    0.9262   -1.7529    0.1203 H   0  0  0  0  0  0  0  0  0  0  0  0
   -0.3321   -1.6682   -1.1990 H   0  0  0  0  0  0  0  0  0  0  0  0
    0.0211    0.1658    1.3848 H   0  0  0  0  0  0  0  0  0  0  0  0
   -1.8194   -0.3997   -1.8154 H   0  0  0  0  0  0  0  0  0  0  0  0
   -4.3248   -0.4202   -1.9961 H   0  0  0  0  0  0  0  0  0  0  0  0
   -6.5595   -0.2447   -1.0750 H   0  0  0  0  0  0  0  0  0  0  0  0
   -6.2304    1.7268    1.2834 H   0  0  0  0  0  0  0  0  0  0  0  0
   -7.7483    1.5068    0.2316 H   0  0  0  0  0  0  0  0  0  0  0  0
   -6.4435   -0.6400    2.0693 H   0  0  0  0  0  0  0  0  0  0  0  0
   -7.9380   -0.9143    0.9302 H   0  0  0  0  0  0  0  0  0  0  0  0
   -4.6472    0.3262    2.1372 H   0  0  0  0  0  0  0  0  0  0  0  0
   -2.1326    0.3437    2.3018 H   0  0  0  0  0  0  0  0  0  0  0  0
    4.2643    2.3947   -1.6399 H   0  0  0  0  0  0  0  0  0  0  0  0
    3.7051    2.2380    0.0578 H   0  0  0  0  0  0  0  0  0  0  0  0
    5.7458    0.3449   -1.2471 H   0  0  0  0  0  0  0  0  0  0  0  0
    5.9808    1.5753   -0.0037 H   0  0  0  0  0  0  0  0  0  0  0  0
  1  2  1  0
  2  3  1  0
  3  4  1  0
  4  5  1  0
  5  6  1  0
  6  7  1  0
  7  8  1  0
  8  9  1  0
  9 10  1  0
 10 11  2  0
 11 12  1  0
 12 13  2  0
 13 14  1  0
 14 15  1  0
 15 16  1  0
 13 17  1  0
 17 18  2  0
  5 19  1  0
 19 20  1  0
 20  2  1  0
  9  7  1  0
 18 10  1  0
 16 14  1  0
  1 21  1  0
  1 22  1  0
  2 23  1  0
  3 24  1  0
  3 25  1  0
  4 26  1  0
  4 27  1  0
  5 28  1  0
  6 29  1  0
  7 30  1  6
  8 31  1  0
  8 32  1  0
  9 33  1  1
 11 34  1  0
 12 35  1  0
 14 36  1  0
 15 37  1  0
 15 38  1  0
 16 39  1  0
 16 40  1  0
 17 41  1  0
 18 42  1  0
 19 43  1  0
 19 44  1  0
 20 45  1  0
 20 46  1  0
M  END
$$$$
