@<TRIPOS>MOLECULE
*****
 46 49 0 0 0
SMALL
GASTEIGER

@<TRIPOS>ATOM
      1 N           5.9964   -0.8731    1.1333 N.3     1  UNL1       -0.3272
      2 C           4.8486   -0.0563    0.7176 C.3     1  UNL1        0.0049
      3 C           3.7083   -0.9155    0.2941 C.3     1  UNL1       -0.0363
      4 C           3.2980   -0.6756   -1.1205 C.3     1  UNL1       -0.0361
      5 C           2.8568    0.7459   -1.2896 C.3     1  UNL1        0.0080
      6 N           1.7151    1.0653   -0.4988 N.3     1  UNL1       -0.3099
      7 C           0.5197    0.3330   -0.7445 C.3     1  UNL1        0.0153
      8 C           0.3232   -1.0900   -0.5041 C.3     1  UNL1       -0.0287
      9 C          -0.3596   -0.0112    0.3797 C.3     1  UNL1        0.0010
     10 C          -1.8317   -0.0262    0.2572 C.ar    1  UNL1       -0.0427
     11 C          -2.4637   -0.2410   -0.9518 C.ar    1  UNL1       -0.0580
     12 C          -3.8404   -0.2499   -1.0378 C.ar    1  UNL1       -0.0580
     13 C          -4.6498   -0.0482    0.0597 C.ar    1  UNL1       -0.0443
     14 C          -6.1458   -0.0632   -0.0631 C.3     1  UNL1       -0.0158
     15 C          -6.8329    1.0501    0.6759 C.3     1  UNL1       -0.0457
     16 C          -6.9497   -0.4168    1.1148 C.3     1  UNL1       -0.0457
     17 C          -4.0229    0.1663    1.2668 C.ar    1  UNL1       -0.0580
     18 C          -2.6450    0.1755    1.3547 C.ar    1  UNL1       -0.0580
     19 C           4.0042    1.6373   -0.8496 C.3     1  UNL1       -0.0361
     20 C           5.2258    0.8635   -0.4160 C.3     1  UNL1       -0.0363
     21 H           6.6731   -0.2234    1.5896 H       1  UNL1        0.1185
     22 H           5.6512   -1.5202    1.8760 H       1  UNL1        0.1185
     23 H           4.6199    0.5850    1.5957 H       1  UNL1        0.0458
     24 H           2.8889   -0.7553    1.0342 H       1  UNL1        0.0281
     25 H           3.9860   -2.0002    0.4137 H       1  UNL1        0.0281
     26 H           2.5435   -1.3423   -1.5311 H       1  UNL1        0.0281
     27 H           4.2245   -0.8582   -1.7439 H       1  UNL1        0.0281
     28 H           2.6830    0.9874   -2.3681 H       1  UNL1        0.0460
     29 H           1.5462    2.0780   -0.5354 H       1  UNL1        0.1225
     30 H          -0.0385    0.7401   -1.6485 H       1  UNL1        0.0466
     31 H           0.9262   -1.7529    0.1203 H       1  UNL1        0.0287
     32 H          -0.3321   -1.6682   -1.1990 H       1  UNL1        0.0287
     33 H           0.0211    0.1658    1.3848 H       1  UNL1        0.0364
     34 H          -1.8194   -0.3997   -1.8154 H       1  UNL1        0.0620
     35 H          -4.3248   -0.4202   -1.9961 H       1  UNL1        0.0620
     36 H          -6.5595   -0.2447   -1.0750 H       1  UNL1        0.0349
     37 H          -6.2304    1.7268    1.2834 H       1  UNL1        0.0271
     38 H          -7.7483    1.5068    0.2316 H       1  UNL1        0.0271
     39 H          -6.4435   -0.6400    2.0693 H       1  UNL1        0.0271
     40 H          -7.9380   -0.9143    0.9302 H       1  UNL1        0.0271
     41 H          -4.6472    0.3262    2.1372 H       1  UNL1        0.0620
     42 H          -2.1326    0.3437    2.3018 H       1  UNL1        0.0620
     43 H           4.2643    2.3947   -1.6399 H       1  UNL1        0.0281
     44 H           3.7051    2.2380    0.0578 H       1  UNL1        0.0281
     45 H           5.7458    0.3449   -1.2471 H       1  UNL1        0.0281
     46 H           5.9808    1.5753   -0.0037 H       1  UNL1        0.0281
@<TRIPOS>BOND
     1     1     2    1
     2     2     3    1
     3     3     4    1
     4     4     5    1
     5     5     6    1
     6     6     7    1
     7     7     8    1
     8     8     9    1
     9     9    10    1
    10    10    11   ar
    11    11    12   ar
    12    12    13   ar
    13    13    14    1
    14    14    15    1
    15    15    16    1
    16    13    17   ar
    17    17    18   ar
    18     5    19    1
    19    19    20    1
    20    20     2    1
    21     9     7    1
    22    18    10   ar
    23    16    14    1
    24     1    21    1
    25     1    22    1
    26     2    23    1
    27     3    24    1
    28     3    25    1
    29     4    26    1
    30     4    27    1
    31     5    28    1
    32     6    29    1
    33     7    30    1
    34     8    31    1
    35     8    32    1
    36     9    33    1
    37    11    34    1
    38    12    35    1
    39    14    36    1
    40    15    37    1
    41    15    38    1
    42    16    39    1
    43    16    40    1
    44    17    41    1
    45    18    42    1
    46    19    43    1
    47    19    44    1
    48    20    45    1
    49    20    46    1
