
     RDKit          3D

 61 68  0  0  0  0  0  0  0  0999 V2000
   -5.0408    1.5843   -0.1429 C   0  0  0  0  0  0  0  0  0  0  0  0
   -3.8047    2.0799   -0.6616 N   0  0  0  0  0  0  0  0  0  0  0  0
   -2.7339    1.7760    0.2320 C   0  0  2  0  0  0  0  0  0  0  0  0
   -1.3931    2.3210   -0.2850 C   0  0  0  0  0  0  0  0  0  0  0  0
   -0.4215    2.1178    0.8759 C   0  0  1  0  0  0  0  0  0  0  0  0
   -0.8478    1.2085    1.7781 O   0  0  0  0  0  0  0  0  0  0  0  0
   -1.4440    0.0457    1.3049 C   0  0  1  0  0  0  0  0  0  0  0  0
   -2.0812   -0.5558    2.5695 C   0  0  0  0  0  0  0  0  0  0  0  0
   -2.5091    0.2534    0.2934 C   0  0  2  0  0  0  0  0  0  0  0  0
   -1.9908   -0.0555   -0.9866 O   0  0  0  0  0  0  0  0  0  0  0  0
   -2.8184   -0.8808   -1.7071 C   0  0  0  0  0  0  0  0  0  0  0  0
   -0.4703   -0.9192    0.7966 N   0  0  0  0  0  0  0  0  0  0  0  0
   -0.5974   -2.2496    0.7559 C   0  0  0  0  0  0  0  0  0  0  0  0
   -1.6453   -3.0855    1.0849 C   0  0  0  0  0  0  0  0  0  0  0  0
   -1.4851   -4.4611    0.9175 C   0  0  0  0  0  0  0  0  0  0  0  0
   -0.3278   -5.0315    0.4366 C   0  0  0  0  0  0  0  0  0  0  0  0
    0.7286   -4.1886    0.1031 C   0  0  0  0  0  0  0  0  0  0  0  0
    0.5660   -2.8466    0.2690 C   0  0  0  0  0  0  0  0  0  0  0  0
    1.4508   -1.8195   -0.0088 C   0  0  0  0  0  0  0  0  0  0  0  0
    2.7410   -1.7877   -0.5153 C   0  0  0  0  0  0  0  0  0  0  0  0
    3.3655   -0.5582   -0.6914 C   0  0  0  0  0  0  0  0  0  0  0  0
    2.6901    0.6171   -0.3609 C   0  0  0  0  0  0  0  0  0  0  0  0
    3.0156    1.9422   -0.4433 C   0  0  0  0  0  0  0  0  0  0  0  0
    4.1312    2.6213   -0.8573 C   0  0  0  0  0  0  0  0  0  0  0  0
    4.1173    4.0014   -0.8063 C   0  0  0  0  0  0  0  0  0  0  0  0
    3.0115    4.7003   -0.3506 C   0  0  0  0  0  0  0  0  0  0  0  0
    1.9043    3.9977    0.0594 C   0  0  0  0  0  0  0  0  0  0  0  0
    1.8874    2.6297    0.0207 C   0  0  0  0  0  0  0  0  0  0  0  0
    0.9252    1.7927    0.3695 N   0  0  0  0  0  0  0  0  0  0  0  0
    1.3957    0.5604    0.1467 C   0  0  0  0  0  0  0  0  0  0  0  0
    0.7869   -0.6644    0.3215 C   0  0  0  0  0  0  0  0  0  0  0  0
    4.6769   -0.8560   -1.2120 C   0  0  0  0  0  0  0  0  0  0  0  0
    5.5779   -0.0395   -1.5165 O   0  0  0  0  0  0  0  0  0  0  0  0
    4.8317   -2.2923   -1.3464 N   0  0  0  0  0  0  0  0  0  0  0  0
    3.6202   -2.9110   -0.9351 C   0  0  0  0  0  0  0  0  0  0  0  0
   -5.5182    0.8003   -0.7421 H   0  0  0  0  0  0  0  0  0  0  0  0
   -4.8889    1.1871    0.8830 H   0  0  0  0  0  0  0  0  0  0  0  0
   -5.7907    2.3987   -0.0427 H   0  0  0  0  0  0  0  0  0  0  0  0
   -3.8148    3.0410   -1.0148 H   0  0  0  0  0  0  0  0  0  0  0  0
   -2.8679    2.1260    1.2556 H   0  0  0  0  0  0  0  0  0  0  0  0
   -1.0474    1.7053   -1.1323 H   0  0  0  0  0  0  0  0  0  0  0  0
   -1.4764    3.3695   -0.5863 H   0  0  0  0  0  0  0  0  0  0  0  0
   -0.3476    3.1008    1.3834 H   0  0  0  0  0  0  0  0  0  0  0  0
   -1.5227   -1.4000    2.9742 H   0  0  0  0  0  0  0  0  0  0  0  0
   -2.0560    0.2053    3.4192 H   0  0  0  0  0  0  0  0  0  0  0  0
   -3.1439   -0.7659    2.4531 H   0  0  0  0  0  0  0  0  0  0  0  0
   -3.4699   -0.2184    0.4842 H   0  0  0  0  0  0  0  0  0  0  0  0
   -3.8256   -0.4451   -1.8883 H   0  0  0  0  0  0  0  0  0  0  0  0
   -2.9861   -1.8111   -1.1402 H   0  0  0  0  0  0  0  0  0  0  0  0
   -2.3486   -1.1190   -2.6684 H   0  0  0  0  0  0  0  0  0  0  0  0
   -2.5705   -2.6982    1.4359 H   0  0  0  0  0  0  0  0  0  0  0  0
   -2.3037   -5.1098    1.1759 H   0  0  0  0  0  0  0  0  0  0  0  0
   -0.2184   -6.0929    0.3132 H   0  0  0  0  0  0  0  0  0  0  0  0
    1.6541   -4.5772   -0.2752 H   0  0  0  0  0  0  0  0  0  0  0  0
    5.0275    2.1889   -1.2225 H   0  0  0  0  0  0  0  0  0  0  0  0
    4.9599    4.5888   -1.1165 H   0  0  0  0  0  0  0  0  0  0  0  0
    3.0199    5.7814   -0.3182 H   0  0  0  0  0  0  0  0  0  0  0  0
    1.0257    4.5417    0.4211 H   0  0  0  0  0  0  0  0  0  0  0  0
    5.7160   -2.7194   -1.6939 H   0  0  0  0  0  0  0  0  0  0  0  0
    3.1500   -3.4981   -1.7556 H   0  0  0  0  0  0  0  0  0  0  0  0
    3.8315   -3.6260   -0.1100 H   0  0  0  0  0  0  0  0  0  0  0  0
  1  2  1  0
  2  3  1  0
  3  4  1  0
  4  5  1  0
  5  6  1  0
  6  7  1  0
  7  8  1  1
  7  9  1  0
  9 10  1  0
 10 11  1  0
  7 12  1  0
 12 13  1  0
 13 14  2  0
 14 15  1  0
 15 16  2  0
 16 17  1  0
 17 18  2  0
 18 19  1  0
 19 20  2  0
 20 21  1  0
 21 22  2  0
 22 23  1  0
 23 24  2  0
 24 25  1  0
 25 26  2  0
 26 27  1  0
 27 28  2  0
 28 29  1  0
 29 30  1  0
 30 31  2  0
 21 32  1  0
 32 33  2  0
 32 34  1  0
 34 35  1  0
  9  3  1  0
 31 12  1  0
 29  5  1  0
 18 13  1  0
 31 19  1  0
 35 20  1  0
 30 22  1  0
 28 23  1  0
  1 36  1  0
  1 37  1  0
  1 38  1  0
  2 39  1  0
  3 40  1  1
  4 41  1  0
  4 42  1  0
  5 43  1  1
  8 44  1  0
  8 45  1  0
  8 46  1  0
  9 47  1  1
 11 48  1  0
 11 49  1  0
 11 50  1  0
 14 51  1  0
 15 52  1  0
 16 53  1  0
 17 54  1  0
 24 55  1  0
 25 56  1  0
 26 57  1  0
 27 58  1  0
 34 59  1  0
 35 60  1  0
 35 61  1  0
M  END
$$$$
