@<TRIPOS>MOLECULE
*****
 61 68 0 0 0
SMALL
GASTEIGER

@<TRIPOS>ATOM
      1 C          -5.0408    1.5843   -0.1429 C.3     1  UNL1       -0.0155
      2 N          -3.8047    2.0799   -0.6616 N.3     1  UNL1       -0.3136
      3 C          -2.7339    1.7760    0.2320 C.3     1  UNL1        0.0423
      4 C          -1.3931    2.3210   -0.2850 C.3     1  UNL1        0.0107
      5 C          -0.4215    2.1178    0.8759 C.3     1  UNL1        0.1402
      6 O          -0.8478    1.2085    1.7781 O.3     1  UNL1       -0.3282
      7 C          -1.4440    0.0457    1.3049 C.3     1  UNL1        0.1741
      8 C          -2.0812   -0.5558    2.5695 C.3     1  UNL1       -0.0136
      9 C          -2.5091    0.2534    0.2934 C.3     1  UNL1        0.1214
     10 O          -1.9908   -0.0555   -0.9866 O.3     1  UNL1       -0.3735
     11 C          -2.8184   -0.8808   -1.7071 C.3     1  UNL1        0.0371
     12 N          -0.4703   -0.9192    0.7966 N.ar    1  UNL1       -0.3070
     13 C          -0.5974   -2.2496    0.7559 C.ar    1  UNL1        0.0527
     14 C          -1.6453   -3.0855    1.0849 C.ar    1  UNL1       -0.0375
     15 C          -1.4851   -4.4611    0.9175 C.ar    1  UNL1       -0.0598
     16 C          -0.3278   -5.0315    0.4366 C.ar    1  UNL1       -0.0611
     17 C           0.7286   -4.1886    0.1031 C.ar    1  UNL1       -0.0520
     18 C           0.5660   -2.8466    0.2690 C.ar    1  UNL1        0.0081
     19 C           1.4508   -1.8195   -0.0088 C.ar    1  UNL1        0.0151
     20 C           2.7410   -1.7877   -0.5153 C.ar    1  UNL1       -0.0078
     21 C           3.3655   -0.5582   -0.6914 C.ar    1  UNL1        0.0518
     22 C           2.6901    0.6171   -0.3609 C.ar    1  UNL1        0.0221
     23 C           3.0156    1.9422   -0.4433 C.ar    1  UNL1        0.0085
     24 C           4.1312    2.6213   -0.8573 C.ar    1  UNL1       -0.0520
     25 C           4.1173    4.0014   -0.8063 C.ar    1  UNL1       -0.0611
     26 C           3.0115    4.7003   -0.3506 C.ar    1  UNL1       -0.0598
     27 C           1.9043    3.9977    0.0594 C.ar    1  UNL1       -0.0375
     28 C           1.8874    2.6297    0.0207 C.ar    1  UNL1        0.0524
     29 N           0.9252    1.7927    0.3695 N.ar    1  UNL1       -0.3115
     30 C           1.3957    0.5604    0.1467 C.ar    1  UNL1        0.0774
     31 C           0.7869   -0.6644    0.3215 C.ar    1  UNL1        0.0772
     32 C           4.6769   -0.8560   -1.2120 C.2     1  UNL1        0.2453
     33 O           5.5779   -0.0395   -1.5165 O.2     1  UNL1       -0.2702
     34 N           4.8317   -2.2923   -1.3464 N.am    1  UNL1       -0.3072
     35 C           3.6202   -2.9110   -0.9351 C.3     1  UNL1        0.0385
     36 H          -5.5182    0.8003   -0.7421 H       1  UNL1        0.0388
     37 H          -4.8889    1.1871    0.8830 H       1  UNL1        0.0388
     38 H          -5.7907    2.3987   -0.0427 H       1  UNL1        0.0388
     39 H          -3.8148    3.0410   -1.0148 H       1  UNL1        0.1220
     40 H          -2.8679    2.1260    1.2556 H       1  UNL1        0.0489
     41 H          -1.0474    1.7053   -1.1323 H       1  UNL1        0.0325
     42 H          -1.4764    3.3695   -0.5863 H       1  UNL1        0.0325
     43 H          -0.3476    3.1008    1.3834 H       1  UNL1        0.0839
     44 H          -1.5227   -1.4000    2.9742 H       1  UNL1        0.0277
     45 H          -2.0560    0.2053    3.4192 H       1  UNL1        0.0277
     46 H          -3.1439   -0.7659    2.4531 H       1  UNL1        0.0277
     47 H          -3.4699   -0.2184    0.4842 H       1  UNL1        0.0660
     48 H          -3.8256   -0.4451   -1.8883 H       1  UNL1        0.0524
     49 H          -2.9861   -1.8111   -1.1402 H       1  UNL1        0.0524
     50 H          -2.3486   -1.1190   -2.6684 H       1  UNL1        0.0524
     51 H          -2.5705   -2.6982    1.4359 H       1  UNL1        0.0638
     52 H          -2.3037   -5.1098    1.1759 H       1  UNL1        0.0618
     53 H          -0.2184   -6.0929    0.3132 H       1  UNL1        0.0618
     54 H           1.6541   -4.5772   -0.2752 H       1  UNL1        0.0624
     55 H           5.0275    2.1889   -1.2225 H       1  UNL1        0.0624
     56 H           4.9599    4.5888   -1.1165 H       1  UNL1        0.0618
     57 H           3.0199    5.7814   -0.3182 H       1  UNL1        0.0618
     58 H           1.0257    4.5417    0.4211 H       1  UNL1        0.0638
     59 H           5.7160   -2.7194   -1.6939 H       1  UNL1        0.1493
     60 H           3.1500   -3.4981   -1.7556 H       1  UNL1        0.0512
     61 H           3.8315   -3.6260   -0.1100 H       1  UNL1        0.0512
@<TRIPOS>BOND
     1     1     2    1
     2     2     3    1
     3     3     4    1
     4     4     5    1
     5     5     6    1
     6     6     7    1
     7     7     8    1
     8     7     9    1
     9     9    10    1
    10    10    11    1
    11     7    12    1
    12    12    13   ar
    13    13    14   ar
    14    14    15   ar
    15    15    16   ar
    16    16    17   ar
    17    17    18   ar
    18    18    19   ar
    19    19    20   ar
    20    20    21   ar
    21    21    22   ar
    22    22    23   ar
    23    23    24   ar
    24    24    25   ar
    25    25    26   ar
    26    26    27   ar
    27    27    28   ar
    28    28    29   ar
    29    29    30   ar
    30    30    31   ar
    31    21    32    1
    32    32    33    2
    33    32    34   am
    34    34    35    1
    35     9     3    1
    36    31    12   ar
    37    29     5    1
    38    18    13   ar
    39    31    19   ar
    40    35    20    1
    41    30    22   ar
    42    28    23   ar
    43     1    36    1
    44     1    37    1
    45     1    38    1
    46     2    39    1
    47     3    40    1
    48     4    41    1
    49     4    42    1
    50     5    43    1
    51     8    44    1
    52     8    45    1
    53     8    46    1
    54     9    47    1
    55    11    48    1
    56    11    49    1
    57    11    50    1
    58    14    51    1
    59    15    52    1
    60    16    53    1
    61    17    54    1
    62    24    55    1
    63    25    56    1
    64    26    57    1
    65    27    58    1
    66    34    59    1
    67    35    60    1
    68    35    61    1
