@<TRIPOS>MOLECULE
*****
 61 64 0 0 0
SMALL
GASTEIGER

@<TRIPOS>ATOM
      1 C          -2.3420    1.1249   -0.5724 C.3     1  UNL1        0.0728
      2 C          -2.7367    2.1822   -1.5598 C.3     1  UNL1        0.0178
      3 N          -3.7030    1.8438   -2.5388 N.3     1  UNL1       -0.3141
      4 C          -3.2698    1.2536   -3.7513 C.3     1  UNL1       -0.0039
      5 C          -2.5302   -0.0661   -3.4717 C.3     1  UNL1       -0.0370
      6 C          -1.3361    0.3253   -2.6702 C.3     1  UNL1       -0.0127
      7 C          -1.4741    0.0887   -1.1803 C.3     1  UNL1        0.1228
      8 O          -0.1807    0.0411   -0.5899 O.3     1  UNL1       -0.4560
      9 C           0.4681   -0.9817    0.0274 C.2     1  UNL1        0.3395
     10 O          -0.0869   -2.0616    0.1431 O.2     1  UNL1       -0.2450
     11 C           1.7606   -0.4537    0.4040 C.ar    1  UNL1        0.0590
     12 C           2.6642   -1.3713    0.9840 C.ar    1  UNL1       -0.0471
     13 C           3.9369   -1.0389    1.3790 C.ar    1  UNL1       -0.0501
     14 C           4.4971    0.2106    1.2649 C.ar    1  UNL1        0.0224
     15 C           3.5729    1.1254    0.6832 C.ar    1  UNL1       -0.0501
     16 C           2.3166    0.7790    0.2983 C.ar    1  UNL1       -0.0471
     17 C           5.8380    0.7351    1.4789 C.2     1  UNL1        0.1966
     18 O           5.6744    1.9155    1.9584 O.2     1  UNL1       -0.2865
     19 C           6.8460   -0.1851    1.0986 C.ar    1  UNL1        0.0636
     20 C           7.8899    0.8980    1.3189 C.ar    1  UNL1       -0.0474
     21 C           9.3240    0.9162    1.1794 C.ar    1  UNL1       -0.0609
     22 C           9.9131   -0.2691    0.7628 C.ar    1  UNL1       -0.0583
     23 C           9.1138   -1.3466    0.5186 C.ar    1  UNL1       -0.0195
     24 C           7.8140   -1.0677    0.7338 C.ar    1  UNL1        0.1277
     25 O           6.7664   -2.0284    0.5425 O.3     1  UNL1       -0.5061
     26 N          -3.3670    0.6778    0.3151 N.am    1  UNL1       -0.3037
     27 C          -4.0124    0.3294    1.5126 C.2     1  UNL1        0.2444
     28 O          -3.1495    0.4886    2.4237 O.2     1  UNL1       -0.2702
     29 C          -5.4076   -0.1108    1.5273 C.ar    1  UNL1        0.0369
     30 C          -6.2922    0.4930    0.6182 C.ar    1  UNL1       -0.0462
     31 C          -7.5791    0.0652    0.6140 C.ar    1  UNL1       -0.0195
     32 C          -8.0549   -0.9326    1.4582 C.ar    1  UNL1        0.1169
     33 O          -9.4040   -1.1574    1.2302 O.3     1  UNL1       -0.5068
     34 C          -7.2067   -1.5352    2.3536 C.ar    1  UNL1       -0.0195
     35 C          -5.9023   -1.0831    2.3400 C.ar    1  UNL1       -0.0462
     36 H          -1.6280    1.7137    0.1415 H       1  UNL1        0.0547
     37 H          -3.2442    2.9761   -0.9096 H       1  UNL1        0.0443
     38 H          -1.8702    2.7391   -1.9557 H       1  UNL1        0.0443
     39 H          -4.5298    1.3261   -2.1894 H       1  UNL1        0.1220
     40 H          -2.5948    1.9300   -4.3559 H       1  UNL1        0.0424
     41 H          -4.1710    0.9528   -4.3310 H       1  UNL1        0.0424
     42 H          -2.1974   -0.4911   -4.4467 H       1  UNL1        0.0279
     43 H          -3.1540   -0.7390   -2.8914 H       1  UNL1        0.0279
     44 H          -0.9414    1.3283   -2.9203 H       1  UNL1        0.0302
     45 H          -0.4681   -0.3571   -2.9674 H       1  UNL1        0.0302
     46 H          -1.9216   -0.9089   -1.0287 H       1  UNL1        0.0753
     47 H           2.3653   -2.4091    1.1489 H       1  UNL1        0.0626
     48 H           4.5693   -1.7726    1.8399 H       1  UNL1        0.0625
     49 H           3.8047    2.1800    0.5005 H       1  UNL1        0.0625
     50 H           1.6112    1.5012   -0.1454 H       1  UNL1        0.0626
     51 H           7.9166    2.0022    1.6313 H       1  UNL1        0.0626
     52 H          10.1678    1.6094    1.3099 H       1  UNL1        0.0618
     53 H          10.9268   -0.5607    0.5718 H       1  UNL1        0.0619
     54 H           9.2145   -2.3674    0.1995 H       1  UNL1        0.0654
     55 H           6.6963   -2.7435    1.2773 H       1  UNL1        0.2922
     56 H          -4.0326    0.4834   -0.5007 H       1  UNL1        0.1495
     57 H          -5.8839    1.2861   -0.0301 H       1  UNL1        0.0626
     58 H          -8.1815    0.6018   -0.1388 H       1  UNL1        0.0654
     59 H         -10.0210   -0.3462    1.3850 H       1  UNL1        0.2921
     60 H          -7.6115   -2.3007    2.9612 H       1  UNL1        0.0654
     61 H          -5.1823   -1.5178    3.0099 H       1  UNL1        0.0626
@<TRIPOS>BOND
     1     1     2    1
     2     2     3    1
     3     3     4    1
     4     4     5    1
     5     5     6    1
     6     6     7    1
     7     7     8    1
     8     8     9    1
     9     9    10    2
    10     9    11    1
    11    11    12   ar
    12    12    13   ar
    13    13    14   ar
    14    14    15   ar
    15    15    16   ar
    16    14    17    1
    17    17    18    2
    18    17    19    1
    19    19    20   ar
    20    20    21   ar
    21    21    22   ar
    22    22    23   ar
    23    23    24   ar
    24    24    25    1
    25     1    26    1
    26    26    27   am
    27    27    28    2
    28    27    29    1
    29    29    30   ar
    30    30    31   ar
    31    31    32   ar
    32    32    33    1
    33    32    34   ar
    34    34    35   ar
    35     7     1    1
    36    16    11   ar
    37    24    19   ar
    38    35    29   ar
    39     1    36    1
    40     2    37    1
    41     2    38    1
    42     3    39    1
    43     4    40    1
    44     4    41    1
    45     5    42    1
    46     5    43    1
    47     6    44    1
    48     6    45    1
    49     7    46    1
    50    12    47    1
    51    13    48    1
    52    15    49    1
    53    16    50    1
    54    20    51    1
    55    21    52    1
    56    22    53    1
    57    23    54    1
    58    25    55    1
    59    26    56    1
    60    30    57    1
    61    31    58    1
    62    33    59    1
    63    34    60    1
    64    35    61    1
