@<TRIPOS>MOLECULE
*****
 56 59 0 0 0
SMALL
GASTEIGER

@<TRIPOS>ATOM
      1 C           4.2276    0.1781   -0.4390 C.3     1  UNL1       -0.0165
      2 C           3.0766   -0.5444    0.1635 C.3     1  UNL1        0.1800
      3 C           3.3027   -2.0688    0.1036 C.3     1  UNL1       -0.0165
      4 O           2.8616   -0.2433    1.5026 O.3     1  UNL1       -0.4756
      5 C           3.7108   -0.4160    2.5673 C.ar    1  UNL1        0.1404
      6 C           3.7138   -1.6378    3.2578 C.ar    1  UNL1       -0.0157
      7 C           4.5408   -1.8418    4.3172 C.ar    1  UNL1       -0.0229
      8 C           5.3894   -0.8428    4.7249 C.ar    1  UNL1        0.1250
      9 F           6.2079   -1.0501    5.7768 F       1  UNL1       -0.2054
     10 C           5.4087    0.3648    4.0683 C.ar    1  UNL1       -0.0046
     11 C           4.5622    0.5701    2.9861 C.ar    1  UNL1        0.0853
     12 CL          4.6049    2.1441    2.1886 Cl      1  UNL1       -0.0797
     13 C           1.8098   -0.3402   -0.6028 C.2     1  UNL1        0.2566
     14 O           1.7901   -0.5437   -1.8185 O.2     1  UNL1       -0.2714
     15 N           0.5998    0.0832   -0.0003 N.am    1  UNL1       -0.3087
     16 C          -0.5918    0.2720   -0.7354 C.3     1  UNL1        0.0290
     17 C          -1.6714   -0.7543   -0.4692 C.3     1  UNL1       -0.0201
     18 C          -2.5057   -0.4686    0.7308 C.3     1  UNL1       -0.0455
     19 C          -3.0727    0.9252    0.6915 C.3     1  UNL1       -0.0384
     20 C          -2.0509    1.9874    0.4184 C.3     1  UNL1       -0.0455
     21 C          -1.1781    1.6487   -0.7525 C.3     1  UNL1       -0.0201
     22 C          -2.1257    1.6883   -1.9460 C.3     1  UNL1       -0.0233
     23 C          -3.2206    0.6594   -1.7542 C.3     1  UNL1        0.0884
     24 S          -4.3441    0.7418   -3.1219 S.O2    1  UNL1       -0.0282
     25 C          -5.6550   -0.4559   -2.9451 C.3     1  UNL1        0.0551
     26 O          -5.0272    2.0983   -3.1714 O.2     1  UNL1       -0.1741
     27 O          -3.6431    0.5720   -4.4382 O.2     1  UNL1       -0.1741
     28 C          -4.0318    0.9487   -0.4953 C.3     1  UNL1       -0.0250
     29 C          -2.6083   -0.7193   -1.6666 C.3     1  UNL1       -0.0233
     30 H           5.1177    0.0090    0.1958 H       1  UNL1        0.0273
     31 H           3.9630    1.2444   -0.5559 H       1  UNL1        0.0273
     32 H           4.3960   -0.2877   -1.4511 H       1  UNL1        0.0273
     33 H           2.4420   -2.5855    0.5757 H       1  UNL1        0.0273
     34 H           3.3008   -2.3039   -0.9880 H       1  UNL1        0.0273
     35 H           4.2323   -2.3667    0.5890 H       1  UNL1        0.0273
     36 H           3.0183   -2.3955    2.8911 H       1  UNL1        0.0655
     37 H           4.4981   -2.8041    4.8101 H       1  UNL1        0.0647
     38 H           6.0768    1.1482    4.3916 H       1  UNL1        0.0662
     39 H           0.6798    0.2448    1.0564 H       1  UNL1        0.1491
     40 H          -0.3197    0.0728   -1.8002 H       1  UNL1        0.0504
     41 H          -1.2127   -1.7641   -0.3904 H       1  UNL1        0.0319
     42 H          -2.0174   -0.7163    1.6936 H       1  UNL1        0.0271
     43 H          -3.3857   -1.1532    0.6781 H       1  UNL1        0.0271
     44 H          -3.6040    1.1050    1.6257 H       1  UNL1        0.0302
     45 H          -2.6556    2.8933    0.0990 H       1  UNL1        0.0271
     46 H          -1.5239    2.3502    1.3015 H       1  UNL1        0.0271
     47 H          -0.4186    2.4209   -0.9086 H       1  UNL1        0.0319
     48 H          -1.6208    1.4828   -2.8997 H       1  UNL1        0.0290
     49 H          -2.6257    2.6997   -1.9589 H       1  UNL1        0.0290
     50 H          -5.2727   -1.4826   -2.9986 H       1  UNL1        0.0464
     51 H          -6.3748   -0.2588   -3.7635 H       1  UNL1        0.0464
     52 H          -6.1723   -0.2818   -1.9959 H       1  UNL1        0.0464
     53 H          -4.4630    1.9650   -0.5850 H       1  UNL1        0.0289
     54 H          -4.7826    0.1569   -0.4214 H       1  UNL1        0.0289
     55 H          -1.9903   -0.8411   -2.5933 H       1  UNL1        0.0290
     56 H          -3.3653   -1.5066   -1.5942 H       1  UNL1        0.0290
@<TRIPOS>BOND
     1     1     2    1
     2     2     3    1
     3     2     4    1
     4     4     5    1
     5     5     6   ar
     6     6     7   ar
     7     7     8   ar
     8     8     9    1
     9     8    10   ar
    10    10    11   ar
    11    11    12    1
    12     2    13    1
    13    13    14    2
    14    13    15   am
    15    15    16    1
    16    16    17    1
    17    17    18    1
    18    18    19    1
    19    19    20    1
    20    20    21    1
    21    21    22    1
    22    22    23    1
    23    23    24    1
    24    24    25    1
    25    24    26    2
    26    24    27    2
    27    23    28    1
    28    23    29    1
    29    11     5   ar
    30    21    16    1
    31    29    17    1
    32    28    19    1
    33     1    30    1
    34     1    31    1
    35     1    32    1
    36     3    33    1
    37     3    34    1
    38     3    35    1
    39     6    36    1
    40     7    37    1
    41    10    38    1
    42    15    39    1
    43    16    40    1
    44    17    41    1
    45    18    42    1
    46    18    43    1
    47    19    44    1
    48    20    45    1
    49    20    46    1
    50    21    47    1
    51    22    48    1
    52    22    49    1
    53    25    50    1
    54    25    51    1
    55    25    52    1
    56    28    53    1
    57    28    54    1
    58    29    55    1
    59    29    56    1
