
     RDKit          3D

 46 49  0  0  0  0  0  0  0  0999 V2000
    3.6579    2.4675    2.0167 C   0  0  0  0  0  0  0  0  0  0  0  0
    4.4043    1.3950    1.2619 C   0  0  0  0  0  0  0  0  0  0  0  0
    5.7579    1.5937    1.0252 C   0  0  0  0  0  0  0  0  0  0  0  0
    6.4404    0.6424    0.3216 C   0  0  0  0  0  0  0  0  0  0  0  0
    7.8232    0.7745    0.0377 C   0  0  0  0  0  0  0  0  0  0  0  0
    8.9745    0.8798   -0.1932 N   0  0  0  0  0  0  0  0  0  0  0  0
    5.7421   -0.4908   -0.1291 C   0  0  0  0  0  0  0  0  0  0  0  0
    4.4431   -0.6448    0.1186 N   0  0  0  0  0  0  0  0  0  0  0  0
    3.7394    0.2823    0.8149 C   0  0  0  0  0  0  0  0  0  0  0  0
    2.3247    0.0806    1.1030 C   0  0  0  0  0  0  0  0  0  0  0  0
    1.7236    0.8372    1.8976 O   0  0  0  0  0  0  0  0  0  0  0  0
    1.6467   -0.9925    0.4614 N   0  0  0  0  0  0  0  0  0  0  0  0
    0.2678   -1.2659    0.6929 C   0  0  0  0  0  0  0  0  0  0  0  0
   -0.0818   -2.2009    1.6760 C   0  0  0  0  0  0  0  0  0  0  0  0
   -1.4053   -2.4885    1.9390 C   0  0  0  0  0  0  0  0  0  0  0  0
   -1.7255   -3.4144    2.9082 F   0  0  0  0  0  0  0  0  0  0  0  0
   -2.4381   -1.8811    1.2598 C   0  0  0  0  0  0  0  0  0  0  0  0
   -3.7431   -2.1640    1.5105 F   0  0  0  0  0  0  0  0  0  0  0  0
   -2.0891   -0.9556    0.2881 C   0  0  0  0  0  0  0  0  0  0  0  0
   -3.1902   -0.2495   -0.4648 C   0  0  1  0  0  0  0  0  0  0  0  0
   -3.8447    0.6387    0.5959 C   0  0  0  0  0  0  0  0  0  0  0  0
   -2.8843    1.5243    1.1109 F   0  0  0  0  0  0  0  0  0  0  0  0
   -2.5466    0.6368   -1.3960 N   0  0  0  0  0  0  0  0  0  0  0  0
   -2.9653    0.8807   -2.5894 C   0  0  0  0  0  0  0  0  0  0  0  0
   -2.2323    1.7811   -3.4132 N   0  0  0  0  0  0  0  0  0  0  0  0
   -4.1010    0.2694   -3.0290 O   0  0  0  0  0  0  0  0  0  0  0  0
   -4.6387   -0.8568   -2.4230 C   0  0  2  0  0  0  0  0  0  0  0  0
   -5.5666   -0.7460   -1.2397 C   0  0  0  0  0  0  0  0  0  0  0  0
   -4.1346   -1.2024   -1.0834 C   0  0  2  0  0  0  0  0  0  0  0  0
   -0.7706   -0.6672    0.0229 C   0  0  0  0  0  0  0  0  0  0  0  0
    3.3052    2.0690    2.9702 H   0  0  0  0  0  0  0  0  0  0  0  0
    2.8090    2.7762    1.3979 H   0  0  0  0  0  0  0  0  0  0  0  0
    4.3458    3.3116    2.2575 H   0  0  0  0  0  0  0  0  0  0  0  0
    6.2328    2.5001    1.4052 H   0  0  0  0  0  0  0  0  0  0  0  0
    6.3415   -1.2088   -0.6762 H   0  0  0  0  0  0  0  0  0  0  0  0
    2.2055   -1.5764   -0.1914 H   0  0  0  0  0  0  0  0  0  0  0  0
    0.7226   -2.6790    2.2112 H   0  0  0  0  0  0  0  0  0  0  0  0
   -4.2333    0.0611    1.4536 H   0  0  0  0  0  0  0  0  0  0  0  0
   -4.6888    1.2343    0.1899 H   0  0  0  0  0  0  0  0  0  0  0  0
   -2.2818    1.7262   -4.4539 H   0  0  0  0  0  0  0  0  0  0  0  0
   -1.6473    2.4929   -2.9693 H   0  0  0  0  0  0  0  0  0  0  0  0
   -4.9113   -1.6769   -3.1189 H   0  0  0  0  0  0  0  0  0  0  0  0
   -5.8948    0.2705   -1.0449 H   0  0  0  0  0  0  0  0  0  0  0  0
   -6.3717   -1.5208   -1.1221 H   0  0  0  0  0  0  0  0  0  0  0  0
   -4.0239   -2.3014   -0.8977 H   0  0  0  0  0  0  0  0  0  0  0  0
   -0.4973    0.0577   -0.7490 H   0  0  0  0  0  0  0  0  0  0  0  0
  1  2  1  0
  2  3  2  0
  3  4  1  0
  4  5  1  0
  5  6  3  0
  4  7  2  0
  7  8  1  0
  8  9  2  0
  9 10  1  0
 10 11  2  0
 10 12  1  0
 12 13  1  0
 13 14  2  0
 14 15  1  0
 15 16  1  0
 15 17  2  0
 17 18  1  0
 17 19  1  0
 19 20  1  0
 20 21  1  1
 21 22  1  0
 20 23  1  0
 23 24  2  0
 24 25  1  0
 24 26  1  0
 26 27  1  0
 27 28  1  0
 28 29  1  0
 19 30  2  0
  9  2  1  0
 30 13  1  0
 29 20  1  0
 29 27  1  0
  1 31  1  0
  1 32  1  0
  1 33  1  0
  3 34  1  0
  7 35  1  0
 12 36  1  0
 14 37  1  0
 21 38  1  0
 21 39  1  0
 25 40  1  0
 25 41  1  0
 27 42  1  6
 28 43  1  0
 28 44  1  0
 29 45  1  6
 30 46  1  0
M  END
$$$$
