@<TRIPOS>MOLECULE
*****
 46 49 0 0 0
SMALL
GASTEIGER

@<TRIPOS>ATOM
      1 C           3.6579    2.4675    2.0167 C.3     1  UNL1       -0.0375
      2 C           4.4043    1.3950    1.2619 C.ar    1  UNL1       -0.0187
      3 C           5.7579    1.5937    1.0252 C.ar    1  UNL1       -0.0378
      4 C           6.4404    0.6424    0.3216 C.ar    1  UNL1        0.0701
      5 C           7.8232    0.7745    0.0377 C.1     1  UNL1        0.1007
      6 N           8.9745    0.8798   -0.1932 N.1     1  UNL1       -0.1908
      7 C           5.7421   -0.4908   -0.1291 C.ar    1  UNL1        0.0458
      8 N           4.4431   -0.6448    0.1186 N.ar    1  UNL1       -0.2488
      9 C           3.7394    0.2823    0.8149 C.ar    1  UNL1        0.1286
     10 C           2.3247    0.0806    1.1030 C.2     1  UNL1        0.2668
     11 O           1.7236    0.8372    1.8976 O.2     1  UNL1       -0.2682
     12 N           1.6467   -0.9925    0.4614 N.am    1  UNL1       -0.2801
     13 C           0.2678   -1.2659    0.6929 C.ar    1  UNL1        0.0369
     14 C          -0.0818   -2.2009    1.6760 C.ar    1  UNL1       -0.0023
     15 C          -1.4053   -2.4885    1.9390 C.ar    1  UNL1        0.1605
     16 F          -1.7255   -3.4144    2.9082 F       1  UNL1       -0.2024
     17 C          -2.4381   -1.8811    1.2598 C.ar    1  UNL1        0.1641
     18 F          -3.7431   -2.1640    1.5105 F       1  UNL1       -0.2021
     19 C          -2.0891   -0.9556    0.2881 C.ar    1  UNL1        0.0227
     20 C          -3.1902   -0.2495   -0.4648 C.3     1  UNL1        0.1285
     21 C          -3.8447    0.6387    0.5959 C.3     1  UNL1        0.1199
     22 F          -2.8843    1.5243    1.1109 F       1  UNL1       -0.2462
     23 N          -2.5466    0.6368   -1.3960 N.2     1  UNL1       -0.2225
     24 C          -2.9653    0.8807   -2.5894 C.2     1  UNL1        0.2763
     25 N          -2.2323    1.7811   -3.4132 N.pl3   1  UNL1       -0.3134
     26 O          -4.1010    0.2694   -3.0290 O.2     1  UNL1       -0.4622
     27 C          -4.6387   -0.8568   -2.4230 C.3     1  UNL1        0.1090
     28 C          -5.5666   -0.7460   -1.2397 C.3     1  UNL1       -0.0065
     29 C          -4.1346   -1.2024   -1.0834 C.3     1  UNL1        0.0315
     30 C          -0.7706   -0.6672    0.0229 C.ar    1  UNL1       -0.0320
     31 H           3.3052    2.0690    2.9702 H       1  UNL1        0.0278
     32 H           2.8090    2.7762    1.3979 H       1  UNL1        0.0278
     33 H           4.3458    3.3116    2.2575 H       1  UNL1        0.0278
     34 H           6.2328    2.5001    1.4052 H       1  UNL1        0.0634
     35 H           6.3415   -1.2088   -0.6762 H       1  UNL1        0.0843
     36 H           2.2055   -1.5764   -0.1914 H       1  UNL1        0.1552
     37 H           0.7226   -2.6790    2.2112 H       1  UNL1        0.0666
     38 H          -4.2333    0.0611    1.4536 H       1  UNL1        0.0643
     39 H          -4.6888    1.2343    0.1899 H       1  UNL1        0.0643
     40 H          -2.2818    1.7262   -4.4539 H       1  UNL1        0.1466
     41 H          -1.6473    2.4929   -2.9693 H       1  UNL1        0.1466
     42 H          -4.9113   -1.6769   -3.1189 H       1  UNL1        0.0737
     43 H          -5.8948    0.2705   -1.0449 H       1  UNL1        0.0306
     44 H          -6.3717   -1.5208   -1.1221 H       1  UNL1        0.0306
     45 H          -4.0239   -2.3014   -0.8977 H       1  UNL1        0.0365
     46 H          -0.4973    0.0577   -0.7490 H       1  UNL1        0.0640
@<TRIPOS>BOND
     1     1     2    1
     2     2     3   ar
     3     3     4   ar
     4     4     5    1
     5     5     6    3
     6     4     7   ar
     7     7     8   ar
     8     8     9   ar
     9     9    10    1
    10    10    11    2
    11    10    12   am
    12    12    13    1
    13    13    14   ar
    14    14    15   ar
    15    15    16    1
    16    15    17   ar
    17    17    18    1
    18    17    19   ar
    19    19    20    1
    20    20    21    1
    21    21    22    1
    22    20    23    1
    23    23    24    2
    24    24    25    1
    25    24    26    1
    26    26    27    1
    27    27    28    1
    28    28    29    1
    29    19    30   ar
    30     9     2   ar
    31    30    13   ar
    32    29    20    1
    33    29    27    1
    34     1    31    1
    35     1    32    1
    36     1    33    1
    37     3    34    1
    38     7    35    1
    39    12    36    1
    40    14    37    1
    41    21    38    1
    42    21    39    1
    43    25    40    1
    44    25    41    1
    45    27    42    1
    46    28    43    1
    47    28    44    1
    48    29    45    1
    49    30    46    1
