@<TRIPOS>MOLECULE
*****
 35 36 0 0 0
SMALL
GASTEIGER

@<TRIPOS>ATOM
      1 C           4.3598   -1.8493    0.1388 C.3     1  UNL1       -0.0014
      2 C           4.2553   -0.5127    0.7451 C.2     1  UNL1        0.1602
      3 O           5.1824    0.0275    1.3972 O.2     1  UNL1       -0.2924
      4 C           3.0134    0.2511    0.5950 C.ar    1  UNL1        0.0189
      5 C           2.8410    1.4995    1.1300 C.ar    1  UNL1       -0.0504
      6 C           1.6831    2.2299    0.9973 C.ar    1  UNL1       -0.0453
      7 C           0.6125    1.6937    0.2849 C.ar    1  UNL1        0.0799
      8 C          -0.5553    2.5465    0.1089 C.2     1  UNL1        0.3386
      9 O          -1.5563    2.2662   -0.5947 O.2     1  UNL1       -0.2451
     10 O          -0.6212    3.7832    0.7489 O.3     1  UNL1       -0.4771
     11 C           0.7624    0.4451   -0.2563 C.ar    1  UNL1        0.0461
     12 N          -0.3121   -0.1254   -0.9927 N.pl3   1  UNL1       -0.3132
     13 C          -1.5114   -0.4796   -0.3140 C.ar    1  UNL1        0.0454
     14 C          -1.5675   -0.3336    1.0891 C.ar    1  UNL1       -0.0397
     15 C          -2.6980   -0.6589    1.7897 C.ar    1  UNL1       -0.0600
     16 C          -3.7678   -1.1310    1.0675 C.ar    1  UNL1       -0.0609
     17 C          -3.7512   -1.2861   -0.2927 C.ar    1  UNL1       -0.0460
     18 C          -2.5875   -0.9499   -1.0040 C.ar    1  UNL1        0.0799
     19 C          -2.6257   -1.1278   -2.4395 C.2     1  UNL1        0.3386
     20 O          -1.7171   -0.8861   -3.2395 O.2     1  UNL1       -0.2451
     21 O          -3.7985   -1.6295   -3.0676 O.3     1  UNL1       -0.4771
     22 C           1.9297   -0.2574   -0.1076 C.ar    1  UNL1       -0.0293
     23 H           5.4322   -2.1295    0.0613 H       1  UNL1        0.0309
     24 H           3.8551   -2.5942    0.7990 H       1  UNL1        0.0309
     25 H           3.9412   -1.9034   -0.8797 H       1  UNL1        0.0309
     26 H           3.6749    1.9162    1.6844 H       1  UNL1        0.0625
     27 H           1.5782    3.2210    1.4357 H       1  UNL1        0.0626
     28 H          -1.2948    4.4986    0.5007 H       1  UNL1        0.2954
     29 H          -0.1296   -0.2463   -2.0002 H       1  UNL1        0.1522
     30 H          -0.6712    0.0486    1.5870 H       1  UNL1        0.0636
     31 H          -2.7243   -0.5396    2.8765 H       1  UNL1        0.0618
     32 H          -4.6770   -1.3957    1.6061 H       1  UNL1        0.0618
     33 H          -4.6071   -1.6614   -0.8500 H       1  UNL1        0.0626
     34 H          -3.9711   -1.4768   -4.0519 H       1  UNL1        0.2954
     35 H           2.0233   -1.2530   -0.5526 H       1  UNL1        0.0643
@<TRIPOS>BOND
     1     1     2    1
     2     2     3    2
     3     2     4    1
     4     4     5   ar
     5     5     6   ar
     6     6     7   ar
     7     7     8    1
     8     8     9    2
     9     8    10    1
    10     7    11   ar
    11    11    12    1
    12    12    13    1
    13    13    14   ar
    14    14    15   ar
    15    15    16   ar
    16    16    17   ar
    17    17    18   ar
    18    18    19    1
    19    19    20    2
    20    19    21    1
    21    11    22   ar
    22    22     4   ar
    23    18    13   ar
    24     1    23    1
    25     1    24    1
    26     1    25    1
    27     5    26    1
    28     6    27    1
    29    10    28    1
    30    12    29    1
    31    14    30    1
    32    15    31    1
    33    16    32    1
    34    17    33    1
    35    21    34    1
    36    22    35    1
