
     RDKit          3D

 35 36  0  0  0  0  0  0  0  0999 V2000
    4.3598   -1.8493    0.1388 C   0  0  0  0  0  0  0  0  0  0  0  0
    4.2553   -0.5127    0.7451 C   0  0  0  0  0  0  0  0  0  0  0  0
    5.1824    0.0275    1.3972 O   0  0  0  0  0  0  0  0  0  0  0  0
    3.0134    0.2511    0.5950 C   0  0  0  0  0  0  0  0  0  0  0  0
    2.8410    1.4995    1.1300 C   0  0  0  0  0  0  0  0  0  0  0  0
    1.6831    2.2299    0.9973 C   0  0  0  0  0  0  0  0  0  0  0  0
    0.6125    1.6937    0.2849 C   0  0  0  0  0  0  0  0  0  0  0  0
   -0.5553    2.5465    0.1089 C   0  0  0  0  0  0  0  0  0  0  0  0
   -1.5563    2.2662   -0.5947 O   0  0  0  0  0  0  0  0  0  0  0  0
   -0.6212    3.7832    0.7489 O   0  0  0  0  0  0  0  0  0  0  0  0
    0.7624    0.4451   -0.2563 C   0  0  0  0  0  0  0  0  0  0  0  0
   -0.3121   -0.1254   -0.9927 N   0  0  0  0  0  0  0  0  0  0  0  0
   -1.5114   -0.4796   -0.3140 C   0  0  0  0  0  0  0  0  0  0  0  0
   -1.5675   -0.3336    1.0891 C   0  0  0  0  0  0  0  0  0  0  0  0
   -2.6980   -0.6589    1.7897 C   0  0  0  0  0  0  0  0  0  0  0  0
   -3.7678   -1.1310    1.0675 C   0  0  0  0  0  0  0  0  0  0  0  0
   -3.7512   -1.2861   -0.2927 C   0  0  0  0  0  0  0  0  0  0  0  0
   -2.5875   -0.9499   -1.0040 C   0  0  0  0  0  0  0  0  0  0  0  0
   -2.6257   -1.1278   -2.4395 C   0  0  0  0  0  0  0  0  0  0  0  0
   -1.7171   -0.8861   -3.2395 O   0  0  0  0  0  0  0  0  0  0  0  0
   -3.7985   -1.6295   -3.0676 O   0  0  0  0  0  0  0  0  0  0  0  0
    1.9297   -0.2574   -0.1076 C   0  0  0  0  0  0  0  0  0  0  0  0
    5.4322   -2.1295    0.0613 H   0  0  0  0  0  0  0  0  0  0  0  0
    3.8551   -2.5942    0.7990 H   0  0  0  0  0  0  0  0  0  0  0  0
    3.9412   -1.9034   -0.8797 H   0  0  0  0  0  0  0  0  0  0  0  0
    3.6749    1.9162    1.6844 H   0  0  0  0  0  0  0  0  0  0  0  0
    1.5782    3.2210    1.4357 H   0  0  0  0  0  0  0  0  0  0  0  0
   -1.2948    4.4986    0.5007 H   0  0  0  0  0  0  0  0  0  0  0  0
   -0.1296   -0.2463   -2.0002 H   0  0  0  0  0  0  0  0  0  0  0  0
   -0.6712    0.0486    1.5870 H   0  0  0  0  0  0  0  0  0  0  0  0
   -2.7243   -0.5396    2.8765 H   0  0  0  0  0  0  0  0  0  0  0  0
   -4.6770   -1.3957    1.6061 H   0  0  0  0  0  0  0  0  0  0  0  0
   -4.6071   -1.6614   -0.8500 H   0  0  0  0  0  0  0  0  0  0  0  0
   -3.9711   -1.4768   -4.0519 H   0  0  0  0  0  0  0  0  0  0  0  0
    2.0233   -1.2530   -0.5526 H   0  0  0  0  0  0  0  0  0  0  0  0
  1  2  1  0
  2  3  2  0
  2  4  1  0
  4  5  2  0
  5  6  1  0
  6  7  2  0
  7  8  1  0
  8  9  2  0
  8 10  1  0
  7 11  1  0
 11 12  1  0
 12 13  1  0
 13 14  2  0
 14 15  1  0
 15 16  2  0
 16 17  1  0
 17 18  2  0
 18 19  1  0
 19 20  2  0
 19 21  1  0
 11 22  2  0
 22  4  1  0
 18 13  1  0
  1 23  1  0
  1 24  1  0
  1 25  1  0
  5 26  1  0
  6 27  1  0
 10 28  1  0
 12 29  1  0
 14 30  1  0
 15 31  1  0
 16 32  1  0
 17 33  1  0
 21 34  1  0
 22 35  1  0
M  END
$$$$
