@<TRIPOS>MOLECULE
*****
 55 58 0 0 0
SMALL
GASTEIGER

@<TRIPOS>ATOM
      1 O           7.9741    0.8526    0.4866 O.3     1  UNL1       -0.3937
      2 C           6.5755    0.9032    0.2878 C.3     1  UNL1        0.0569
      3 C           6.0947   -0.5147    0.2821 C.3     1  UNL1        0.0222
      4 N           4.6817   -0.6592    0.0901 N.3     1  UNL1       -0.2977
      5 C           4.2392   -0.2838   -1.2147 C.3     1  UNL1        0.0118
      6 C           3.0479    0.6521   -1.1804 C.3     1  UNL1        0.0117
      7 N           2.0635    0.1104   -0.3051 N.3     1  UNL1       -0.2996
      8 C           0.7577    0.5688   -0.5419 C.3     1  UNL1        0.0024
      9 C          -0.2861   -0.0051    0.3875 C.3     1  UNL1       -0.0211
     10 C          -1.6348    0.4433    0.2032 C.2     1  UNL1       -0.0745
     11 C          -2.7145   -0.2572   -0.0744 C.2     1  UNL1       -0.0125
     12 C          -2.5893   -1.7058   -0.2514 C.ar    1  UNL1       -0.0039
     13 C          -1.3615   -2.2151   -0.5889 C.ar    1  UNL1       -0.0530
     14 C          -1.2462   -3.5684   -0.8768 C.ar    1  UNL1       -0.0611
     15 C          -2.3207   -4.4129   -0.8403 C.ar    1  UNL1       -0.0607
     16 C          -3.5425   -3.9030   -0.5102 C.ar    1  UNL1       -0.0474
     17 C          -3.6927   -2.5750   -0.2180 C.ar    1  UNL1        0.0205
     18 S          -5.3178   -1.9904    0.1950 S.3     1  UNL1       -0.0882
     19 C          -5.2423   -0.2172    0.1764 C.ar    1  UNL1        0.0205
     20 C          -6.4669    0.4320    0.2704 C.ar    1  UNL1       -0.0469
     21 C          -6.4802    1.7968    0.3176 C.ar    1  UNL1       -0.0490
     22 C          -5.2897    2.4900    0.2709 C.ar    1  UNL1        0.0555
     23 C          -5.2588    3.9583    0.3214 C.3     1  UNL1        0.4174
     24 F          -5.4808    4.3958    1.6359 F       1  UNL1       -0.1659
     25 F          -4.0395    4.4204   -0.1043 F       1  UNL1       -0.1659
     26 F          -6.2959    4.4566   -0.4624 F       1  UNL1       -0.1659
     27 C          -4.0787    1.7897    0.1746 C.ar    1  UNL1       -0.0413
     28 C          -4.0441    0.4124    0.1251 C.ar    1  UNL1       -0.0033
     29 C           2.4668   -0.1437    1.0174 C.3     1  UNL1        0.0117
     30 C           3.9905   -0.0336    1.1686 C.3     1  UNL1        0.0118
     31 H           8.1920    0.4187    1.3467 H       1  UNL1        0.2095
     32 H           6.1807    1.5243    1.0913 H       1  UNL1        0.0570
     33 H           6.4237    1.4099   -0.6994 H       1  UNL1        0.0570
     34 H           6.6687   -1.0444   -0.5296 H       1  UNL1        0.0449
     35 H           6.3806   -0.9648    1.2550 H       1  UNL1        0.0449
     36 H           3.8887   -1.2068   -1.7475 H       1  UNL1        0.0439
     37 H           5.0211    0.1768   -1.8431 H       1  UNL1        0.0439
     38 H           2.6189    0.6695   -2.2106 H       1  UNL1        0.0439
     39 H           3.3704    1.6863   -0.8889 H       1  UNL1        0.0439
     40 H           0.7271    1.6647   -0.4329 H       1  UNL1        0.0429
     41 H           0.5298    0.3992   -1.6145 H       1  UNL1        0.0429
     42 H           0.0360    0.6871    1.3243 H       1  UNL1        0.0320
     43 H          -0.0187   -0.8949    0.9704 H       1  UNL1        0.0320
     44 H          -1.8176    1.5450    0.2891 H       1  UNL1        0.0579
     45 H          -0.4983   -1.6833   -0.7564 H       1  UNL1        0.0624
     46 H          -0.2614   -3.9441   -1.1353 H       1  UNL1        0.0618
     47 H          -2.2285   -5.4831   -1.0666 H       1  UNL1        0.0618
     48 H          -4.4333   -4.5499   -0.4726 H       1  UNL1        0.0629
     49 H          -7.4027   -0.1339    0.3058 H       1  UNL1        0.0629
     50 H          -7.4201    2.3441    0.3908 H       1  UNL1        0.0623
     51 H          -3.2288    2.4276    0.1337 H       1  UNL1        0.0629
     52 H           2.2300   -1.2106    1.2756 H       1  UNL1        0.0439
     53 H           2.0622    0.5277    1.7907 H       1  UNL1        0.0439
     54 H           4.2197    1.0200    1.3134 H       1  UNL1        0.0439
     55 H           4.2514   -0.5826    2.1043 H       1  UNL1        0.0439
@<TRIPOS>BOND
     1     1     2    1
     2     2     3    1
     3     3     4    1
     4     4     5    1
     5     5     6    1
     6     6     7    1
     7     7     8    1
     8     8     9    1
     9     9    10    1
    10    10    11    2
    11    11    12    1
    12    12    13   ar
    13    13    14   ar
    14    14    15   ar
    15    15    16   ar
    16    16    17   ar
    17    17    18    1
    18    18    19    1
    19    19    20   ar
    20    20    21   ar
    21    21    22   ar
    22    22    23    1
    23    23    24    1
    24    23    25    1
    25    23    26    1
    26    22    27   ar
    27    27    28   ar
    28     7    29    1
    29    29    30    1
    30    30     4    1
    31    28    11    1
    32    17    12   ar
    33    28    19   ar
    34     1    31    1
    35     2    32    1
    36     2    33    1
    37     3    34    1
    38     3    35    1
    39     5    36    1
    40     5    37    1
    41     6    38    1
    42     6    39    1
    43     8    40    1
    44     8    41    1
    45     9    42    1
    46     9    43    1
    47    10    44    1
    48    13    45    1
    49    14    46    1
    50    15    47    1
    51    16    48    1
    52    20    49    1
    53    21    50    1
    54    27    51    1
    55    29    52    1
    56    29    53    1
    57    30    54    1
    58    30    55    1
