
     RDKit          3D

 55 58  0  0  0  0  0  0  0  0999 V2000
    7.9741    0.8526    0.4866 O   0  0  0  0  0  0  0  0  0  0  0  0
    6.5755    0.9032    0.2878 C   0  0  0  0  0  0  0  0  0  0  0  0
    6.0947   -0.5147    0.2821 C   0  0  0  0  0  0  0  0  0  0  0  0
    4.6817   -0.6592    0.0901 N   0  0  0  0  0  0  0  0  0  0  0  0
    4.2392   -0.2838   -1.2147 C   0  0  0  0  0  0  0  0  0  0  0  0
    3.0479    0.6521   -1.1804 C   0  0  0  0  0  0  0  0  0  0  0  0
    2.0635    0.1104   -0.3051 N   0  0  0  0  0  0  0  0  0  0  0  0
    0.7577    0.5688   -0.5419 C   0  0  0  0  0  0  0  0  0  0  0  0
   -0.2861   -0.0051    0.3875 C   0  0  0  0  0  0  0  0  0  0  0  0
   -1.6348    0.4433    0.2032 C   0  0  0  0  0  0  0  0  0  0  0  0
   -2.7145   -0.2572   -0.0744 C   0  0  0  0  0  0  0  0  0  0  0  0
   -2.5893   -1.7058   -0.2514 C   0  0  0  0  0  0  0  0  0  0  0  0
   -1.3615   -2.2151   -0.5889 C   0  0  0  0  0  0  0  0  0  0  0  0
   -1.2462   -3.5684   -0.8768 C   0  0  0  0  0  0  0  0  0  0  0  0
   -2.3207   -4.4129   -0.8403 C   0  0  0  0  0  0  0  0  0  0  0  0
   -3.5425   -3.9030   -0.5102 C   0  0  0  0  0  0  0  0  0  0  0  0
   -3.6927   -2.5750   -0.2180 C   0  0  0  0  0  0  0  0  0  0  0  0
   -5.3178   -1.9904    0.1950 S   0  0  0  0  0  0  0  0  0  0  0  0
   -5.2423   -0.2172    0.1764 C   0  0  0  0  0  0  0  0  0  0  0  0
   -6.4669    0.4320    0.2704 C   0  0  0  0  0  0  0  0  0  0  0  0
   -6.4802    1.7968    0.3176 C   0  0  0  0  0  0  0  0  0  0  0  0
   -5.2897    2.4900    0.2709 C   0  0  0  0  0  0  0  0  0  0  0  0
   -5.2588    3.9583    0.3214 C   0  0  0  0  0  0  0  0  0  0  0  0
   -5.4808    4.3958    1.6359 F   0  0  0  0  0  0  0  0  0  0  0  0
   -4.0395    4.4204   -0.1043 F   0  0  0  0  0  0  0  0  0  0  0  0
   -6.2959    4.4566   -0.4624 F   0  0  0  0  0  0  0  0  0  0  0  0
   -4.0787    1.7897    0.1746 C   0  0  0  0  0  0  0  0  0  0  0  0
   -4.0441    0.4124    0.1251 C   0  0  0  0  0  0  0  0  0  0  0  0
    2.4668   -0.1437    1.0174 C   0  0  0  0  0  0  0  0  0  0  0  0
    3.9905   -0.0336    1.1686 C   0  0  0  0  0  0  0  0  0  0  0  0
    8.1920    0.4187    1.3467 H   0  0  0  0  0  0  0  0  0  0  0  0
    6.1807    1.5243    1.0913 H   0  0  0  0  0  0  0  0  0  0  0  0
    6.4237    1.4099   -0.6994 H   0  0  0  0  0  0  0  0  0  0  0  0
    6.6687   -1.0444   -0.5296 H   0  0  0  0  0  0  0  0  0  0  0  0
    6.3806   -0.9648    1.2550 H   0  0  0  0  0  0  0  0  0  0  0  0
    3.8887   -1.2068   -1.7475 H   0  0  0  0  0  0  0  0  0  0  0  0
    5.0211    0.1768   -1.8431 H   0  0  0  0  0  0  0  0  0  0  0  0
    2.6189    0.6695   -2.2106 H   0  0  0  0  0  0  0  0  0  0  0  0
    3.3704    1.6863   -0.8889 H   0  0  0  0  0  0  0  0  0  0  0  0
    0.7271    1.6647   -0.4329 H   0  0  0  0  0  0  0  0  0  0  0  0
    0.5298    0.3992   -1.6145 H   0  0  0  0  0  0  0  0  0  0  0  0
    0.0360    0.6871    1.3243 H   0  0  0  0  0  0  0  0  0  0  0  0
   -0.0187   -0.8949    0.9704 H   0  0  0  0  0  0  0  0  0  0  0  0
   -1.8176    1.5450    0.2891 H   0  0  0  0  0  0  0  0  0  0  0  0
   -0.4983   -1.6833   -0.7564 H   0  0  0  0  0  0  0  0  0  0  0  0
   -0.2614   -3.9441   -1.1353 H   0  0  0  0  0  0  0  0  0  0  0  0
   -2.2285   -5.4831   -1.0666 H   0  0  0  0  0  0  0  0  0  0  0  0
   -4.4333   -4.5499   -0.4726 H   0  0  0  0  0  0  0  0  0  0  0  0
   -7.4027   -0.1339    0.3058 H   0  0  0  0  0  0  0  0  0  0  0  0
   -7.4201    2.3441    0.3908 H   0  0  0  0  0  0  0  0  0  0  0  0
   -3.2288    2.4276    0.1337 H   0  0  0  0  0  0  0  0  0  0  0  0
    2.2300   -1.2106    1.2756 H   0  0  0  0  0  0  0  0  0  0  0  0
    2.0622    0.5277    1.7907 H   0  0  0  0  0  0  0  0  0  0  0  0
    4.2197    1.0200    1.3134 H   0  0  0  0  0  0  0  0  0  0  0  0
    4.2514   -0.5826    2.1043 H   0  0  0  0  0  0  0  0  0  0  0  0
  1  2  1  0
  2  3  1  0
  3  4  1  0
  4  5  1  0
  5  6  1  0
  6  7  1  0
  7  8  1  0
  8  9  1  0
  9 10  1  0
 10 11  2  0
 11 12  1  0
 12 13  2  0
 13 14  1  0
 14 15  2  0
 15 16  1  0
 16 17  2  0
 17 18  1  0
 18 19  1  0
 19 20  2  0
 20 21  1  0
 21 22  2  0
 22 23  1  0
 23 24  1  0
 23 25  1  0
 23 26  1  0
 22 27  1  0
 27 28  2  0
  7 29  1  0
 29 30  1  0
 30  4  1  0
 28 11  1  0
 17 12  1  0
 28 19  1  0
  1 31  1  0
  2 32  1  0
  2 33  1  0
  3 34  1  0
  3 35  1  0
  5 36  1  0
  5 37  1  0
  6 38  1  0
  6 39  1  0
  8 40  1  0
  8 41  1  0
  9 42  1  0
  9 43  1  0
 10 44  1  0
 13 45  1  0
 14 46  1  0
 15 47  1  0
 16 48  1  0
 20 49  1  0
 21 50  1  0
 27 51  1  0
 29 52  1  0
 29 53  1  0
 30 54  1  0
 30 55  1  0
M  END
$$$$
