
     RDKit          3D

 49 52  0  0  0  0  0  0  0  0999 V2000
    2.6827    1.8074    2.4681 C   0  0  0  0  0  0  0  0  0  0  0  0
    2.2106    0.9749    1.3475 C   0  0  0  0  0  0  0  0  0  0  0  0
    3.1201    0.3781    0.5162 C   0  0  0  0  0  0  0  0  0  0  0  0
    2.6411   -0.4020   -0.5329 C   0  0  0  0  0  0  0  0  0  0  0  0
    3.5405   -1.0140   -1.3846 O   0  0  0  0  0  0  0  0  0  0  0  0
    4.8946   -0.8329   -1.1688 C   0  0  0  0  0  0  0  0  0  0  0  0
    5.5868    0.2179   -1.7598 C   0  0  0  0  0  0  0  0  0  0  0  0
    6.9356    0.3399   -1.5021 C   0  0  0  0  0  0  0  0  0  0  0  0
    7.6136   -0.5230   -0.6961 C   0  0  0  0  0  0  0  0  0  0  0  0
    6.9036   -1.5614   -0.1187 C   0  0  0  0  0  0  0  0  0  0  0  0
    5.5491   -1.7228   -0.3491 C   0  0  0  0  0  0  0  0  0  0  0  0
    1.2969   -0.5454   -0.6978 N   0  0  0  0  0  0  0  0  0  0  0  0
    0.4188    0.0455    0.1247 C   0  0  0  0  0  0  0  0  0  0  0  0
   -0.9683   -0.1375   -0.0930 N   0  0  0  0  0  0  0  0  0  0  0  0
   -1.8904    0.5121    0.8098 C   0  0  0  0  0  0  0  0  0  0  0  0
   -3.0844    0.9170   -0.0676 C   0  0  0  0  0  0  0  0  0  0  0  0
   -3.8565   -0.3282   -0.3483 C   0  0  0  0  0  0  0  0  0  0  0  0
   -2.8975   -1.4410   -0.6763 C   0  0  0  0  0  0  0  0  0  0  0  0
   -1.5497   -0.9249   -1.1495 C   0  0  0  0  0  0  0  0  0  0  0  0
   -4.8568   -0.1516   -1.4749 C   0  0  0  0  0  0  0  0  0  0  0  0
   -6.2161   -0.1860   -0.9680 N   0  0  0  0  0  0  0  0  0  0  0  0
   -6.2935    0.7690    0.1237 C   0  0  0  0  0  0  0  0  0  0  0  0
   -5.4367    0.2475    1.2415 C   0  0  0  0  0  0  0  0  0  0  0  0
   -4.5159   -0.6965    0.8416 O   0  0  0  0  0  0  0  0  0  0  0  0
    0.9023    0.7964    1.1342 N   0  0  0  0  0  0  0  0  0  0  0  0
    3.0657    1.1161    3.2747 H   0  0  0  0  0  0  0  0  0  0  0  0
    3.4732    2.5252    2.1702 H   0  0  0  0  0  0  0  0  0  0  0  0
    1.8653    2.3857    2.9457 H   0  0  0  0  0  0  0  0  0  0  0  0
    4.2048    0.4841    0.6361 H   0  0  0  0  0  0  0  0  0  0  0  0
    5.0486    0.9113   -2.4057 H   0  0  0  0  0  0  0  0  0  0  0  0
    7.4749    1.1679   -1.9694 H   0  0  0  0  0  0  0  0  0  0  0  0
    8.6740   -0.3970   -0.5156 H   0  0  0  0  0  0  0  0  0  0  0  0
    7.4168   -2.2647    0.5280 H   0  0  0  0  0  0  0  0  0  0  0  0
    4.9986   -2.5496    0.1144 H   0  0  0  0  0  0  0  0  0  0  0  0
   -1.4769    1.4416    1.2400 H   0  0  0  0  0  0  0  0  0  0  0  0
   -2.2124   -0.1467    1.6265 H   0  0  0  0  0  0  0  0  0  0  0  0
   -2.6778    1.2980   -1.0430 H   0  0  0  0  0  0  0  0  0  0  0  0
   -3.6635    1.7283    0.3742 H   0  0  0  0  0  0  0  0  0  0  0  0
   -2.7468   -2.1346    0.1832 H   0  0  0  0  0  0  0  0  0  0  0  0
   -3.3653   -2.0572   -1.4776 H   0  0  0  0  0  0  0  0  0  0  0  0
   -0.9423   -1.8346   -1.3804 H   0  0  0  0  0  0  0  0  0  0  0  0
   -1.7236   -0.3174   -2.0673 H   0  0  0  0  0  0  0  0  0  0  0  0
   -4.6463    0.8215   -1.9794 H   0  0  0  0  0  0  0  0  0  0  0  0
   -4.7042   -0.9585   -2.2377 H   0  0  0  0  0  0  0  0  0  0  0  0
   -6.3501   -1.1385   -0.5451 H   0  0  0  0  0  0  0  0  0  0  0  0
   -7.3656    0.8249    0.4195 H   0  0  0  0  0  0  0  0  0  0  0  0
   -5.9833    1.7520   -0.2478 H   0  0  0  0  0  0  0  0  0  0  0  0
   -6.1355   -0.2703    1.9591 H   0  0  0  0  0  0  0  0  0  0  0  0
   -4.9585    1.0739    1.8348 H   0  0  0  0  0  0  0  0  0  0  0  0
  1  2  1  0
  2  3  2  0
  3  4  1  0
  4  5  1  0
  5  6  1  0
  6  7  2  0
  7  8  1  0
  8  9  2  0
  9 10  1  0
 10 11  2  0
  4 12  2  0
 12 13  1  0
 13 14  1  0
 14 15  1  0
 15 16  1  0
 16 17  1  0
 17 18  1  0
 18 19  1  0
 17 20  1  0
 20 21  1  0
 21 22  1  0
 22 23  1  0
 23 24  1  0
 13 25  2  0
 25  2  1  0
 11  6  1  0
 19 14  1  0
 24 17  1  0
  1 26  1  0
  1 27  1  0
  1 28  1  0
  3 29  1  0
  7 30  1  0
  8 31  1  0
  9 32  1  0
 10 33  1  0
 11 34  1  0
 15 35  1  0
 15 36  1  0
 16 37  1  0
 16 38  1  0
 18 39  1  0
 18 40  1  0
 19 41  1  0
 19 42  1  0
 20 43  1  0
 20 44  1  0
 21 45  1  0
 22 46  1  0
 22 47  1  0
 23 48  1  0
 23 49  1  0
M  END
$$$$
