@<TRIPOS>MOLECULE
*****
 49 52 0 0 0
SMALL
GASTEIGER

@<TRIPOS>ATOM
      1 C           2.6827    1.8074    2.4681 C.3     1  UNL1       -0.0221
      2 C           2.2106    0.9749    1.3475 C.ar    1  UNL1        0.0469
      3 C           3.1201    0.3781    0.5162 C.ar    1  UNL1        0.0215
      4 C           2.6411   -0.4020   -0.5329 C.ar    1  UNL1        0.2251
      5 O           3.5405   -1.0140   -1.3846 O.3     1  UNL1       -0.4379
      6 C           4.8946   -0.8329   -1.1688 C.ar    1  UNL1        0.1304
      7 C           5.5868    0.2179   -1.7598 C.ar    1  UNL1       -0.0193
      8 C           6.9356    0.3399   -1.5021 C.ar    1  UNL1       -0.0583
      9 C           7.6136   -0.5230   -0.6961 C.ar    1  UNL1       -0.0615
     10 C           6.9036   -1.5614   -0.1187 C.ar    1  UNL1       -0.0583
     11 C           5.5491   -1.7228   -0.3491 C.ar    1  UNL1       -0.0193
     12 N           1.2969   -0.5454   -0.6978 N.ar    1  UNL1       -0.1790
     13 C           0.4188    0.0455    0.1247 C.ar    1  UNL1        0.2211
     14 N          -0.9683   -0.1375   -0.0930 N.pl3   1  UNL1       -0.2994
     15 C          -1.8904    0.5121    0.8098 C.3     1  UNL1        0.0175
     16 C          -3.0844    0.9170   -0.0676 C.3     1  UNL1       -0.0066
     17 C          -3.8565   -0.3282   -0.3483 C.3     1  UNL1        0.0848
     18 C          -2.8975   -1.4410   -0.6763 C.3     1  UNL1       -0.0066
     19 C          -1.5497   -0.9249   -1.1495 C.3     1  UNL1        0.0175
     20 C          -4.8568   -0.1516   -1.4749 C.3     1  UNL1        0.0252
     21 N          -6.2161   -0.1860   -0.9680 N.3     1  UNL1       -0.3111
     22 C          -6.2935    0.7690    0.1237 C.3     1  UNL1        0.0195
     23 C          -5.4367    0.2475    1.2415 C.3     1  UNL1        0.0609
     24 O          -4.5159   -0.6965    0.8416 O.3     1  UNL1       -0.3707
     25 N           0.9023    0.7964    1.1342 N.ar    1  UNL1       -0.2194
     26 H           3.0657    1.1161    3.2747 H       1  UNL1        0.0293
     27 H           3.4732    2.5252    2.1702 H       1  UNL1        0.0293
     28 H           1.8653    2.3857    2.9457 H       1  UNL1        0.0293
     29 H           4.2048    0.4841    0.6361 H       1  UNL1        0.0689
     30 H           5.0486    0.9113   -2.4057 H       1  UNL1        0.0654
     31 H           7.4749    1.1679   -1.9694 H       1  UNL1        0.0619
     32 H           8.6740   -0.3970   -0.5156 H       1  UNL1        0.0618
     33 H           7.4168   -2.2647    0.5280 H       1  UNL1        0.0619
     34 H           4.9986   -2.5496    0.1144 H       1  UNL1        0.0654
     35 H          -1.4769    1.4416    1.2400 H       1  UNL1        0.0465
     36 H          -2.2124   -0.1467    1.6265 H       1  UNL1        0.0465
     37 H          -2.6778    1.2980   -1.0430 H       1  UNL1        0.0309
     38 H          -3.6635    1.7283    0.3742 H       1  UNL1        0.0309
     39 H          -2.7468   -2.1346    0.1832 H       1  UNL1        0.0309
     40 H          -3.3653   -2.0572   -1.4776 H       1  UNL1        0.0309
     41 H          -0.9423   -1.8346   -1.3804 H       1  UNL1        0.0465
     42 H          -1.7236   -0.3174   -2.0673 H       1  UNL1        0.0465
     43 H          -4.6463    0.8215   -1.9794 H       1  UNL1        0.0452
     44 H          -4.7042   -0.9585   -2.2377 H       1  UNL1        0.0452
     45 H          -6.3501   -1.1385   -0.5451 H       1  UNL1        0.1221
     46 H          -7.3656    0.8249    0.4195 H       1  UNL1        0.0446
     47 H          -5.9833    1.7520   -0.2478 H       1  UNL1        0.0446
     48 H          -6.1355   -0.2703    1.9591 H       1  UNL1        0.0573
     49 H          -4.9585    1.0739    1.8348 H       1  UNL1        0.0573
@<TRIPOS>BOND
     1     1     2    1
     2     2     3   ar
     3     3     4   ar
     4     4     5    1
     5     5     6    1
     6     6     7   ar
     7     7     8   ar
     8     8     9   ar
     9     9    10   ar
    10    10    11   ar
    11     4    12   ar
    12    12    13   ar
    13    13    14    1
    14    14    15    1
    15    15    16    1
    16    16    17    1
    17    17    18    1
    18    18    19    1
    19    17    20    1
    20    20    21    1
    21    21    22    1
    22    22    23    1
    23    23    24    1
    24    13    25   ar
    25    25     2   ar
    26    11     6   ar
    27    19    14    1
    28    24    17    1
    29     1    26    1
    30     1    27    1
    31     1    28    1
    32     3    29    1
    33     7    30    1
    34     8    31    1
    35     9    32    1
    36    10    33    1
    37    11    34    1
    38    15    35    1
    39    15    36    1
    40    16    37    1
    41    16    38    1
    42    18    39    1
    43    18    40    1
    44    19    41    1
    45    19    42    1
    46    20    43    1
    47    20    44    1
    48    21    45    1
    49    22    46    1
    50    22    47    1
    51    23    48    1
    52    23    49    1
