
     RDKit          3D

 48 51  0  0  0  0  0  0  0  0999 V2000
   -2.2025   -1.5626   -1.2702 O   0  0  0  0  0  0  0  0  0  0  0  0
   -1.7654   -1.0913   -0.2208 C   0  0  0  0  0  0  0  0  0  0  0  0
   -0.3222   -1.2172    0.0715 C   0  0  0  0  0  0  0  0  0  0  0  0
    0.3549   -1.9496   -1.0648 C   0  0  0  0  0  0  0  0  0  0  0  0
    1.8138   -2.0698   -0.7532 C   0  0  0  0  0  0  0  0  0  0  0  0
    2.4820   -3.1581   -0.3286 N   0  0  0  0  0  0  0  0  0  0  0  0
    3.7401   -2.8786   -0.1645 O   0  0  0  0  0  0  0  0  0  0  0  0
    3.9888   -1.6387   -0.4552 C   0  0  0  0  0  0  0  0  0  0  0  0
    2.7768   -1.0832   -0.8384 C   0  0  0  0  0  0  0  0  0  0  0  0
    2.7282    0.2415   -1.2091 C   0  0  0  0  0  0  0  0  0  0  0  0
    3.8986    0.9816   -1.1873 C   0  0  0  0  0  0  0  0  0  0  0  0
    5.1034    0.4310   -0.8068 C   0  0  0  0  0  0  0  0  0  0  0  0
    6.2478    1.2191   -0.8028 C   0  0  0  0  0  0  0  0  0  0  0  0
    7.4761    0.6899   -0.4232 C   0  0  0  0  0  0  0  0  0  0  0  0
    8.6063    1.4953   -0.4263 O   0  0  0  0  0  0  0  0  0  0  0  0
    7.5011   -0.6465   -0.0541 C   0  0  0  0  0  0  0  0  0  0  0  0
    6.3676   -1.4254   -0.0587 C   0  0  0  0  0  0  0  0  0  0  0  0
    5.1537   -0.8980   -0.4347 C   0  0  0  0  0  0  0  0  0  0  0  0
   -2.6161   -0.4363    0.7028 N   0  0  0  0  0  0  0  0  0  0  0  0
   -4.0008   -0.2237    0.5907 C   0  0  0  0  0  0  0  0  0  0  0  0
   -4.6506    0.4042    1.5457 C   0  0  0  0  0  0  0  0  0  0  0  0
   -4.0724    0.9195    2.7428 C   0  0  0  0  0  0  0  0  0  0  0  0
   -2.9098    0.9072    3.1528 O   0  0  0  0  0  0  0  0  0  0  0  0
   -4.9829    1.5708    3.6432 O   0  0  0  0  0  0  0  0  0  0  0  0
   -6.1423    0.5424    1.2834 C   0  0  0  0  0  0  0  0  0  0  0  0
   -6.2442    1.3111   -0.0244 C   0  0  0  0  0  0  0  0  0  0  0  0
   -5.6319    0.4966   -1.1441 C   0  0  0  0  0  0  0  0  0  0  0  0
   -4.8248   -0.6708   -0.5926 C   0  0  0  0  0  0  0  0  0  0  0  0
    0.1589   -0.2599    0.3019 H   0  0  0  0  0  0  0  0  0  0  0  0
   -0.2445   -1.8355    1.0022 H   0  0  0  0  0  0  0  0  0  0  0  0
    0.1951   -1.3023   -1.9766 H   0  0  0  0  0  0  0  0  0  0  0  0
   -0.1025   -2.9121   -1.2877 H   0  0  0  0  0  0  0  0  0  0  0  0
    1.7745    0.6353   -1.4991 H   0  0  0  0  0  0  0  0  0  0  0  0
    3.8550    2.0096   -1.4757 H   0  0  0  0  0  0  0  0  0  0  0  0
    6.2414    2.2660   -1.0894 H   0  0  0  0  0  0  0  0  0  0  0  0
    9.3266    1.2684    0.2599 H   0  0  0  0  0  0  0  0  0  0  0  0
    8.4687   -1.0374    0.2376 H   0  0  0  0  0  0  0  0  0  0  0  0
    6.4493   -2.4558    0.2379 H   0  0  0  0  0  0  0  0  0  0  0  0
   -2.0815   -0.0833    1.5688 H   0  0  0  0  0  0  0  0  0  0  0  0
   -4.6152    2.1258    4.3979 H   0  0  0  0  0  0  0  0  0  0  0  0
   -6.5440   -0.4595    1.1139 H   0  0  0  0  0  0  0  0  0  0  0  0
   -6.6327    1.1310    2.0575 H   0  0  0  0  0  0  0  0  0  0  0  0
   -7.3067    1.4749   -0.2402 H   0  0  0  0  0  0  0  0  0  0  0  0
   -5.7671    2.2961    0.1122 H   0  0  0  0  0  0  0  0  0  0  0  0
   -6.4084    0.0721   -1.7932 H   0  0  0  0  0  0  0  0  0  0  0  0
   -4.9445    1.1570   -1.7099 H   0  0  0  0  0  0  0  0  0  0  0  0
   -5.5001   -1.5074   -0.2991 H   0  0  0  0  0  0  0  0  0  0  0  0
   -4.1955   -1.0316   -1.3920 H   0  0  0  0  0  0  0  0  0  0  0  0
  1  2  2  0
  2  3  1  0
  3  4  1  0
  4  5  1  0
  5  6  2  0
  6  7  1  0
  7  8  1  0
  8  9  2  0
  9 10  1  0
 10 11  2  0
 11 12  1  0
 12 13  2  0
 13 14  1  0
 14 15  1  0
 14 16  2  0
 16 17  1  0
 17 18  2  0
  2 19  1  0
 19 20  1  0
 20 21  2  0
 21 22  1  0
 22 23  2  0
 22 24  1  0
 21 25  1  0
 25 26  1  0
 26 27  1  0
 27 28  1  0
  9  5  1  0
 18 12  1  0
 28 20  1  0
 18  8  1  0
  3 29  1  0
  3 30  1  0
  4 31  1  0
  4 32  1  0
 10 33  1  0
 11 34  1  0
 13 35  1  0
 15 36  1  0
 16 37  1  0
 17 38  1  0
 19 39  1  0
 24 40  1  0
 25 41  1  0
 25 42  1  0
 26 43  1  0
 26 44  1  0
 27 45  1  0
 27 46  1  0
 28 47  1  0
 28 48  1  0
M  END
$$$$
