@<TRIPOS>MOLECULE
*****
 48 51 0 0 0
SMALL
GASTEIGER

@<TRIPOS>ATOM
      1 O          -2.2025   -1.5626   -1.2702 O.2     1  UNL1       -0.2755
      2 C          -1.7654   -1.0913   -0.2208 C.2     1  UNL1        0.2173
      3 C          -0.3222   -1.2172    0.0715 C.3     1  UNL1        0.0298
      4 C           0.3549   -1.9496   -1.0648 C.3     1  UNL1        0.0017
      5 C           1.8138   -2.0698   -0.7532 C.ar    1  UNL1        0.0918
      6 N           2.4820   -3.1581   -0.3286 N.ar    1  UNL1       -0.0820
      7 O           3.7401   -2.8786   -0.1645 O.2     1  UNL1       -0.3538
      8 C           3.9888   -1.6387   -0.4552 C.ar    1  UNL1        0.1751
      9 C           2.7768   -1.0832   -0.8384 C.ar    1  UNL1        0.0449
     10 C           2.7282    0.2415   -1.2091 C.ar    1  UNL1       -0.0486
     11 C           3.8986    0.9816   -1.1873 C.ar    1  UNL1       -0.0531
     12 C           5.1034    0.4310   -0.8068 C.ar    1  UNL1       -0.0108
     13 C           6.2478    1.2191   -0.8028 C.ar    1  UNL1       -0.0124
     14 C           7.4761    0.6899   -0.4232 C.ar    1  UNL1        0.1175
     15 O           8.6063    1.4953   -0.4263 O.3     1  UNL1       -0.5067
     16 C           7.5011   -0.6465   -0.0541 C.ar    1  UNL1       -0.0195
     17 C           6.3676   -1.4254   -0.0587 C.ar    1  UNL1       -0.0470
     18 C           5.1537   -0.8980   -0.4347 C.ar    1  UNL1        0.0279
     19 N          -2.6161   -0.4363    0.7028 N.am    1  UNL1       -0.2886
     20 C          -4.0008   -0.2237    0.5907 C.2     1  UNL1        0.0204
     21 C          -4.6506    0.4042    1.5457 C.2     1  UNL1        0.0534
     22 C          -4.0724    0.9195    2.7428 C.2     1  UNL1        0.3342
     23 O          -2.9098    0.9072    3.1528 O.2     1  UNL1       -0.2454
     24 O          -4.9829    1.5708    3.6432 O.3     1  UNL1       -0.4773
     25 C          -6.1423    0.5424    1.2834 C.3     1  UNL1       -0.0194
     26 C          -6.2442    1.3111   -0.0244 C.3     1  UNL1       -0.0485
     27 C          -5.6319    0.4966   -1.1441 C.3     1  UNL1       -0.0476
     28 C          -4.8248   -0.6708   -0.5926 C.3     1  UNL1       -0.0140
     29 H           0.1589   -0.2599    0.3019 H       1  UNL1        0.0362
     30 H          -0.2445   -1.8355    1.0022 H       1  UNL1        0.0362
     31 H           0.1951   -1.3023   -1.9766 H       1  UNL1        0.0334
     32 H          -0.1025   -2.9121   -1.2877 H       1  UNL1        0.0334
     33 H           1.7745    0.6353   -1.4991 H       1  UNL1        0.0625
     34 H           3.8550    2.0096   -1.4757 H       1  UNL1        0.0624
     35 H           6.2414    2.2660   -1.0894 H       1  UNL1        0.0660
     36 H           9.3266    1.2684    0.2599 H       1  UNL1        0.2921
     37 H           8.4687   -1.0374    0.2376 H       1  UNL1        0.0654
     38 H           6.4493   -2.4558    0.2379 H       1  UNL1        0.0626
     39 H          -2.0815   -0.0833    1.5688 H       1  UNL1        0.1545
     40 H          -4.6152    2.1258    4.3979 H       1  UNL1        0.2954
     41 H          -6.5440   -0.4595    1.1139 H       1  UNL1        0.0316
     42 H          -6.6327    1.1310    2.0575 H       1  UNL1        0.0316
     43 H          -7.3067    1.4749   -0.2402 H       1  UNL1        0.0269
     44 H          -5.7671    2.2961    0.1122 H       1  UNL1        0.0269
     45 H          -6.4084    0.0721   -1.7932 H       1  UNL1        0.0269
     46 H          -4.9445    1.1570   -1.7099 H       1  UNL1        0.0269
     47 H          -5.5001   -1.5074   -0.2991 H       1  UNL1        0.0326
     48 H          -4.1955   -1.0316   -1.3920 H       1  UNL1        0.0326
@<TRIPOS>BOND
     1     1     2    2
     2     2     3    1
     3     3     4    1
     4     4     5    1
     5     5     6   ar
     6     6     7   ar
     7     7     8   ar
     8     8     9   ar
     9     9    10   ar
    10    10    11   ar
    11    11    12   ar
    12    12    13   ar
    13    13    14   ar
    14    14    15    1
    15    14    16   ar
    16    16    17   ar
    17    17    18   ar
    18     2    19   am
    19    19    20    1
    20    20    21    2
    21    21    22    1
    22    22    23    2
    23    22    24    1
    24    21    25    1
    25    25    26    1
    26    26    27    1
    27    27    28    1
    28     9     5   ar
    29    18    12   ar
    30    28    20    1
    31    18     8   ar
    32     3    29    1
    33     3    30    1
    34     4    31    1
    35     4    32    1
    36    10    33    1
    37    11    34    1
    38    13    35    1
    39    15    36    1
    40    16    37    1
    41    17    38    1
    42    19    39    1
    43    24    40    1
    44    25    41    1
    45    25    42    1
    46    26    43    1
    47    26    44    1
    48    27    45    1
    49    27    46    1
    50    28    47    1
    51    28    48    1
