
     RDKit          3D

 66 70  0  0  0  0  0  0  0  0999 V2000
   -3.7938   -4.2100   -0.6324 C   0  0  0  0  0  0  0  0  0  0  0  0
   -3.6305   -2.7332   -0.3575 C   0  0  0  0  0  0  0  0  0  0  0  0
   -3.9263   -1.7152   -1.1523 N   0  0  0  0  0  0  0  0  0  0  0  0
   -3.6518   -0.5592   -0.5825 N   0  0  0  0  0  0  0  0  0  0  0  0
   -3.8650    0.7283   -1.1969 C   0  0  0  0  0  0  0  0  0  0  0  0
   -4.5912    1.7193   -0.3682 C   0  0  0  0  0  0  0  0  0  0  0  0
   -3.8017    3.0125   -0.5538 C   0  0  0  0  0  0  0  0  0  0  0  0
   -2.9522    2.8119   -1.7908 C   0  0  0  0  0  0  0  0  0  0  0  0
   -2.5817    1.3525   -1.6900 C   0  0  0  0  0  0  0  0  0  0  0  0
   -3.1498   -0.8258    0.6498 C   0  0  0  0  0  0  0  0  0  0  0  0
   -2.7211    0.1667    1.6547 C   0  0  0  0  0  0  0  0  0  0  0  0
   -3.1237   -2.1763    0.8194 C   0  0  0  0  0  0  0  0  0  0  0  0
   -2.6285   -3.1718    2.1765 S   0  0  0  0  0  6  0  0  0  0  0  0
   -3.5736   -4.3685    2.2131 O   0  0  0  0  0  0  0  0  0  0  0  0
   -2.8684   -2.4660    3.4778 O   0  0  0  0  0  0  0  0  0  0  0  0
   -1.0848   -3.7407    1.9449 N   0  0  0  0  0  0  0  0  0  0  0  0
    0.0284   -2.8935    1.8307 C   0  0  1  0  0  0  0  0  0  0  0  0
    1.0694   -3.0812    2.9213 C   0  0  0  0  0  0  0  0  0  0  0  0
    0.6558   -3.0234    0.4574 C   0  0  0  0  0  0  0  0  0  0  0  0
    1.8056   -2.2296    0.2258 N   0  0  0  0  0  0  0  0  0  0  0  0
    1.9273   -0.8303    0.0694 C   0  0  0  0  0  0  0  0  0  0  0  0
    0.8662    0.0365    0.0862 C   0  0  0  0  0  0  0  0  0  0  0  0
    1.0812    1.3827   -0.0872 C   0  0  0  0  0  0  0  0  0  0  0  0
    2.3322    1.9346   -0.2837 C   0  0  0  0  0  0  0  0  0  0  0  0
    3.3903    1.0396   -0.2979 C   0  0  0  0  0  0  0  0  0  0  0  0
    3.1945   -0.3017   -0.1267 C   0  0  0  0  0  0  0  0  0  0  0  0
    4.4561   -0.8675   -0.1997 C   0  0  0  0  0  0  0  0  0  0  0  0
    5.3463    0.1184   -0.4063 N   0  0  0  0  0  0  0  0  0  0  0  0
    4.7181    1.2802   -0.4684 N   0  0  0  0  0  0  0  0  0  0  0  0
    5.2943    2.5527   -0.6727 C   0  0  0  0  0  0  0  0  0  0  0  0
    5.5982    2.9498   -1.9686 C   0  0  0  0  0  0  0  0  0  0  0  0
    6.1617    4.1870   -2.1988 C   0  0  0  0  0  0  0  0  0  0  0  0
    6.4157    5.0173   -1.1189 C   0  0  0  0  0  0  0  0  0  0  0  0
    6.9729    6.2520   -1.2993 F   0  0  0  0  0  0  0  0  0  0  0  0
    6.1052    4.5919    0.1200 N   0  0  0  0  0  0  0  0  0  0  0  0
    5.5577    3.4000    0.3870 C   0  0  0  0  0  0  0  0  0  0  0  0
   -4.5835   -4.6436   -0.0008 H   0  0  0  0  0  0  0  0  0  0  0  0
   -4.1084   -4.3000   -1.6932 H   0  0  0  0  0  0  0  0  0  0  0  0
   -2.8195   -4.7240   -0.5396 H   0  0  0  0  0  0  0  0  0  0  0  0
   -4.4950    0.5813   -2.1260 H   0  0  0  0  0  0  0  0  0  0  0  0
   -5.6225    1.9615   -0.7671 H   0  0  0  0  0  0  0  0  0  0  0  0
   -4.7464    1.4720    0.6774 H   0  0  0  0  0  0  0  0  0  0  0  0
   -4.4725    3.8902   -0.7289 H   0  0  0  0  0  0  0  0  0  0  0  0
   -3.1181    3.2178    0.2826 H   0  0  0  0  0  0  0  0  0  0  0  0
   -3.5372    2.9327   -2.7324 H   0  0  0  0  0  0  0  0  0  0  0  0
   -2.0610    3.4709   -1.7581 H   0  0  0  0  0  0  0  0  0  0  0  0
   -1.7204    1.1362   -1.0663 H   0  0  0  0  0  0  0  0  0  0  0  0
   -2.3532    0.9167   -2.6980 H   0  0  0  0  0  0  0  0  0  0  0  0
   -3.5838    0.2834    2.3801 H   0  0  0  0  0  0  0  0  0  0  0  0
   -2.4253    1.1290    1.2273 H   0  0  0  0  0  0  0  0  0  0  0  0
   -1.8852   -0.1737    2.2904 H   0  0  0  0  0  0  0  0  0  0  0  0
   -0.8494   -4.5197    2.6312 H   0  0  0  0  0  0  0  0  0  0  0  0
   -0.3084   -1.8520    1.9375 H   0  0  0  0  0  0  0  0  0  0  0  0
    1.6999   -3.9607    2.7573 H   0  0  0  0  0  0  0  0  0  0  0  0
    0.5605   -3.0484    3.8948 H   0  0  0  0  0  0  0  0  0  0  0  0
    1.7453   -2.1940    2.8906 H   0  0  0  0  0  0  0  0  0  0  0  0
    0.7914   -4.0846    0.1673 H   0  0  0  0  0  0  0  0  0  0  0  0
   -0.1427   -2.6401   -0.2496 H   0  0  0  0  0  0  0  0  0  0  0  0
    2.7200   -2.7879    0.1612 H   0  0  0  0  0  0  0  0  0  0  0  0
   -0.1491   -0.3505    0.2227 H   0  0  0  0  0  0  0  0  0  0  0  0
    0.2219    2.0786   -0.0696 H   0  0  0  0  0  0  0  0  0  0  0  0
    2.5091    2.9910   -0.4208 H   0  0  0  0  0  0  0  0  0  0  0  0
    4.6138   -1.9407   -0.0966 H   0  0  0  0  0  0  0  0  0  0  0  0
    5.3796    2.2591   -2.7972 H   0  0  0  0  0  0  0  0  0  0  0  0
    6.3940    4.4849   -3.2122 H   0  0  0  0  0  0  0  0  0  0  0  0
    5.3133    3.0747    1.4061 H   0  0  0  0  0  0  0  0  0  0  0  0
  1  2  1  0
  2  3  2  0
  3  4  1  0
  4  5  1  0
  5  6  1  0
  6  7  1  0
  7  8  1  0
  8  9  1  0
  4 10  1  0
 10 11  1  0
 10 12  2  0
 12 13  1  0
 13 14  2  0
 13 15  2  0
 13 16  1  0
 16 17  1  0
 17 18  1  0
 17 19  1  0
 19 20  1  0
 20 21  1  0
 21 22  2  0
 22 23  1  0
 23 24  2  0
 24 25  1  0
 25 26  2  0
 26 27  1  0
 27 28  2  0
 28 29  1  0
 29 30  1  0
 30 31  2  0
 31 32  1  0
 32 33  2  0
 33 34  1  0
 33 35  1  0
 35 36  2  0
 12  2  1  0
 26 21  1  0
 36 30  1  0
  9  5  1  0
 29 25  1  0
  1 37  1  0
  1 38  1  0
  1 39  1  0
  5 40  1  0
  6 41  1  0
  6 42  1  0
  7 43  1  0
  7 44  1  0
  8 45  1  0
  8 46  1  0
  9 47  1  0
  9 48  1  0
 11 49  1  0
 11 50  1  0
 11 51  1  0
 16 52  1  0
 17 53  1  6
 18 54  1  0
 18 55  1  0
 18 56  1  0
 19 57  1  0
 19 58  1  0
 20 59  1  0
 22 60  1  0
 23 61  1  0
 24 62  1  0
 27 63  1  0
 31 64  1  0
 32 65  1  0
 36 66  1  0
M  END
$$$$
