@<TRIPOS>MOLECULE
*****
 66 70 0 0 0
SMALL
GASTEIGER

@<TRIPOS>ATOM
      1 C          -3.7938   -4.2100   -0.6324 C.3     1  UNL1       -0.0187
      2 C          -3.6305   -2.7332   -0.3575 C.ar    1  UNL1        0.0865
      3 N          -3.9263   -1.7152   -1.1523 N.ar    1  UNL1       -0.1740
      4 N          -3.6518   -0.5592   -0.5825 N.ar    1  UNL1       -0.2634
      5 C          -3.8650    0.7283   -1.1969 C.3     1  UNL1        0.0530
      6 C          -4.5912    1.7193   -0.3682 C.3     1  UNL1       -0.0305
      7 C          -3.8017    3.0125   -0.5538 C.3     1  UNL1       -0.0511
      8 C          -2.9522    2.8119   -1.7908 C.3     1  UNL1       -0.0511
      9 C          -2.5817    1.3525   -1.6900 C.3     1  UNL1       -0.0305
     10 C          -3.1498   -0.8258    0.6498 C.ar    1  UNL1        0.0630
     11 C          -2.7211    0.1667    1.6547 C.3     1  UNL1       -0.0207
     12 C          -3.1237   -2.1763    0.8194 C.ar    1  UNL1        0.1483
     13 S          -2.6285   -3.1718    2.1765 S.O2    1  UNL1        0.0621
     14 O          -3.5736   -4.3685    2.2131 O.2     1  UNL1       -0.1529
     15 O          -2.8684   -2.4660    3.4778 O.2     1  UNL1       -0.1529
     16 N          -1.0848   -3.7407    1.9449 N.3     1  UNL1       -0.1856
     17 C           0.0284   -2.8935    1.8307 C.3     1  UNL1        0.0414
     18 C           1.0694   -3.0812    2.9213 C.3     1  UNL1       -0.0466
     19 C           0.6558   -3.0234    0.4574 C.3     1  UNL1        0.0259
     20 N           1.8056   -2.2296    0.2258 N.pl3   1  UNL1       -0.3418
     21 C           1.9273   -0.8303    0.0694 C.ar    1  UNL1        0.0380
     22 C           0.8662    0.0365    0.0862 C.ar    1  UNL1       -0.0401
     23 C           1.0812    1.3827   -0.0872 C.ar    1  UNL1       -0.0580
     24 C           2.3322    1.9346   -0.2837 C.ar    1  UNL1       -0.0355
     25 C           3.3903    1.0396   -0.2979 C.ar    1  UNL1        0.0764
     26 C           3.1945   -0.3017   -0.1267 C.ar    1  UNL1        0.0410
     27 C           4.4561   -0.8675   -0.1997 C.ar    1  UNL1        0.0593
     28 N           5.3463    0.1184   -0.4063 N.ar    1  UNL1       -0.1736
     29 N           4.7181    1.2802   -0.4684 N.ar    1  UNL1       -0.2306
     30 C           5.2943    2.5527   -0.6727 C.ar    1  UNL1        0.0842
     31 C           5.5982    2.9498   -1.9686 C.ar    1  UNL1       -0.0305
     32 C           6.1617    4.1870   -2.1988 C.ar    1  UNL1       -0.0053
     33 C           6.4157    5.0173   -1.1189 C.ar    1  UNL1        0.2133
     34 F           6.9729    6.2520   -1.2993 F       1  UNL1       -0.1839
     35 N           6.1052    4.5919    0.1200 N.ar    1  UNL1       -0.2255
     36 C           5.5577    3.4000    0.3870 C.ar    1  UNL1        0.0560
     37 H          -4.5835   -4.6436   -0.0008 H       1  UNL1        0.0294
     38 H          -4.1084   -4.3000   -1.6932 H       1  UNL1        0.0294
     39 H          -2.8195   -4.7240   -0.5396 H       1  UNL1        0.0294
     40 H          -4.4950    0.5813   -2.1260 H       1  UNL1        0.0545
     41 H          -5.6225    1.9615   -0.7671 H       1  UNL1        0.0286
     42 H          -4.7464    1.4720    0.6774 H       1  UNL1        0.0286
     43 H          -4.4725    3.8902   -0.7289 H       1  UNL1        0.0266
     44 H          -3.1181    3.2178    0.2826 H       1  UNL1        0.0266
     45 H          -3.5372    2.9327   -2.7324 H       1  UNL1        0.0266
     46 H          -2.0610    3.4709   -1.7581 H       1  UNL1        0.0266
     47 H          -1.7204    1.1362   -1.0663 H       1  UNL1        0.0286
     48 H          -2.3532    0.9167   -2.6980 H       1  UNL1        0.0286
     49 H          -3.5838    0.2834    2.3801 H       1  UNL1        0.0293
     50 H          -2.4253    1.1290    1.2273 H       1  UNL1        0.0293
     51 H          -1.8852   -0.1737    2.2904 H       1  UNL1        0.0293
     52 H          -0.8494   -4.5197    2.6312 H       1  UNL1        0.1484
     53 H          -0.3084   -1.8520    1.9375 H       1  UNL1        0.0490
     54 H           1.6999   -3.9607    2.7573 H       1  UNL1        0.0246
     55 H           0.5605   -3.0484    3.8948 H       1  UNL1        0.0246
     56 H           1.7453   -2.1940    2.8906 H       1  UNL1        0.0246
     57 H           0.7914   -4.0846    0.1673 H       1  UNL1        0.0477
     58 H          -0.1427   -2.6401   -0.2496 H       1  UNL1        0.0477
     59 H           2.7200   -2.7879    0.1612 H       1  UNL1        0.1461
     60 H          -0.1491   -0.3505    0.2227 H       1  UNL1        0.0636
     61 H           0.2219    2.0786   -0.0696 H       1  UNL1        0.0619
     62 H           2.5091    2.9910   -0.4208 H       1  UNL1        0.0639
     63 H           4.6138   -1.9407   -0.0966 H       1  UNL1        0.0855
     64 H           5.3796    2.2591   -2.7972 H       1  UNL1        0.0641
     65 H           6.3940    4.4849   -3.2122 H       1  UNL1        0.0663
     66 H           5.3133    3.0747    1.4061 H       1  UNL1        0.0852
@<TRIPOS>BOND
     1     1     2    1
     2     2     3   ar
     3     3     4   ar
     4     4     5    1
     5     5     6    1
     6     6     7    1
     7     7     8    1
     8     8     9    1
     9     4    10   ar
    10    10    11    1
    11    10    12   ar
    12    12    13    1
    13    13    14    2
    14    13    15    2
    15    13    16    1
    16    16    17    1
    17    17    18    1
    18    17    19    1
    19    19    20    1
    20    20    21    1
    21    21    22   ar
    22    22    23   ar
    23    23    24   ar
    24    24    25   ar
    25    25    26   ar
    26    26    27   ar
    27    27    28   ar
    28    28    29   ar
    29    29    30    1
    30    30    31   ar
    31    31    32   ar
    32    32    33   ar
    33    33    34    1
    34    33    35   ar
    35    35    36   ar
    36    12     2   ar
    37    26    21   ar
    38    36    30   ar
    39     9     5    1
    40    29    25   ar
    41     1    37    1
    42     1    38    1
    43     1    39    1
    44     5    40    1
    45     6    41    1
    46     6    42    1
    47     7    43    1
    48     7    44    1
    49     8    45    1
    50     8    46    1
    51     9    47    1
    52     9    48    1
    53    11    49    1
    54    11    50    1
    55    11    51    1
    56    16    52    1
    57    17    53    1
    58    18    54    1
    59    18    55    1
    60    18    56    1
    61    19    57    1
    62    19    58    1
    63    20    59    1
    64    22    60    1
    65    23    61    1
    66    24    62    1
    67    27    63    1
    68    31    64    1
    69    32    65    1
    70    36    66    1
