@<TRIPOS>MOLECULE
*****
 77 81 0 0 0
SMALL
GASTEIGER

@<TRIPOS>ATOM
      1 O          -4.3637    5.0024    2.0612 O.3     1  UNL1       -0.4806
      2 C          -3.9435    4.6013    0.8277 C.2     1  UNL1        0.3053
      3 O          -4.8499    3.9068    1.3881 O.2     1  UNL1       -0.2510
      4 C          -3.1244    4.7043   -0.3841 C.3     1  UNL1        0.0511
      5 C          -3.4542    3.5966   -1.3343 C.3     1  UNL1       -0.0102
      6 C          -2.7266    3.5244   -2.6316 C.3     1  UNL1       -0.0456
      7 C          -4.1126    4.0478   -2.6477 C.3     1  UNL1       -0.0456
      8 C          -4.0840    2.3533   -0.7754 C.3     1  UNL1        0.0004
      9 S          -3.0071    1.6023    0.4583 S.3     1  UNL1       -0.1521
     10 C          -1.5062    0.9977   -0.3257 C.3     1  UNL1        0.0305
     11 C          -1.8919   -0.1541   -1.2698 C.3     1  UNL1       -0.0331
     12 C          -2.5416   -1.2743   -0.4898 C.3     1  UNL1       -0.0260
     13 C          -2.9150   -2.3746   -1.4336 C.ar    1  UNL1       -0.0414
     14 C          -2.6934   -2.2914   -2.7920 C.ar    1  UNL1       -0.0582
     15 C          -3.0158   -3.2648   -3.7045 C.ar    1  UNL1       -0.0615
     16 C          -3.6087   -4.4203   -3.2281 C.ar    1  UNL1       -0.0614
     17 C          -3.8401   -4.5270   -1.8741 C.ar    1  UNL1       -0.0556
     18 C          -3.5142   -3.5388   -0.9388 C.ar    1  UNL1       -0.0135
     19 C          -3.7800   -3.6976    0.5125 C.3     1  UNL1        0.0856
     20 O          -4.6320   -2.7109    1.0204 O.3     1  UNL1       -0.3845
     21 C          -4.5672   -5.0062    0.6681 C.3     1  UNL1       -0.0321
     22 C          -2.5507   -3.8135    1.3530 C.3     1  UNL1       -0.0321
     23 C          -0.4798    0.5693    0.6318 C.ar    1  UNL1       -0.0339
     24 C          -0.8280   -0.0835    1.8161 C.ar    1  UNL1       -0.0575
     25 C           0.1090   -0.5129    2.7349 C.ar    1  UNL1       -0.0609
     26 C           1.4311   -0.2663    2.4312 C.ar    1  UNL1       -0.0546
     27 C           1.8613    0.3680    1.2923 C.ar    1  UNL1       -0.0247
     28 C           3.2526    0.6289    0.9592 C.2     1  UNL1       -0.0526
     29 C           4.2758    0.2821    1.7107 C.2     1  UNL1       -0.0357
     30 C           5.6870    0.5121    1.4356 C.ar    1  UNL1        0.0646
     31 N           6.6805    0.1301    2.2495 N.ar    1  UNL1       -0.2472
     32 C           7.9747    0.3466    1.9841 C.ar    1  UNL1        0.0730
     33 C           8.4162    0.9867    0.8418 C.ar    1  UNL1        0.0005
     34 C           9.7528    1.2017    0.5810 C.ar    1  UNL1       -0.0512
     35 C          10.6457    0.7470    1.5167 C.ar    1  UNL1       -0.0427
     36 C          10.2407    0.1038    2.6671 C.ar    1  UNL1        0.0430
     37 CL         11.4571   -0.4338    3.7894 Cl      1  UNL1       -0.0835
     38 C           8.8958   -0.0968    2.9009 C.ar    1  UNL1       -0.0174
     39 C           7.4228    1.3972   -0.0250 C.ar    1  UNL1       -0.0506
     40 C           6.1055    1.1533    0.2890 C.ar    1  UNL1       -0.0357
     41 C           0.8683    0.7625    0.4315 C.ar    1  UNL1       -0.0504
     42 H          -4.0596    5.8814    2.4863 H       1  UNL1        0.2951
     43 H          -2.0430    4.6785   -0.1097 H       1  UNL1        0.0383
     44 H          -3.2785    5.6965   -0.9003 H       1  UNL1        0.0383
     45 H          -1.9161    4.2813   -2.7635 H       1  UNL1        0.0271
     46 H          -2.4896    2.5112   -2.9856 H       1  UNL1        0.0271
     47 H          -4.8707    3.4153   -3.1153 H       1  UNL1        0.0271
     48 H          -4.2639    5.1388   -2.7764 H       1  UNL1        0.0271
     49 H          -5.0935    2.4929   -0.3607 H       1  UNL1        0.0382
     50 H          -4.2066    1.6364   -1.6537 H       1  UNL1        0.0382
     51 H          -1.0372    1.7495   -1.0193 H       1  UNL1        0.0461
     52 H          -2.5614    0.2321   -2.0688 H       1  UNL1        0.0282
     53 H          -0.9289   -0.5143   -1.7067 H       1  UNL1        0.0282
     54 H          -1.7327   -1.6760    0.1690 H       1  UNL1        0.0314
     55 H          -3.4186   -0.8997    0.0369 H       1  UNL1        0.0314
     56 H          -2.2330   -1.4135   -3.2196 H       1  UNL1        0.0620
     57 H          -2.8235   -3.1595   -4.7682 H       1  UNL1        0.0618
     58 H          -3.8955   -5.2401   -3.8833 H       1  UNL1        0.0618
     59 H          -4.3056   -5.4456   -1.5298 H       1  UNL1        0.0621
     60 H          -5.2789   -2.4849    0.2992 H       1  UNL1        0.2106
     61 H          -3.8981   -5.8584    0.4280 H       1  UNL1        0.0260
     62 H          -4.8238   -5.1471    1.7544 H       1  UNL1        0.0260
     63 H          -5.5044   -4.9989    0.1021 H       1  UNL1        0.0260
     64 H          -2.4599   -2.9519    2.0645 H       1  UNL1        0.0260
     65 H          -1.6106   -3.9916    0.7768 H       1  UNL1        0.0260
     66 H          -2.6069   -4.7049    2.0438 H       1  UNL1        0.0260
     67 H          -1.8698   -0.2870    2.0868 H       1  UNL1        0.0621
     68 H          -0.2004   -1.0143    3.6403 H       1  UNL1        0.0618
     69 H           2.1534   -0.6056    3.1551 H       1  UNL1        0.0623
     70 H           3.4912    1.1402    0.0394 H       1  UNL1        0.0624
     71 H           4.0674   -0.2274    2.6317 H       1  UNL1        0.0639
     72 H          10.0384    1.7034   -0.3202 H       1  UNL1        0.0625
     73 H          11.7077    0.9068    1.3309 H       1  UNL1        0.0632
     74 H           8.5874   -0.5974    3.7988 H       1  UNL1        0.0653
     75 H           7.7436    1.9032   -0.9327 H       1  UNL1        0.0625
     76 H           5.4198    1.5160   -0.4561 H       1  UNL1        0.0639
     77 H           1.1558    1.2752   -0.4947 H       1  UNL1        0.0626
@<TRIPOS>BOND
     1     1     2    1
     2     2     3    2
     3     2     4    1
     4     4     5    1
     5     5     6    1
     6     6     7    1
     7     5     8    1
     8     8     9    1
     9     9    10    1
    10    10    11    1
    11    11    12    1
    12    12    13    1
    13    13    14   ar
    14    14    15   ar
    15    15    16   ar
    16    16    17   ar
    17    17    18   ar
    18    18    19    1
    19    19    20    1
    20    19    21    1
    21    19    22    1
    22    10    23    1
    23    23    24   ar
    24    24    25   ar
    25    25    26   ar
    26    26    27   ar
    27    27    28    1
    28    28    29    2
    29    29    30    1
    30    30    31   ar
    31    31    32   ar
    32    32    33   ar
    33    33    34   ar
    34    34    35   ar
    35    35    36   ar
    36    36    37    1
    37    36    38   ar
    38    33    39   ar
    39    39    40   ar
    40    27    41   ar
    41     7     5    1
    42    18    13   ar
    43    41    23   ar
    44    40    30   ar
    45    38    32   ar
    46     1    42    1
    47     4    43    1
    48     4    44    1
    49     6    45    1
    50     6    46    1
    51     7    47    1
    52     7    48    1
    53     8    49    1
    54     8    50    1
    55    10    51    1
    56    11    52    1
    57    11    53    1
    58    12    54    1
    59    12    55    1
    60    14    56    1
    61    15    57    1
    62    16    58    1
    63    17    59    1
    64    20    60    1
    65    21    61    1
    66    21    62    1
    67    21    63    1
    68    22    64    1
    69    22    65    1
    70    22    66    1
    71    24    67    1
    72    25    68    1
    73    26    69    1
    74    28    70    1
    75    29    71    1
    76    34    72    1
    77    35    73    1
    78    38    74    1
    79    39    75    1
    80    40    76    1
    81    41    77    1
