@<TRIPOS>MOLECULE
*****
 59 64 0 0 0
SMALL
GASTEIGER

@<TRIPOS>ATOM
      1 C           8.3621    0.1237   -0.1544 C.3     1  UNL1       -0.0127
      2 N           7.0721   -0.0559   -0.7719 N.3     1  UNL1       -0.3029
      3 C           6.1225   -0.7218    0.0643 C.3     1  UNL1        0.0114
      4 C           5.1458    0.1656    0.7482 C.3     1  UNL1        0.0120
      5 N           4.6567    1.2622   -0.0138 N.3     1  UNL1       -0.2957
      6 C           3.7241    0.9538   -1.0480 C.3     1  UNL1        0.0241
      7 C           2.4794    0.3170   -0.5486 C.ar    1  UNL1       -0.0333
      8 C           2.4307   -1.0473   -0.4681 C.ar    1  UNL1       -0.0568
      9 C           1.2873   -1.6635   -0.0084 C.ar    1  UNL1       -0.0537
     10 C           0.1759   -0.9463    0.3785 C.ar    1  UNL1       -0.0164
     11 C          -1.0492   -1.5643    0.8685 C.ar    1  UNL1        0.0009
     12 C          -0.9763   -2.7526    1.5758 C.ar    1  UNL1        0.0376
     13 N          -2.0858   -3.3683    2.0530 N.ar    1  UNL1       -0.2369
     14 C          -3.2865   -2.8365    1.8495 C.ar    1  UNL1        0.1387
     15 N          -4.5197   -3.2637    2.2245 N.ar    1  UNL1       -0.3452
     16 C          -5.3782   -2.3620    1.7649 C.ar    1  UNL1        0.0118
     17 C          -4.7283   -1.3419    1.0898 C.ar    1  UNL1        0.0087
     18 C          -5.3665   -0.1782    0.4561 C.ar    1  UNL1       -0.0151
     19 C          -4.8515    1.0732    0.6632 C.ar    1  UNL1       -0.0520
     20 C          -5.4721    2.1420    0.0523 C.ar    1  UNL1       -0.0372
     21 C          -6.5979    1.9481   -0.7565 C.ar    1  UNL1        0.0465
     22 N          -7.3630    2.8095   -1.4456 N.ar    1  UNL1       -0.3606
     23 C          -8.3373    2.1347   -2.0745 C.ar    1  UNL1        0.0027
     24 C          -8.1916    0.8077   -1.7801 C.ar    1  UNL1       -0.0366
     25 C          -7.1058    0.6883   -0.9569 C.ar    1  UNL1        0.0002
     26 C          -6.4804   -0.3923   -0.3410 C.ar    1  UNL1       -0.0448
     27 C          -3.3860   -1.6537    1.1483 C.ar    1  UNL1        0.0269
     28 C          -2.2846   -0.9942    0.6453 C.ar    1  UNL1       -0.0413
     29 C           0.2474    0.4270    0.2890 C.ar    1  UNL1       -0.0537
     30 C           1.3758    1.0609   -0.1659 C.ar    1  UNL1       -0.0568
     31 C           5.7768    2.0206   -0.5240 C.3     1  UNL1        0.0120
     32 C           6.5770    1.1272   -1.4126 C.3     1  UNL1        0.0114
     33 H           8.4258    1.0334    0.4755 H       1  UNL1        0.0391
     34 H           8.5254   -0.7457    0.5298 H       1  UNL1        0.0391
     35 H           9.1360    0.0642   -0.9324 H       1  UNL1        0.0391
     36 H           6.7167   -1.2428    0.8726 H       1  UNL1        0.0439
     37 H           5.6570   -1.5501   -0.5071 H       1  UNL1        0.0439
     38 H           4.2671   -0.4653    1.0625 H       1  UNL1        0.0439
     39 H           5.5706    0.5750    1.6911 H       1  UNL1        0.0439
     40 H           3.4031    1.9351   -1.4944 H       1  UNL1        0.0476
     41 H           4.1316    0.2824   -1.8249 H       1  UNL1        0.0476
     42 H           3.2784   -1.6806   -0.7596 H       1  UNL1        0.0621
     43 H           1.2039   -2.7518    0.0727 H       1  UNL1        0.0624
     44 H          -0.0048   -3.1909    1.7451 H       1  UNL1        0.0836
     45 H          -4.6806   -4.1475    2.7712 H       1  UNL1        0.1668
     46 H          -6.4498   -2.4119    1.8974 H       1  UNL1        0.0814
     47 H          -3.9830    1.1896    1.2938 H       1  UNL1        0.0624
     48 H          -5.0899    3.1309    0.1974 H       1  UNL1        0.0638
     49 H          -7.1870    3.8576   -1.4619 H       1  UNL1        0.1653
     50 H          -9.1028    2.5839   -2.7059 H       1  UNL1        0.0807
     51 H          -8.8066   -0.0365   -2.1183 H       1  UNL1        0.0638
     52 H          -6.8947   -1.3727   -0.5114 H       1  UNL1        0.0630
     53 H          -2.3435   -0.0683    0.0931 H       1  UNL1        0.0631
     54 H          -0.5968    1.0698    0.5783 H       1  UNL1        0.0624
     55 H           1.4686    2.1373   -0.2499 H       1  UNL1        0.0621
     56 H           6.4211    2.3532    0.3362 H       1  UNL1        0.0439
     57 H           5.4722    2.9066   -1.0960 H       1  UNL1        0.0439
     58 H           7.4867    1.7189   -1.7274 H       1  UNL1        0.0439
     59 H           6.0018    0.9075   -2.3340 H       1  UNL1        0.0439
@<TRIPOS>BOND
     1     1     2    1
     2     2     3    1
     3     3     4    1
     4     4     5    1
     5     5     6    1
     6     6     7    1
     7     7     8   ar
     8     8     9   ar
     9     9    10   ar
    10    10    11    1
    11    11    12   ar
    12    12    13   ar
    13    13    14   ar
    14    14    15   ar
    15    15    16   ar
    16    16    17   ar
    17    17    18    1
    18    18    19   ar
    19    19    20   ar
    20    20    21   ar
    21    21    22   ar
    22    22    23   ar
    23    23    24   ar
    24    24    25   ar
    25    25    26   ar
    26    17    27   ar
    27    27    28   ar
    28    10    29   ar
    29    29    30   ar
    30     5    31    1
    31    31    32    1
    32    32     2    1
    33    30     7   ar
    34    28    11   ar
    35    27    14   ar
    36    26    18   ar
    37    25    21   ar
    38     1    33    1
    39     1    34    1
    40     1    35    1
    41     3    36    1
    42     3    37    1
    43     4    38    1
    44     4    39    1
    45     6    40    1
    46     6    41    1
    47     8    42    1
    48     9    43    1
    49    12    44    1
    50    15    45    1
    51    16    46    1
    52    19    47    1
    53    20    48    1
    54    22    49    1
    55    23    50    1
    56    24    51    1
    57    26    52    1
    58    28    53    1
    59    29    54    1
    60    30    55    1
    61    31    56    1
    62    31    57    1
    63    32    58    1
    64    32    59    1
