
     RDKit          3D

 59 64  0  0  0  0  0  0  0  0999 V2000
    8.3621    0.1237   -0.1544 C   0  0  0  0  0  0  0  0  0  0  0  0
    7.0721   -0.0559   -0.7719 N   0  0  0  0  0  0  0  0  0  0  0  0
    6.1225   -0.7218    0.0643 C   0  0  0  0  0  0  0  0  0  0  0  0
    5.1458    0.1656    0.7482 C   0  0  0  0  0  0  0  0  0  0  0  0
    4.6567    1.2622   -0.0138 N   0  0  0  0  0  0  0  0  0  0  0  0
    3.7241    0.9538   -1.0480 C   0  0  0  0  0  0  0  0  0  0  0  0
    2.4794    0.3170   -0.5486 C   0  0  0  0  0  0  0  0  0  0  0  0
    2.4307   -1.0473   -0.4681 C   0  0  0  0  0  0  0  0  0  0  0  0
    1.2873   -1.6635   -0.0084 C   0  0  0  0  0  0  0  0  0  0  0  0
    0.1759   -0.9463    0.3785 C   0  0  0  0  0  0  0  0  0  0  0  0
   -1.0492   -1.5643    0.8685 C   0  0  0  0  0  0  0  0  0  0  0  0
   -0.9763   -2.7526    1.5758 C   0  0  0  0  0  0  0  0  0  0  0  0
   -2.0858   -3.3683    2.0530 N   0  0  0  0  0  0  0  0  0  0  0  0
   -3.2865   -2.8365    1.8495 C   0  0  0  0  0  0  0  0  0  0  0  0
   -4.5197   -3.2637    2.2245 N   0  0  0  0  0  0  0  0  0  0  0  0
   -5.3782   -2.3620    1.7649 C   0  0  0  0  0  0  0  0  0  0  0  0
   -4.7283   -1.3419    1.0898 C   0  0  0  0  0  0  0  0  0  0  0  0
   -5.3665   -0.1782    0.4561 C   0  0  0  0  0  0  0  0  0  0  0  0
   -4.8515    1.0732    0.6632 C   0  0  0  0  0  0  0  0  0  0  0  0
   -5.4721    2.1420    0.0523 C   0  0  0  0  0  0  0  0  0  0  0  0
   -6.5979    1.9481   -0.7565 C   0  0  0  0  0  0  0  0  0  0  0  0
   -7.3630    2.8095   -1.4456 N   0  0  0  0  0  0  0  0  0  0  0  0
   -8.3373    2.1347   -2.0745 C   0  0  0  0  0  0  0  0  0  0  0  0
   -8.1916    0.8077   -1.7801 C   0  0  0  0  0  0  0  0  0  0  0  0
   -7.1058    0.6883   -0.9569 C   0  0  0  0  0  0  0  0  0  0  0  0
   -6.4804   -0.3923   -0.3410 C   0  0  0  0  0  0  0  0  0  0  0  0
   -3.3860   -1.6537    1.1483 C   0  0  0  0  0  0  0  0  0  0  0  0
   -2.2846   -0.9942    0.6453 C   0  0  0  0  0  0  0  0  0  0  0  0
    0.2474    0.4270    0.2890 C   0  0  0  0  0  0  0  0  0  0  0  0
    1.3758    1.0609   -0.1659 C   0  0  0  0  0  0  0  0  0  0  0  0
    5.7768    2.0206   -0.5240 C   0  0  0  0  0  0  0  0  0  0  0  0
    6.5770    1.1272   -1.4126 C   0  0  0  0  0  0  0  0  0  0  0  0
    8.4258    1.0334    0.4755 H   0  0  0  0  0  0  0  0  0  0  0  0
    8.5254   -0.7457    0.5298 H   0  0  0  0  0  0  0  0  0  0  0  0
    9.1360    0.0642   -0.9324 H   0  0  0  0  0  0  0  0  0  0  0  0
    6.7167   -1.2428    0.8726 H   0  0  0  0  0  0  0  0  0  0  0  0
    5.6570   -1.5501   -0.5071 H   0  0  0  0  0  0  0  0  0  0  0  0
    4.2671   -0.4653    1.0625 H   0  0  0  0  0  0  0  0  0  0  0  0
    5.5706    0.5750    1.6911 H   0  0  0  0  0  0  0  0  0  0  0  0
    3.4031    1.9351   -1.4944 H   0  0  0  0  0  0  0  0  0  0  0  0
    4.1316    0.2824   -1.8249 H   0  0  0  0  0  0  0  0  0  0  0  0
    3.2784   -1.6806   -0.7596 H   0  0  0  0  0  0  0  0  0  0  0  0
    1.2039   -2.7518    0.0727 H   0  0  0  0  0  0  0  0  0  0  0  0
   -0.0048   -3.1909    1.7451 H   0  0  0  0  0  0  0  0  0  0  0  0
   -4.6806   -4.1475    2.7712 H   0  0  0  0  0  0  0  0  0  0  0  0
   -6.4498   -2.4119    1.8974 H   0  0  0  0  0  0  0  0  0  0  0  0
   -3.9830    1.1896    1.2938 H   0  0  0  0  0  0  0  0  0  0  0  0
   -5.0899    3.1309    0.1974 H   0  0  0  0  0  0  0  0  0  0  0  0
   -7.1870    3.8576   -1.4619 H   0  0  0  0  0  0  0  0  0  0  0  0
   -9.1028    2.5839   -2.7059 H   0  0  0  0  0  0  0  0  0  0  0  0
   -8.8066   -0.0365   -2.1183 H   0  0  0  0  0  0  0  0  0  0  0  0
   -6.8947   -1.3727   -0.5114 H   0  0  0  0  0  0  0  0  0  0  0  0
   -2.3435   -0.0683    0.0931 H   0  0  0  0  0  0  0  0  0  0  0  0
   -0.5968    1.0698    0.5783 H   0  0  0  0  0  0  0  0  0  0  0  0
    1.4686    2.1373   -0.2499 H   0  0  0  0  0  0  0  0  0  0  0  0
    6.4211    2.3532    0.3362 H   0  0  0  0  0  0  0  0  0  0  0  0
    5.4722    2.9066   -1.0960 H   0  0  0  0  0  0  0  0  0  0  0  0
    7.4867    1.7189   -1.7274 H   0  0  0  0  0  0  0  0  0  0  0  0
    6.0018    0.9075   -2.3340 H   0  0  0  0  0  0  0  0  0  0  0  0
  1  2  1  0
  2  3  1  0
  3  4  1  0
  4  5  1  0
  5  6  1  0
  6  7  1  0
  7  8  2  0
  8  9  1  0
  9 10  2  0
 10 11  1  0
 11 12  2  0
 12 13  1  0
 13 14  2  0
 14 15  1  0
 15 16  1  0
 16 17  2  0
 17 18  1  0
 18 19  2  0
 19 20  1  0
 20 21  2  0
 21 22  1  0
 22 23  1  0
 23 24  2  0
 24 25  1  0
 25 26  2  0
 17 27  1  0
 27 28  2  0
 10 29  1  0
 29 30  2  0
  5 31  1  0
 31 32  1  0
 32  2  1  0
 30  7  1  0
 28 11  1  0
 27 14  1  0
 26 18  1  0
 25 21  1  0
  1 33  1  0
  1 34  1  0
  1 35  1  0
  3 36  1  0
  3 37  1  0
  4 38  1  0
  4 39  1  0
  6 40  1  0
  6 41  1  0
  8 42  1  0
  9 43  1  0
 12 44  1  0
 15 45  1  0
 16 46  1  0
 19 47  1  0
 20 48  1  0
 22 49  1  0
 23 50  1  0
 24 51  1  0
 26 52  1  0
 28 53  1  0
 29 54  1  0
 30 55  1  0
 31 56  1  0
 31 57  1  0
 32 58  1  0
 32 59  1  0
M  END
$$$$
