@<TRIPOS>MOLECULE
*****
 49 52 0 0 0
SMALL
GASTEIGER

@<TRIPOS>ATOM
      1 C          -2.5152    2.1246   -0.2264 C.3     1  UNL1       -0.0295
      2 C          -1.9162    0.7719   -0.4352 C.3     1  UNL1        0.1580
      3 C          -0.6639    0.8505   -1.2104 C.ar    1  UNL1        0.0226
      4 C           0.5732    0.4784   -0.6555 C.ar    1  UNL1       -0.0321
      5 C           1.7485    0.5273   -1.3424 C.ar    1  UNL1        0.0342
      6 N           3.0211    0.1831   -0.8338 N.am    1  UNL1       -0.2802
      7 C           3.3441   -0.1858    0.4694 C.2     1  UNL1        0.2666
      8 O           2.4391   -0.2310    1.3373 O.2     1  UNL1       -0.2682
      9 C           4.7177   -0.5283    0.8776 C.ar    1  UNL1        0.1257
     10 C           4.9460   -0.8529    2.1935 C.ar    1  UNL1       -0.0300
     11 C           6.2120   -1.1790    2.6519 C.ar    1  UNL1       -0.0407
     12 C           7.2611   -1.1789    1.7761 C.ar    1  UNL1        0.0699
     13 C           8.5881   -1.5106    2.2467 C.1     1  UNL1        0.1007
     14 N           9.6663   -1.7621    2.6354 N.1     1  UNL1       -0.1908
     15 C           7.0108   -0.8490    0.4526 C.ar    1  UNL1        0.0458
     16 N           5.7558   -0.5348    0.0412 N.ar    1  UNL1       -0.2491
     17 C           1.6311    0.9833   -2.6650 C.ar    1  UNL1       -0.0377
     18 C           0.4425    1.3532   -3.2343 C.ar    1  UNL1       -0.0243
     19 C          -0.7308    1.2940   -2.5154 C.ar    1  UNL1        0.1292
     20 F          -1.8738    1.6854   -3.1286 F       1  UNL1       -0.2051
     21 N          -1.5301    0.2846    0.9075 N.2     1  UNL1       -0.2196
     22 C          -2.5355   -0.0271    1.6551 C.2     1  UNL1        0.2768
     23 N          -2.3789   -0.5216    2.9962 N.pl3   1  UNL1       -0.3133
     24 O          -3.8467    0.1031    1.1887 O.2     1  UNL1       -0.4532
     25 C          -4.1653   -0.1708   -0.1661 C.3     1  UNL1        0.1786
     26 C          -5.0281   -1.4235   -0.2121 C.3     1  UNL1       -0.0068
     27 C          -5.9483   -0.7356   -1.1693 C.3     1  UNL1       -0.0454
     28 C          -5.2933    0.5862   -0.7668 C.3     1  UNL1       -0.0068
     29 C          -2.8861   -0.2721   -0.9279 C.3     1  UNL1        0.3159
     30 F          -2.3215   -1.5094   -0.5774 F       1  UNL1       -0.1983
     31 F          -3.0961   -0.3157   -2.2575 F       1  UNL1       -0.1983
     32 H          -3.1962    2.4593   -1.0158 H       1  UNL1        0.0258
     33 H          -2.9522    2.2273    0.7921 H       1  UNL1        0.0258
     34 H          -1.6599    2.8632   -0.2377 H       1  UNL1        0.0258
     35 H           0.5611    0.1321    0.3818 H       1  UNL1        0.0640
     36 H           3.8589    0.1970   -1.5107 H       1  UNL1        0.1552
     37 H           4.1336   -0.8581    2.9047 H       1  UNL1        0.0641
     38 H           6.4025   -1.4333    3.6792 H       1  UNL1        0.0631
     39 H           7.8051   -0.8411   -0.2504 H       1  UNL1        0.0843
     40 H           2.5515    1.0337   -3.2386 H       1  UNL1        0.0637
     41 H           0.3845    1.7057   -4.2765 H       1  UNL1        0.0647
     42 H          -1.7961   -1.3694    3.1632 H       1  UNL1        0.1466
     43 H          -2.8222   -0.0733    3.8175 H       1  UNL1        0.1466
     44 H          -5.5601   -1.6355    0.7449 H       1  UNL1        0.0306
     45 H          -4.4813   -2.2834   -0.6265 H       1  UNL1        0.0306
     46 H          -5.7444   -1.0254   -2.2270 H       1  UNL1        0.0268
     47 H          -7.0357   -0.7927   -0.9408 H       1  UNL1        0.0268
     48 H          -5.1125    1.1795   -1.6646 H       1  UNL1        0.0306
     49 H          -5.9642    1.0774   -0.0169 H       1  UNL1        0.0306
@<TRIPOS>BOND
     1     1     2    1
     2     2     3    1
     3     3     4   ar
     4     4     5   ar
     5     5     6    1
     6     6     7   am
     7     7     8    2
     8     7     9    1
     9     9    10   ar
    10    10    11   ar
    11    11    12   ar
    12    12    13    1
    13    13    14    3
    14    12    15   ar
    15    15    16   ar
    16     5    17   ar
    17    17    18   ar
    18    18    19   ar
    19    19    20    1
    20     2    21    1
    21    21    22    2
    22    22    23    1
    23    22    24    1
    24    24    25    1
    25    25    26    1
    26    26    27    1
    27    27    28    1
    28    25    29    1
    29    29    30    1
    30    29    31    1
    31    29     2    1
    32    19     3   ar
    33    28    25    1
    34    16     9   ar
    35     1    32    1
    36     1    33    1
    37     1    34    1
    38     4    35    1
    39     6    36    1
    40    10    37    1
    41    11    38    1
    42    15    39    1
    43    17    40    1
    44    18    41    1
    45    23    42    1
    46    23    43    1
    47    26    44    1
    48    26    45    1
    49    27    46    1
    50    27    47    1
    51    28    48    1
    52    28    49    1
