@<TRIPOS>MOLECULE
*****
 71 75 0 0 0
SMALL
GASTEIGER

@<TRIPOS>ATOM
      1 C           0.0628   -5.6725   -1.8590 C.3     1  UNL1       -0.0455
      2 C           0.5323   -4.7760   -0.7478 C.3     1  UNL1        0.0387
      3 N          -0.0306   -3.4362   -0.9651 N.ar    1  UNL1       -0.2705
      4 C           0.5185   -2.4444   -1.6585 C.ar    1  UNL1        0.0338
      5 C          -0.3121   -1.3438   -1.6338 C.ar    1  UNL1        0.0282
      6 C          -0.1143   -0.0403   -2.2552 C.ar    1  UNL1       -0.0022
      7 C          -0.9801    0.4170   -3.2213 C.ar    1  UNL1       -0.0351
      8 C          -0.7902    1.6475   -3.8070 C.ar    1  UNL1        0.0305
      9 N           0.2522    2.4075   -3.4291 N.ar    1  UNL1       -0.2374
     10 C           1.1280    2.0078   -2.4897 C.ar    1  UNL1        0.1391
     11 N           2.2295    2.5908   -1.9591 N.ar    1  UNL1       -0.3391
     12 C           2.7667    1.7721   -1.0394 C.ar    1  UNL1        0.0486
     13 C           3.9600    2.0353   -0.2455 C.ar    1  UNL1       -0.0013
     14 C           4.6618    3.2102   -0.3966 C.ar    1  UNL1       -0.0526
     15 C           5.7941    3.4419    0.3684 C.ar    1  UNL1       -0.0608
     16 C           6.2579    2.5231    1.2965 C.ar    1  UNL1       -0.0573
     17 C           5.5465    1.3497    1.4390 C.ar    1  UNL1       -0.0328
     18 C           6.0272    0.3576    2.4252 C.3     1  UNL1        0.0235
     19 N           6.9467   -0.5485    1.8039 N.3     1  UNL1       -0.3042
     20 C           7.4560   -1.5476    2.7012 C.3     1  UNL1       -0.0127
     21 C           6.4648   -1.1321    0.5839 C.3     1  UNL1       -0.0127
     22 C           4.4206    1.1251    0.6747 C.ar    1  UNL1       -0.0482
     23 C           1.9714    0.6388   -0.9954 C.ar    1  UNL1       -0.0265
     24 C           0.9400    0.7742   -1.9006 C.ar    1  UNL1        0.0271
     25 C          -1.3996   -1.7176   -0.8870 C.ar    1  UNL1        0.1004
     26 C          -2.5945   -0.9517   -0.5310 C.ar    1  UNL1        0.0028
     27 C          -2.5613    0.1884    0.2222 C.ar    1  UNL1       -0.0507
     28 C          -3.7348    0.8747    0.5290 C.ar    1  UNL1       -0.0398
     29 C          -4.9673    0.4350    0.0887 C.ar    1  UNL1        0.0348
     30 N          -6.1727    1.1371    0.4015 N.am    1  UNL1       -0.2693
     31 C          -6.9131    0.8308    1.5777 C.2     1  UNL1        0.3060
     32 O          -6.4357   -0.0821    2.3011 O.2     1  UNL1       -0.2523
     33 N          -8.1116    1.4989    1.9284 N.am    1  UNL1       -0.2915
     34 C          -8.7868    1.1124    3.1448 C.3     1  UNL1        0.0043
     35 C          -8.6681    2.5474    1.1052 C.3     1  UNL1        0.0043
     36 C          -4.9805   -0.7187   -0.6710 C.ar    1  UNL1       -0.0398
     37 C          -3.8332   -1.4155   -0.9879 C.ar    1  UNL1       -0.0507
     38 N          -1.1867   -3.0020   -0.4987 N.ar    1  UNL1       -0.1706
     39 H          -0.5798   -5.1320   -2.5911 H       1  UNL1        0.0247
     40 H          -0.5014   -6.5591   -1.4468 H       1  UNL1        0.0247
     41 H           0.9322   -6.1018   -2.4023 H       1  UNL1        0.0247
     42 H           1.6437   -4.7125   -0.6893 H       1  UNL1        0.0506
     43 H           0.1212   -5.1609    0.2108 H       1  UNL1        0.0506
     44 H           1.4691   -2.4515   -2.1798 H       1  UNL1        0.0832
     45 H          -1.8362   -0.1846   -3.5452 H       1  UNL1        0.0639
     46 H          -1.4909    1.9891   -4.5717 H       1  UNL1        0.0830
     47 H           2.5781    3.5306   -2.2438 H       1  UNL1        0.1673
     48 H           4.3275    3.9585   -1.1176 H       1  UNL1        0.0624
     49 H           6.3520    4.3585    0.2589 H       1  UNL1        0.0618
     50 H           7.1457    2.7137    1.8908 H       1  UNL1        0.0621
     51 H           5.1505   -0.1692    2.8835 H       1  UNL1        0.0475
     52 H           6.5542    0.8386    3.2747 H       1  UNL1        0.0475
     53 H           6.6414   -2.0545    3.2660 H       1  UNL1        0.0391
     54 H           8.1560   -1.1230    3.4417 H       1  UNL1        0.0391
     55 H           7.9491   -2.3387    2.0977 H       1  UNL1        0.0391
     56 H           5.5534   -1.7361    0.6990 H       1  UNL1        0.0391
     57 H           7.2904   -1.7496    0.1624 H       1  UNL1        0.0391
     58 H           6.2532   -0.3037   -0.1426 H       1  UNL1        0.0391
     59 H           3.8774    0.2007    0.8009 H       1  UNL1        0.0627
     60 H           2.0914   -0.2373   -0.3746 H       1  UNL1        0.0645
     61 H          -1.5955    0.5649    0.5882 H       1  UNL1        0.0625
     62 H          -3.7165    1.7914    1.1334 H       1  UNL1        0.0636
     63 H          -6.5532    1.8914   -0.2105 H       1  UNL1        0.1564
     64 H          -9.6507    0.4387    2.9529 H       1  UNL1        0.0429
     65 H          -8.1176    0.5622    3.8442 H       1  UNL1        0.0429
     66 H          -9.2224    2.0017    3.6683 H       1  UNL1        0.0429
     67 H          -8.6135    2.1794    0.0389 H       1  UNL1        0.0429
     68 H          -8.0396    3.4368    1.2152 H       1  UNL1        0.0429
     69 H          -9.7419    2.7131    1.2948 H       1  UNL1        0.0429
     70 H          -5.9384   -1.0852   -1.0294 H       1  UNL1        0.0636
     71 H          -3.8531   -2.3280   -1.5899 H       1  UNL1        0.0625
@<TRIPOS>BOND
     1     1     2    1
     2     2     3    1
     3     3     4   ar
     4     4     5   ar
     5     5     6    1
     6     6     7   ar
     7     7     8   ar
     8     8     9   ar
     9     9    10   ar
    10    10    11   ar
    11    11    12   ar
    12    12    13    1
    13    13    14   ar
    14    14    15   ar
    15    15    16   ar
    16    16    17   ar
    17    17    18    1
    18    18    19    1
    19    19    20    1
    20    19    21    1
    21    17    22   ar
    22    12    23   ar
    23    23    24   ar
    24     5    25   ar
    25    25    26    1
    26    26    27   ar
    27    27    28   ar
    28    28    29   ar
    29    29    30    1
    30    30    31   am
    31    31    32    2
    32    31    33   am
    33    33    34    1
    34    33    35    1
    35    29    36   ar
    36    36    37   ar
    37    25    38   ar
    38    38     3   ar
    39    24     6   ar
    40    37    26   ar
    41    24    10   ar
    42    22    13   ar
    43     1    39    1
    44     1    40    1
    45     1    41    1
    46     2    42    1
    47     2    43    1
    48     4    44    1
    49     7    45    1
    50     8    46    1
    51    11    47    1
    52    14    48    1
    53    15    49    1
    54    16    50    1
    55    18    51    1
    56    18    52    1
    57    20    53    1
    58    20    54    1
    59    20    55    1
    60    21    56    1
    61    21    57    1
    62    21    58    1
    63    22    59    1
    64    23    60    1
    65    27    61    1
    66    28    62    1
    67    30    63    1
    68    34    64    1
    69    34    65    1
    70    34    66    1
    71    35    67    1
    72    35    68    1
    73    35    69    1
    74    36    70    1
    75    37    71    1
