
     RDKit          3D

 71 75  0  0  0  0  0  0  0  0999 V2000
    0.0628   -5.6725   -1.8590 C   0  0  0  0  0  0  0  0  0  0  0  0
    0.5323   -4.7760   -0.7478 C   0  0  0  0  0  0  0  0  0  0  0  0
   -0.0306   -3.4362   -0.9651 N   0  0  0  0  0  0  0  0  0  0  0  0
    0.5185   -2.4444   -1.6585 C   0  0  0  0  0  0  0  0  0  0  0  0
   -0.3121   -1.3438   -1.6338 C   0  0  0  0  0  0  0  0  0  0  0  0
   -0.1143   -0.0403   -2.2552 C   0  0  0  0  0  0  0  0  0  0  0  0
   -0.9801    0.4170   -3.2213 C   0  0  0  0  0  0  0  0  0  0  0  0
   -0.7902    1.6475   -3.8070 C   0  0  0  0  0  0  0  0  0  0  0  0
    0.2522    2.4075   -3.4291 N   0  0  0  0  0  0  0  0  0  0  0  0
    1.1280    2.0078   -2.4897 C   0  0  0  0  0  0  0  0  0  0  0  0
    2.2295    2.5908   -1.9591 N   0  0  0  0  0  0  0  0  0  0  0  0
    2.7667    1.7721   -1.0394 C   0  0  0  0  0  0  0  0  0  0  0  0
    3.9600    2.0353   -0.2455 C   0  0  0  0  0  0  0  0  0  0  0  0
    4.6618    3.2102   -0.3966 C   0  0  0  0  0  0  0  0  0  0  0  0
    5.7941    3.4419    0.3684 C   0  0  0  0  0  0  0  0  0  0  0  0
    6.2579    2.5231    1.2965 C   0  0  0  0  0  0  0  0  0  0  0  0
    5.5465    1.3497    1.4390 C   0  0  0  0  0  0  0  0  0  0  0  0
    6.0272    0.3576    2.4252 C   0  0  0  0  0  0  0  0  0  0  0  0
    6.9467   -0.5485    1.8039 N   0  0  0  0  0  0  0  0  0  0  0  0
    7.4560   -1.5476    2.7012 C   0  0  0  0  0  0  0  0  0  0  0  0
    6.4648   -1.1321    0.5839 C   0  0  0  0  0  0  0  0  0  0  0  0
    4.4206    1.1251    0.6747 C   0  0  0  0  0  0  0  0  0  0  0  0
    1.9714    0.6388   -0.9954 C   0  0  0  0  0  0  0  0  0  0  0  0
    0.9400    0.7742   -1.9006 C   0  0  0  0  0  0  0  0  0  0  0  0
   -1.3996   -1.7176   -0.8870 C   0  0  0  0  0  0  0  0  0  0  0  0
   -2.5945   -0.9517   -0.5310 C   0  0  0  0  0  0  0  0  0  0  0  0
   -2.5613    0.1884    0.2222 C   0  0  0  0  0  0  0  0  0  0  0  0
   -3.7348    0.8747    0.5290 C   0  0  0  0  0  0  0  0  0  0  0  0
   -4.9673    0.4350    0.0887 C   0  0  0  0  0  0  0  0  0  0  0  0
   -6.1727    1.1371    0.4015 N   0  0  0  0  0  0  0  0  0  0  0  0
   -6.9131    0.8308    1.5777 C   0  0  0  0  0  0  0  0  0  0  0  0
   -6.4357   -0.0821    2.3011 O   0  0  0  0  0  0  0  0  0  0  0  0
   -8.1116    1.4989    1.9284 N   0  0  0  0  0  0  0  0  0  0  0  0
   -8.7868    1.1124    3.1448 C   0  0  0  0  0  0  0  0  0  0  0  0
   -8.6681    2.5474    1.1052 C   0  0  0  0  0  0  0  0  0  0  0  0
   -4.9805   -0.7187   -0.6710 C   0  0  0  0  0  0  0  0  0  0  0  0
   -3.8332   -1.4155   -0.9879 C   0  0  0  0  0  0  0  0  0  0  0  0
   -1.1867   -3.0020   -0.4987 N   0  0  0  0  0  0  0  0  0  0  0  0
   -0.5798   -5.1320   -2.5911 H   0  0  0  0  0  0  0  0  0  0  0  0
   -0.5014   -6.5591   -1.4468 H   0  0  0  0  0  0  0  0  0  0  0  0
    0.9322   -6.1018   -2.4023 H   0  0  0  0  0  0  0  0  0  0  0  0
    1.6437   -4.7125   -0.6893 H   0  0  0  0  0  0  0  0  0  0  0  0
    0.1212   -5.1609    0.2108 H   0  0  0  0  0  0  0  0  0  0  0  0
    1.4691   -2.4515   -2.1798 H   0  0  0  0  0  0  0  0  0  0  0  0
   -1.8362   -0.1846   -3.5452 H   0  0  0  0  0  0  0  0  0  0  0  0
   -1.4909    1.9891   -4.5717 H   0  0  0  0  0  0  0  0  0  0  0  0
    2.5781    3.5306   -2.2438 H   0  0  0  0  0  0  0  0  0  0  0  0
    4.3275    3.9585   -1.1176 H   0  0  0  0  0  0  0  0  0  0  0  0
    6.3520    4.3585    0.2589 H   0  0  0  0  0  0  0  0  0  0  0  0
    7.1457    2.7137    1.8908 H   0  0  0  0  0  0  0  0  0  0  0  0
    5.1505   -0.1692    2.8835 H   0  0  0  0  0  0  0  0  0  0  0  0
    6.5542    0.8386    3.2747 H   0  0  0  0  0  0  0  0  0  0  0  0
    6.6414   -2.0545    3.2660 H   0  0  0  0  0  0  0  0  0  0  0  0
    8.1560   -1.1230    3.4417 H   0  0  0  0  0  0  0  0  0  0  0  0
    7.9491   -2.3387    2.0977 H   0  0  0  0  0  0  0  0  0  0  0  0
    5.5534   -1.7361    0.6990 H   0  0  0  0  0  0  0  0  0  0  0  0
    7.2904   -1.7496    0.1624 H   0  0  0  0  0  0  0  0  0  0  0  0
    6.2532   -0.3037   -0.1426 H   0  0  0  0  0  0  0  0  0  0  0  0
    3.8774    0.2007    0.8009 H   0  0  0  0  0  0  0  0  0  0  0  0
    2.0914   -0.2373   -0.3746 H   0  0  0  0  0  0  0  0  0  0  0  0
   -1.5955    0.5649    0.5882 H   0  0  0  0  0  0  0  0  0  0  0  0
   -3.7165    1.7914    1.1334 H   0  0  0  0  0  0  0  0  0  0  0  0
   -6.5532    1.8914   -0.2105 H   0  0  0  0  0  0  0  0  0  0  0  0
   -9.6507    0.4387    2.9529 H   0  0  0  0  0  0  0  0  0  0  0  0
   -8.1176    0.5622    3.8442 H   0  0  0  0  0  0  0  0  0  0  0  0
   -9.2224    2.0017    3.6683 H   0  0  0  0  0  0  0  0  0  0  0  0
   -8.6135    2.1794    0.0389 H   0  0  0  0  0  0  0  0  0  0  0  0
   -8.0396    3.4368    1.2152 H   0  0  0  0  0  0  0  0  0  0  0  0
   -9.7419    2.7131    1.2948 H   0  0  0  0  0  0  0  0  0  0  0  0
   -5.9384   -1.0852   -1.0294 H   0  0  0  0  0  0  0  0  0  0  0  0
   -3.8531   -2.3280   -1.5899 H   0  0  0  0  0  0  0  0  0  0  0  0
  1  2  1  0
  2  3  1  0
  3  4  1  0
  4  5  2  0
  5  6  1  0
  6  7  2  0
  7  8  1  0
  8  9  2  0
  9 10  1  0
 10 11  1  0
 11 12  1  0
 12 13  1  0
 13 14  2  0
 14 15  1  0
 15 16  2  0
 16 17  1  0
 17 18  1  0
 18 19  1  0
 19 20  1  0
 19 21  1  0
 17 22  2  0
 12 23  2  0
 23 24  1  0
  5 25  1  0
 25 26  1  0
 26 27  2  0
 27 28  1  0
 28 29  2  0
 29 30  1  0
 30 31  1  0
 31 32  2  0
 31 33  1  0
 33 34  1  0
 33 35  1  0
 29 36  1  0
 36 37  2  0
 25 38  2  0
 38  3  1  0
 24  6  1  0
 37 26  1  0
 24 10  2  0
 22 13  1  0
  1 39  1  0
  1 40  1  0
  1 41  1  0
  2 42  1  0
  2 43  1  0
  4 44  1  0
  7 45  1  0
  8 46  1  0
 11 47  1  0
 14 48  1  0
 15 49  1  0
 16 50  1  0
 18 51  1  0
 18 52  1  0
 20 53  1  0
 20 54  1  0
 20 55  1  0
 21 56  1  0
 21 57  1  0
 21 58  1  0
 22 59  1  0
 23 60  1  0
 27 61  1  0
 28 62  1  0
 30 63  1  0
 34 64  1  0
 34 65  1  0
 34 66  1  0
 35 67  1  0
 35 68  1  0
 35 69  1  0
 36 70  1  0
 37 71  1  0
M  END
$$$$
