@<TRIPOS>MOLECULE
*****
 33 32 0 0 0
SMALL
GASTEIGER

@<TRIPOS>ATOM
      1 O          -5.4366    0.8771    0.7820 O.3     1  UNL1       -0.3950
      2 C          -4.2263    0.2820    0.4544 C.3     1  UNL1        0.0442
      3 C          -3.9641    0.2622   -1.0262 C.3     1  UNL1       -0.0297
      4 C          -2.6597   -0.3943   -1.3438 C.3     1  UNL1       -0.0510
      5 C          -1.4501    0.2972   -0.7335 C.3     1  UNL1       -0.0530
      6 C          -0.2640   -0.5393   -1.1775 C.3     1  UNL1       -0.0530
      7 C           1.0552   -0.0463   -0.6964 C.3     1  UNL1       -0.0519
      8 C           1.1752    0.0216    0.8101 C.3     1  UNL1       -0.0404
      9 C           2.5764    0.5393    1.1171 C.3     1  UNL1       -0.0021
     10 N           3.5709   -0.3735    0.5807 N.3     1  UNL1       -0.2944
     11 C           4.9276    0.1493    0.6815 C.3     1  UNL1        0.0948
     12 O           5.1899    0.3663    2.0278 O.3     1  UNL1       -0.3801
     13 H          -5.6733    1.6096    0.1303 H       1  UNL1        0.2094
     14 H          -4.2159   -0.7609    0.8300 H       1  UNL1        0.0557
     15 H          -3.4368    0.8363    0.9997 H       1  UNL1        0.0557
     16 H          -4.0347    1.2861   -1.4730 H       1  UNL1        0.0287
     17 H          -4.7562   -0.3267   -1.5338 H       1  UNL1        0.0287
     18 H          -2.4963   -0.4437   -2.4464 H       1  UNL1        0.0266
     19 H          -2.6598   -1.4276   -0.9175 H       1  UNL1        0.0266
     20 H          -1.3562    1.3368   -1.1221 H       1  UNL1        0.0265
     21 H          -1.5565    0.3272    0.3526 H       1  UNL1        0.0265
     22 H          -0.2488   -0.5727   -2.2943 H       1  UNL1        0.0265
     23 H          -0.4289   -1.5791   -0.8108 H       1  UNL1        0.0265
     24 H           1.8489   -0.7601   -1.0633 H       1  UNL1        0.0266
     25 H           1.2800    0.9870   -1.0807 H       1  UNL1        0.0266
     26 H           1.0773   -0.9615    1.3022 H       1  UNL1        0.0277
     27 H           0.4362    0.7327    1.2303 H       1  UNL1        0.0277
     28 H           2.6875    1.5214    0.6426 H       1  UNL1        0.0425
     29 H           2.7434    0.6356    2.2018 H       1  UNL1        0.0425
     30 H           3.4966   -1.3178    1.0302 H       1  UNL1        0.1240
     31 H           5.6059   -0.6212    0.2449 H       1  UNL1        0.0727
     32 H           5.0595    1.0673    0.0651 H       1  UNL1        0.0727
     33 H           6.1336    0.0712    2.2360 H       1  UNL1        0.2111
@<TRIPOS>BOND
     1     1     2    1
     2     2     3    1
     3     3     4    1
     4     4     5    1
     5     5     6    1
     6     6     7    1
     7     7     8    1
     8     8     9    1
     9     9    10    1
    10    10    11    1
    11    11    12    1
    12     1    13    1
    13     2    14    1
    14     2    15    1
    15     3    16    1
    16     3    17    1
    17     4    18    1
    18     4    19    1
    19     5    20    1
    20     5    21    1
    21     6    22    1
    22     6    23    1
    23     7    24    1
    24     7    25    1
    25     8    26    1
    26     8    27    1
    27     9    28    1
    28     9    29    1
    29    10    30    1
    30    11    31    1
    31    11    32    1
    32    12    33    1
