@<TRIPOS>MOLECULE
*****
 38 40 0 0 0
SMALL
GASTEIGER

@<TRIPOS>ATOM
      1 C          -6.2821   -0.2592   -0.9904 C.3     1  UNL1       -0.0134
      2 S          -5.2081   -1.5039   -0.2062 S.3     1  UNL1       -0.1280
      3 C          -3.5472   -0.8857   -0.1399 C.ar    1  UNL1        0.0196
      4 C          -3.2280    0.3565   -0.6335 C.ar    1  UNL1       -0.0428
      5 C          -1.9312    0.8206   -0.5733 C.ar    1  UNL1       -0.0234
      6 C          -0.9038    0.0650   -0.0193 C.ar    1  UNL1        0.0416
      7 C          -1.2530   -1.1862    0.4721 C.ar    1  UNL1       -0.0273
      8 C          -2.5480   -1.6575    0.4156 C.ar    1  UNL1        0.0699
      9 C          -2.9033   -2.9893    0.9420 C.3     1  UNL1        0.4185
     10 F          -3.8580   -2.8960    1.9634 F       1  UNL1       -0.1659
     11 F          -1.8022   -3.5985    1.4889 F       1  UNL1       -0.1659
     12 F          -3.4237   -3.7618   -0.0642 F       1  UNL1       -0.1659
     13 N           0.3105    0.7853   -0.0903 N.am    1  UNL1       -0.2547
     14 C           1.6271    0.1958   -0.0373 C.2     1  UNL1        0.3108
     15 O           1.7432   -1.0406    0.0798 O.2     1  UNL1       -0.2519
     16 N           2.7824    1.0108   -0.1171 N.am    1  UNL1       -0.2677
     17 C           4.1246    0.5884   -0.0800 C.ar    1  UNL1        0.0529
     18 C           4.5776   -0.6917    0.0403 C.ar    1  UNL1       -0.0375
     19 C           5.9557   -0.9794    0.0645 C.ar    1  UNL1       -0.0418
     20 C           6.8855    0.0266   -0.0328 C.ar    1  UNL1        0.0277
     21 N           6.4215    1.2806   -0.1507 N.ar    1  UNL1       -0.2614
     22 C           5.1095    1.5716   -0.1754 C.ar    1  UNL1        0.0488
     23 C          -0.0537    2.1763   -0.2214 C.3     1  UNL1        0.0253
     24 C          -1.3332    2.0891   -1.0227 C.3     1  UNL1       -0.0096
     25 H          -7.3385   -0.5182   -0.8664 H       1  UNL1        0.0344
     26 H          -6.0235    0.7388   -0.5849 H       1  UNL1        0.0344
     27 H          -6.0727   -0.2689   -2.0820 H       1  UNL1        0.0344
     28 H          -4.0454    0.9377   -1.0652 H       1  UNL1        0.0632
     29 H          -0.4612   -1.7856    0.9067 H       1  UNL1        0.0642
     30 H           2.5457    2.0564   -0.2157 H       1  UNL1        0.1564
     31 H           3.8730   -1.4906    0.1176 H       1  UNL1        0.0637
     32 H           6.2622   -1.9984    0.1605 H       1  UNL1        0.0633
     33 H           7.9517   -0.2027   -0.0135 H       1  UNL1        0.0829
     34 H           4.7939    2.6119   -0.2733 H       1  UNL1        0.0848
     35 H          -0.3355    2.6184    0.7657 H       1  UNL1        0.0472
     36 H           0.7069    2.7834   -0.7409 H       1  UNL1        0.0472
     37 H          -1.1164    2.0491   -2.1209 H       1  UNL1        0.0329
     38 H          -2.0023    2.9520   -0.8185 H       1  UNL1        0.0329
@<TRIPOS>BOND
     1     1     2    1
     2     2     3    1
     3     3     4   ar
     4     4     5   ar
     5     5     6   ar
     6     6     7   ar
     7     7     8   ar
     8     8     9    1
     9     9    10    1
    10     9    11    1
    11     9    12    1
    12     6    13    1
    13    13    14   am
    14    14    15    2
    15    14    16   am
    16    16    17    1
    17    17    18   ar
    18    18    19   ar
    19    19    20   ar
    20    20    21   ar
    21    21    22   ar
    22    13    23    1
    23    23    24    1
    24     8     3   ar
    25    22    17   ar
    26    24     5    1
    27     1    25    1
    28     1    26    1
    29     1    27    1
    30     4    28    1
    31     7    29    1
    32    16    30    1
    33    18    31    1
    34    19    32    1
    35    20    33    1
    36    22    34    1
    37    23    35    1
    38    23    36    1
    39    24    37    1
    40    24    38    1
