@<TRIPOS>MOLECULE
*****
 76 80 0 0 0
SMALL
GASTEIGER

@<TRIPOS>ATOM
      1 C          -4.6104   -5.2174   -0.3210 C.3     1  UNL1       -0.0397
      2 C          -4.7411   -3.7255   -0.1807 C.ar    1  UNL1       -0.0503
      3 C          -5.6691   -3.1530    0.6449 C.ar    1  UNL1       -0.0568
      4 C          -5.7494   -1.7782    0.7375 C.ar    1  UNL1       -0.0359
      5 C          -4.9000   -0.9777    0.0032 C.ar    1  UNL1        0.0674
      6 N          -4.9705    0.4518    0.0906 N.ar    1  UNL1       -0.2181
      7 N          -5.8715    1.2468   -0.4696 N.ar    1  UNL1       -0.1691
      8 C          -5.6115    2.5267   -0.1690 C.ar    1  UNL1        0.0706
      9 C          -6.4245    3.6738   -0.6360 C.3     1  UNL1        0.0063
     10 C          -7.5659    3.2262   -1.4864 C.3     1  UNL1       -0.0546
     11 C          -5.5886    4.6608   -1.4120 C.3     1  UNL1       -0.0546
     12 C          -7.0082    4.4411    0.5525 C.3     1  UNL1       -0.0546
     13 C          -4.4841    2.4938    0.6206 C.ar    1  UNL1        0.0021
     14 C          -4.0665    1.1855    0.7939 C.ar    1  UNL1        0.1299
     15 N          -2.9520    0.6879    1.5281 N.am    1  UNL1       -0.2538
     16 C          -1.6715    0.4841    0.9865 C.2     1  UNL1        0.3092
     17 O          -1.4909    0.7550   -0.2317 O.2     1  UNL1       -0.2521
     18 N          -0.5699   -0.0103    1.7372 N.am    1  UNL1       -0.2686
     19 C           0.7203   -0.2145    1.1765 C.ar    1  UNL1        0.0427
     20 C           1.6562    0.7971    1.1795 C.ar    1  UNL1       -0.0364
     21 C           2.9199    0.6178    0.6390 C.ar    1  UNL1       -0.0176
     22 C           3.2767   -0.5884    0.0790 C.ar    1  UNL1        0.1283
     23 O           4.5306   -0.7662   -0.4572 O.3     1  UNL1       -0.4901
     24 C           5.4493    0.3069   -0.4278 C.3     1  UNL1        0.1023
     25 C           6.7175   -0.1852   -1.0806 C.3     1  UNL1        0.0333
     26 N           7.7601    0.7940   -1.1358 N.3     1  UNL1       -0.2948
     27 C           8.2672    1.0966    0.1679 C.3     1  UNL1        0.0225
     28 C           8.9026   -0.0960    0.8206 C.3     1  UNL1        0.0604
     29 O           9.7841   -0.7063   -0.0372 O.3     1  UNL1       -0.3772
     30 C          10.0492    0.0017   -1.1827 C.3     1  UNL1        0.0604
     31 C           8.8123    0.2895   -2.0130 C.3     1  UNL1        0.0225
     32 C           2.3374   -1.6027    0.0763 C.ar    1  UNL1        0.0256
     33 C           2.6867   -2.8079   -0.4814 C.ar    1  UNL1       -0.0505
     34 C           1.7436   -3.8148   -0.4810 C.ar    1  UNL1       -0.0611
     35 C           0.4830   -3.6453    0.0550 C.ar    1  UNL1       -0.0611
     36 C           0.1401   -2.4389    0.6105 C.ar    1  UNL1       -0.0521
     37 C           1.0919   -1.4153    0.6127 C.ar    1  UNL1        0.0069
     38 C          -3.9519   -1.5685   -0.8403 C.ar    1  UNL1       -0.0359
     39 C          -3.8835   -2.9420   -0.9225 C.ar    1  UNL1       -0.0568
     40 H          -4.2780   -5.4212   -1.3547 H       1  UNL1        0.0278
     41 H          -5.6445   -5.6622   -0.2518 H       1  UNL1        0.0278
     42 H          -3.9777   -5.6584    0.4551 H       1  UNL1        0.0278
     43 H          -6.3397   -3.7620    1.2247 H       1  UNL1        0.0621
     44 H          -6.4753   -1.3064    1.3823 H       1  UNL1        0.0639
     45 H          -8.3964    3.9595   -1.3714 H       1  UNL1        0.0239
     46 H          -7.9625    2.2427   -1.1691 H       1  UNL1        0.0239
     47 H          -7.2893    3.2328   -2.5604 H       1  UNL1        0.0239
     48 H          -4.5194    4.6366   -1.1248 H       1  UNL1        0.0239
     49 H          -5.6826    4.4629   -2.4968 H       1  UNL1        0.0239
     50 H          -5.9875    5.6884   -1.2544 H       1  UNL1        0.0239
     51 H          -7.7486    5.1570    0.1358 H       1  UNL1        0.0239
     52 H          -6.1631    4.9680    1.0456 H       1  UNL1        0.0239
     53 H          -7.5201    3.7445    1.2418 H       1  UNL1        0.0239
     54 H          -4.0094    3.3575    1.0346 H       1  UNL1        0.0671
     55 H          -3.1111    0.4615    2.5528 H       1  UNL1        0.1578
     56 H          -0.6995   -0.2373    2.7449 H       1  UNL1        0.1564
     57 H           1.3671    1.7492    1.6245 H       1  UNL1        0.0637
     58 H           3.6343    1.4229    0.6525 H       1  UNL1        0.0655
     59 H           4.9898    1.1541   -0.9668 H       1  UNL1        0.0709
     60 H           5.6733    0.5584    0.6357 H       1  UNL1        0.0709
     61 H           7.0260   -1.0976   -0.5048 H       1  UNL1        0.0460
     62 H           6.4846   -0.5126   -2.1236 H       1  UNL1        0.0460
     63 H           9.0310    1.8940    0.0507 H       1  UNL1        0.0449
     64 H           7.4699    1.4798    0.8318 H       1  UNL1        0.0449
     65 H           9.4803    0.2791    1.6984 H       1  UNL1        0.0572
     66 H           8.1309   -0.8146    1.1834 H       1  UNL1        0.0572
     67 H          10.7324   -0.6181   -1.8031 H       1  UNL1        0.0572
     68 H          10.5369    0.9451   -0.9272 H       1  UNL1        0.0572
     69 H           8.4713   -0.6070   -2.5429 H       1  UNL1        0.0449
     70 H           9.0334    1.0729   -2.7449 H       1  UNL1        0.0449
     71 H           3.6821   -2.9620   -0.9120 H       1  UNL1        0.0625
     72 H           2.0251   -4.7736   -0.9258 H       1  UNL1        0.0618
     73 H          -0.2461   -4.4693    0.0396 H       1  UNL1        0.0618
     74 H          -0.8217   -2.2607    1.0362 H       1  UNL1        0.0624
     75 H          -3.2831   -0.9621   -1.4188 H       1  UNL1        0.0639
     76 H          -3.1603   -3.4251   -1.5659 H       1  UNL1        0.0621
@<TRIPOS>BOND
     1     1     2    1
     2     2     3   ar
     3     3     4   ar
     4     4     5   ar
     5     5     6    1
     6     6     7   ar
     7     7     8   ar
     8     8     9    1
     9     9    10    1
    10     9    11    1
    11     9    12    1
    12     8    13   ar
    13    13    14   ar
    14    14    15    1
    15    15    16   am
    16    16    17    2
    17    16    18   am
    18    18    19    1
    19    19    20   ar
    20    20    21   ar
    21    21    22   ar
    22    22    23    1
    23    23    24    1
    24    24    25    1
    25    25    26    1
    26    26    27    1
    27    27    28    1
    28    28    29    1
    29    29    30    1
    30    30    31    1
    31    22    32   ar
    32    32    33   ar
    33    33    34   ar
    34    34    35   ar
    35    35    36   ar
    36    36    37   ar
    37     5    38   ar
    38    38    39   ar
    39    39     2   ar
    40    14     6   ar
    41    37    19   ar
    42    31    26    1
    43    37    32   ar
    44     1    40    1
    45     1    41    1
    46     1    42    1
    47     3    43    1
    48     4    44    1
    49    10    45    1
    50    10    46    1
    51    10    47    1
    52    11    48    1
    53    11    49    1
    54    11    50    1
    55    12    51    1
    56    12    52    1
    57    12    53    1
    58    13    54    1
    59    15    55    1
    60    18    56    1
    61    20    57    1
    62    21    58    1
    63    24    59    1
    64    24    60    1
    65    25    61    1
    66    25    62    1
    67    27    63    1
    68    27    64    1
    69    28    65    1
    70    28    66    1
    71    30    67    1
    72    30    68    1
    73    31    69    1
    74    31    70    1
    75    33    71    1
    76    34    72    1
    77    35    73    1
    78    36    74    1
    79    38    75    1
    80    39    76    1
