@<TRIPOS>MOLECULE
*****
 37 39 0 0 0
SMALL
GASTEIGER

@<TRIPOS>ATOM
      1 C          -2.2411   -0.9906   -1.6177 C.3     1  UNL1       -0.0466
      2 C          -2.0028   -0.8063   -0.1131 C.3     1  UNL1        0.0416
      3 C          -3.3129   -1.0203    0.5457 C.3     1  UNL1        0.0130
      4 N          -3.6779   -0.0311    1.5263 N.3     1  UNL1       -0.3132
      5 C          -3.1321    1.2822    1.2866 C.3     1  UNL1        0.0104
      6 C          -1.6314    1.1139    1.3293 C.3     1  UNL1        0.0334
      7 N          -1.2519    0.3112    0.2421 N.3     1  UNL1       -0.1714
      8 S          -0.1761    0.9834   -0.8367 S.O2    1  UNL1        0.0617
      9 O          -0.8219    1.0087   -2.2120 O.2     1  UNL1       -0.1528
     10 O          -0.0414    2.4644   -0.4765 O.2     1  UNL1       -0.1528
     11 C           1.3869    0.2757   -0.9882 C.ar    1  UNL1        0.1132
     12 C           2.3703    0.1739   -0.0344 C.ar    1  UNL1        0.0113
     13 C           2.1061    0.7229    1.1944 C.ar    1  UNL1       -0.0340
     14 C           2.9662    0.7247    2.2721 C.ar    1  UNL1        0.0282
     15 N           4.1795    0.1254    2.0826 N.ar    1  UNL1       -0.2626
     16 C           4.4900   -0.4348    0.8781 C.ar    1  UNL1        0.0353
     17 C           3.6026   -0.4211   -0.1894 C.ar    1  UNL1        0.0021
     18 C           3.8978   -0.9741   -1.4157 C.ar    1  UNL1       -0.0525
     19 C           2.9876   -0.9312   -2.4501 C.ar    1  UNL1       -0.0593
     20 C           1.7808   -0.3150   -2.1996 C.ar    1  UNL1       -0.0347
     21 H          -1.3309   -1.2720   -2.1617 H       1  UNL1        0.0246
     22 H          -2.9183   -1.8939   -1.6762 H       1  UNL1        0.0246
     23 H          -2.8289   -0.1789   -2.0546 H       1  UNL1        0.0246
     24 H          -1.3591   -1.7051    0.1336 H       1  UNL1        0.0490
     25 H          -3.3801   -1.9974    1.0893 H       1  UNL1        0.0440
     26 H          -4.1764   -1.0590   -0.1643 H       1  UNL1        0.0440
     27 H          -4.6899   -0.0187    1.7081 H       1  UNL1        0.1220
     28 H          -3.3951    1.6710    0.2994 H       1  UNL1        0.0437
     29 H          -3.4194    1.9109    2.1390 H       1  UNL1        0.0437
     30 H          -1.2694    0.7765    2.3183 H       1  UNL1        0.0456
     31 H          -1.1899    2.1413    1.1728 H       1  UNL1        0.0456
     32 H           1.1724    1.2018    1.3625 H       1  UNL1        0.0639
     33 H           2.7348    1.1623    3.2266 H       1  UNL1        0.0830
     34 H           5.4606   -0.9078    0.7442 H       1  UNL1        0.0836
     35 H           4.8542   -1.4484   -1.5722 H       1  UNL1        0.0624
     36 H           3.1845   -1.3536   -3.4240 H       1  UNL1        0.0618
     37 H           1.0725   -0.2908   -3.0312 H       1  UNL1        0.0637
@<TRIPOS>BOND
     1     1     2    1
     2     2     3    1
     3     3     4    1
     4     4     5    1
     5     5     6    1
     6     6     7    1
     7     7     8    1
     8     8     9    2
     9     8    10    2
    10     8    11    1
    11    11    12   ar
    12    12    13   ar
    13    13    14   ar
    14    14    15   ar
    15    15    16   ar
    16    16    17   ar
    17    17    18   ar
    18    18    19   ar
    19    19    20   ar
    20     7     2    1
    21    20    11   ar
    22    17    12   ar
    23     1    21    1
    24     1    22    1
    25     1    23    1
    26     2    24    1
    27     3    25    1
    28     3    26    1
    29     4    27    1
    30     5    28    1
    31     5    29    1
    32     6    30    1
    33     6    31    1
    34    13    32    1
    35    14    33    1
    36    16    34    1
    37    18    35    1
    38    19    36    1
    39    20    37    1
