@<TRIPOS>MOLECULE
*****
 54 58 0 0 0
SMALL
GASTEIGER

@<TRIPOS>ATOM
      1 C          -6.4999    2.2108    0.4089 C.3     1  UNL1        0.0707
      2 S          -5.9577    1.0594   -0.8289 S.O2    1  UNL1        0.0296
      3 O          -6.6991   -0.2524   -0.6901 O.2     1  UNL1       -0.1583
      4 O          -6.2113    1.5867   -2.2158 O.2     1  UNL1       -0.1583
      5 N          -4.2754    0.6901   -0.6484 N.3     1  UNL1       -0.1697
      6 C          -4.0748    0.0938    0.6042 C.3     1  UNL1        0.0476
      7 C          -2.8803   -0.7615    0.8034 C.ar    1  UNL1       -0.0064
      8 C          -2.9717   -1.5083    1.9690 C.ar    1  UNL1       -0.0370
      9 C          -1.9688   -2.4032    2.3065 C.ar    1  UNL1        0.0414
     10 CL         -2.0656   -3.3482    3.7679 Cl      1  UNL1       -0.0835
     11 C          -0.8475   -2.5751    1.4837 C.ar    1  UNL1       -0.0414
     12 C          -0.7249   -1.8490    0.3162 C.ar    1  UNL1       -0.0361
     13 C          -1.7428   -0.9801    0.0392 C.ar    1  UNL1        0.0540
     14 N          -1.5012   -0.2544   -1.1625 N.ar    1  UNL1       -0.2814
     15 C          -2.4346    0.1608   -2.0774 C.ar    1  UNL1        0.1538
     16 N          -1.8037    0.7577   -3.0609 N.ar    1  UNL1       -0.1326
     17 N          -0.4919    0.7247   -2.7705 N.ar    1  UNL1       -0.1337
     18 C          -0.2937    0.0895   -1.5705 C.ar    1  UNL1        0.1412
     19 C           0.9819   -0.0246   -0.9320 C.3     1  UNL1        0.0223
     20 C           2.0362   -0.6522   -1.8601 C.3     1  UNL1       -0.0274
     21 C           3.2199   -0.9490   -0.9641 C.3     1  UNL1        0.0141
     22 N           3.6700    0.3197   -0.4597 N.pl3   1  UNL1       -0.3151
     23 C           4.8465    0.3773    0.3223 C.ar    1  UNL1        0.1212
     24 C           5.5232   -0.7965    0.5737 C.ar    1  UNL1       -0.0217
     25 C           6.6765   -0.8629    1.3201 C.ar    1  UNL1       -0.0571
     26 C           7.1720    0.3068    1.8376 C.ar    1  UNL1       -0.0435
     27 C           6.4616    1.4693    1.5623 C.ar    1  UNL1        0.0297
     28 N           5.3412    1.5117    0.8336 N.ar    1  UNL1       -0.2403
     29 C           2.9653    1.5123   -0.7281 C.3     1  UNL1        0.0141
     30 C           1.5150    1.4591   -0.8987 C.3     1  UNL1       -0.0274
     31 C          -3.8880   -0.0197   -1.8479 C.3     1  UNL1        0.0807
     32 H          -5.6694    2.4015    1.1336 H       1  UNL1        0.0479
     33 H          -6.7567    3.1862   -0.0519 H       1  UNL1        0.0479
     34 H          -7.3488    1.7623    0.9453 H       1  UNL1        0.0479
     35 H          -4.0083    0.9255    1.3615 H       1  UNL1        0.0494
     36 H          -5.0050   -0.4677    0.8785 H       1  UNL1        0.0494
     37 H          -3.8404   -1.3753    2.6038 H       1  UNL1        0.0636
     38 H          -0.0853   -3.2749    1.7677 H       1  UNL1        0.0633
     39 H           0.0708   -2.0135   -0.3544 H       1  UNL1        0.0639
     40 H           1.1171   -0.2394    0.1094 H       1  UNL1        0.0381
     41 H           1.6458   -1.5541   -2.3563 H       1  UNL1        0.0287
     42 H           2.3387    0.0456   -2.6589 H       1  UNL1        0.0287
     43 H           3.9703   -1.4630   -1.5954 H       1  UNL1        0.0464
     44 H           2.9227   -1.5607   -0.0881 H       1  UNL1        0.0464
     45 H           5.1699   -1.7583    0.1836 H       1  UNL1        0.0652
     46 H           7.1953   -1.7861    1.5089 H       1  UNL1        0.0619
     47 H           8.0825    0.3334    2.4398 H       1  UNL1        0.0633
     48 H           6.8862    2.3709    1.9892 H       1  UNL1        0.0830
     49 H           3.1929    2.2526    0.0961 H       1  UNL1        0.0464
     50 H           3.4576    1.9886   -1.6255 H       1  UNL1        0.0464
     51 H           0.9700    2.0091   -0.1049 H       1  UNL1        0.0287
     52 H           1.2303    1.9361   -1.8572 H       1  UNL1        0.0287
     53 H          -4.1208   -1.1060   -1.6411 H       1  UNL1        0.0525
     54 H          -4.4918    0.2942   -2.7116 H       1  UNL1        0.0525
@<TRIPOS>BOND
     1     1     2    1
     2     2     3    2
     3     2     4    2
     4     2     5    1
     5     5     6    1
     6     6     7    1
     7     7     8   ar
     8     8     9   ar
     9     9    10    1
    10     9    11   ar
    11    11    12   ar
    12    12    13   ar
    13    13    14    1
    14    14    15   ar
    15    15    16   ar
    16    16    17   ar
    17    17    18   ar
    18    18    19    1
    19    19    20    1
    20    20    21    1
    21    21    22    1
    22    22    23    1
    23    23    24   ar
    24    24    25   ar
    25    25    26   ar
    26    26    27   ar
    27    27    28   ar
    28    22    29    1
    29    29    30    1
    30    15    31    1
    31    31     5    1
    32    13     7   ar
    33    18    14   ar
    34    30    19    1
    35    28    23   ar
    36     1    32    1
    37     1    33    1
    38     1    34    1
    39     6    35    1
    40     6    36    1
    41     8    37    1
    42    11    38    1
    43    12    39    1
    44    19    40    1
    45    20    41    1
    46    20    42    1
    47    21    43    1
    48    21    44    1
    49    24    45    1
    50    25    46    1
    51    26    47    1
    52    27    48    1
    53    29    49    1
    54    29    50    1
    55    30    51    1
    56    30    52    1
    57    31    53    1
    58    31    54    1
