@<TRIPOS>MOLECULE
*****
 56 59 0 0 0
SMALL
GASTEIGER

@<TRIPOS>ATOM
      1 C          -3.0304    0.9661   -3.4334 C.3     1  UNL1       -0.0489
      2 C          -3.5991   -0.3235   -2.9324 C.3     1  UNL1        0.0172
      3 N          -3.6875   -0.2552   -1.4876 N.pl3   1  UNL1       -0.2683
      4 C          -2.4291   -0.0546   -0.8555 C.ar    1  UNL1        0.1388
      5 N          -1.4145    0.0729   -1.7522 N.ar    1  UNL1       -0.2389
      6 C          -0.1785    0.2667   -1.2652 C.ar    1  UNL1        0.0330
      7 C           0.0979    0.3401    0.0807 C.ar    1  UNL1       -0.0252
      8 C           1.4996    0.5588    0.5950 C.3     1  UNL1        0.0081
      9 C           2.1409   -0.7903    0.7885 C.3     1  UNL1        0.0936
     10 O           3.4341   -0.7964    1.2561 O.3     1  UNL1       -0.4914
     11 C           4.5791   -0.3138    0.7119 C.ar    1  UNL1        0.1234
     12 C           4.7352    0.3102   -0.5007 C.ar    1  UNL1       -0.0189
     13 C           5.9816    0.7654   -0.9546 C.ar    1  UNL1       -0.0443
     14 C           7.0907    0.5961   -0.1892 C.ar    1  UNL1        0.0593
     15 C           8.4215    1.0462   -0.6012 C.2     1  UNL1        0.3368
     16 O           8.5819    1.6196   -1.7077 O.2     1  UNL1       -0.2451
     17 O           9.5192    0.8546    0.2051 O.3     1  UNL1       -0.4771
     18 C           6.9560   -0.0289    1.0318 C.ar    1  UNL1       -0.0414
     19 C           5.7492   -0.4710    1.4749 C.ar    1  UNL1       -0.0080
     20 C           5.6881   -1.1373    2.8080 C.3     1  UNL1       -0.0362
     21 C          -0.9216    0.2118    0.9739 C.ar    1  UNL1       -0.0416
     22 C          -2.2072    0.0110    0.4972 C.ar    1  UNL1        0.0777
     23 C          -3.1611   -0.1024    1.6147 C.2     1  UNL1        0.2540
     24 O          -2.6483   -0.2361    2.7565 O.2     1  UNL1       -0.2695
     25 N          -4.5813   -0.0804    1.5715 N.am    1  UNL1       -0.2674
     26 C          -5.2790    0.2157    2.8297 C.3     1  UNL1        0.0087
     27 C          -5.3765   -0.3176    0.4308 C.ar    1  UNL1        0.0768
     28 C          -6.6902   -0.4846    0.7573 C.ar    1  UNL1       -0.0355
     29 C          -7.6040   -0.7254   -0.2407 C.ar    1  UNL1       -0.0417
     30 C          -7.1749   -0.7952   -1.5693 C.ar    1  UNL1        0.0298
     31 N          -5.8755   -0.6293   -1.8847 N.ar    1  UNL1       -0.2380
     32 C          -4.9708   -0.3919   -0.9073 C.ar    1  UNL1        0.1481
     33 H          -2.8769    1.7272   -2.6394 H       1  UNL1        0.0245
     34 H          -2.0266    0.8269   -3.9245 H       1  UNL1        0.0245
     35 H          -3.7669    1.3769   -4.1787 H       1  UNL1        0.0245
     36 H          -2.8623   -1.1423   -3.1777 H       1  UNL1        0.0466
     37 H          -4.5544   -0.6068   -3.4098 H       1  UNL1        0.0466
     38 H           0.6902    0.3783   -1.9301 H       1  UNL1        0.0833
     39 H           2.0136    1.2278   -0.0782 H       1  UNL1        0.0347
     40 H           1.4107    1.0048    1.6324 H       1  UNL1        0.0347
     41 H           1.4742   -1.4842    1.3522 H       1  UNL1        0.0700
     42 H           2.1684   -1.2439   -0.2552 H       1  UNL1        0.0700
     43 H           3.8813    0.4512   -1.1465 H       1  UNL1        0.0654
     44 H           6.0578    1.2574   -1.9271 H       1  UNL1        0.0627
     45 H          10.3296    1.4672    0.1997 H       1  UNL1        0.2954
     46 H           7.8566   -0.1616    1.6429 H       1  UNL1        0.0629
     47 H           6.6352   -1.7373    2.9045 H       1  UNL1        0.0279
     48 H           5.6450   -0.3884    3.6226 H       1  UNL1        0.0279
     49 H           4.7988   -1.8119    2.8846 H       1  UNL1        0.0279
     50 H          -0.7396    0.2646    2.0446 H       1  UNL1        0.0629
     51 H          -5.9916    1.0550    2.7124 H       1  UNL1        0.0433
     52 H          -4.4941    0.6016    3.5403 H       1  UNL1        0.0433
     53 H          -5.6941   -0.6777    3.2978 H       1  UNL1        0.0433
     54 H          -7.0113   -0.4315    1.7607 H       1  UNL1        0.0638
     55 H          -8.6682   -0.8683   -0.0503 H       1  UNL1        0.0633
     56 H          -7.9211   -0.9863   -2.3291 H       1  UNL1        0.0830
@<TRIPOS>BOND
     1     1     2    1
     2     2     3    1
     3     3     4    1
     4     4     5   ar
     5     5     6   ar
     6     6     7   ar
     7     7     8    1
     8     8     9    1
     9     9    10    1
    10    10    11    1
    11    11    12   ar
    12    12    13   ar
    13    13    14   ar
    14    14    15    1
    15    15    16    2
    16    15    17    1
    17    14    18   ar
    18    18    19   ar
    19    19    20    1
    20     7    21   ar
    21    21    22   ar
    22    22    23    1
    23    23    24    2
    24    23    25   am
    25    25    26    1
    26    25    27    1
    27    27    28   ar
    28    28    29   ar
    29    29    30   ar
    30    30    31   ar
    31    31    32   ar
    32    32     3    1
    33    22     4   ar
    34    32    27   ar
    35    19    11   ar
    36     1    33    1
    37     1    34    1
    38     1    35    1
    39     2    36    1
    40     2    37    1
    41     6    38    1
    42     8    39    1
    43     8    40    1
    44     9    41    1
    45     9    42    1
    46    12    43    1
    47    13    44    1
    48    17    45    1
    49    18    46    1
    50    20    47    1
    51    20    48    1
    52    20    49    1
    53    21    50    1
    54    26    51    1
    55    26    52    1
    56    26    53    1
    57    28    54    1
    58    29    55    1
    59    30    56    1
