@<TRIPOS>MOLECULE
*****
 60 63 0 0 0
SMALL
GASTEIGER

@<TRIPOS>ATOM
      1 C           0.8907    2.6749    2.1767 C.3     1  UNL1       -0.0421
      2 C           0.6736    2.1094    0.8075 C.3     1  UNL1        0.0515
      3 C           1.7673    1.1703    0.4692 C.ar    1  UNL1       -0.0271
      4 C           2.6653    1.5344   -0.5474 C.ar    1  UNL1       -0.0562
      5 C           3.7235    0.7368   -0.9213 C.ar    1  UNL1       -0.0537
      6 C           3.9476   -0.4740   -0.3000 C.ar    1  UNL1       -0.0177
      7 C           5.0823   -1.3286   -0.7040 C.ar    1  UNL1       -0.0114
      8 C           6.2550   -0.7628   -1.1660 C.ar    1  UNL1       -0.0378
      9 C           7.3327   -1.5348   -1.5506 C.ar    1  UNL1        0.0055
     10 N           7.2658   -2.8673   -1.4838 N.ar    1  UNL1       -0.3291
     11 C           6.1407   -3.4487   -1.0393 C.ar    1  UNL1        0.2493
     12 O           6.0961   -4.7021   -0.9833 O.2     1  UNL1       -0.2679
     13 C           5.0259   -2.7043   -0.6400 C.ar    1  UNL1        0.0105
     14 C           3.0846   -0.8515    0.6960 C.ar    1  UNL1       -0.0537
     15 C           2.0122   -0.0333    1.0684 C.ar    1  UNL1       -0.0562
     16 N          -0.6612    1.5230    0.7361 N.am    1  UNL1       -0.2605
     17 C          -1.1187    0.4303    1.5541 C.3     1  UNL1        0.0224
     18 C          -2.6326    0.5591    1.7225 C.3     1  UNL1        0.0075
     19 C          -3.2875    0.3802    0.3451 C.3     1  UNL1        0.1415
     20 C          -4.7780    0.3881    0.4324 C.3     1  UNL1       -0.0064
     21 C          -5.3829    1.6262    0.9777 C.3     1  UNL1       -0.0258
     22 C          -5.1530    2.8895    0.2375 C.3     1  UNL1        0.0443
     23 O          -5.6199    2.8566   -1.0748 O.3     1  UNL1       -0.3950
     24 C          -2.7905   -0.9173   -0.1920 C.ar    1  UNL1       -0.0041
     25 C          -1.7637   -0.9195   -1.1451 C.ar    1  UNL1       -0.0548
     26 C          -1.2974   -2.1351   -1.6291 C.ar    1  UNL1       -0.0614
     27 C          -1.8106   -3.3462   -1.2039 C.ar    1  UNL1       -0.0617
     28 C          -2.8211   -3.3257   -0.2652 C.ar    1  UNL1       -0.0614
     29 C          -3.3104   -2.1091    0.2404 C.ar    1  UNL1       -0.0548
     30 O          -2.7803    1.4333   -0.5051 O.3     1  UNL1       -0.4388
     31 C          -1.6029    2.0812   -0.1945 C.2     1  UNL1        0.4042
     32 O          -1.3255    3.1924   -0.7286 O.2     1  UNL1       -0.2262
     33 H           0.3210    3.5779    2.3992 H       1  UNL1        0.0251
     34 H           1.9801    2.9553    2.2677 H       1  UNL1        0.0251
     35 H           0.7435    1.8687    2.9374 H       1  UNL1        0.0251
     36 H           0.7064    2.9850    0.0829 H       1  UNL1        0.0549
     37 H           2.5042    2.4734   -1.0393 H       1  UNL1        0.0621
     38 H           4.4123    1.0241   -1.7067 H       1  UNL1        0.0624
     39 H           6.2931    0.3272   -1.2146 H       1  UNL1        0.0638
     40 H           8.2394   -1.0507   -1.9094 H       1  UNL1        0.0808
     41 H           8.0793   -3.4604   -1.7735 H       1  UNL1        0.1683
     42 H           4.1288   -3.1776   -0.2855 H       1  UNL1        0.0678
     43 H           3.2346   -1.7897    1.1976 H       1  UNL1        0.0624
     44 H           1.3550   -0.3563    1.8697 H       1  UNL1        0.0621
     45 H          -0.8442   -0.5106    1.0833 H       1  UNL1        0.0467
     46 H          -0.6948    0.4647    2.5829 H       1  UNL1        0.0467
     47 H          -2.8274    1.5587    2.1368 H       1  UNL1        0.0322
     48 H          -2.9519   -0.2753    2.3776 H       1  UNL1        0.0322
     49 H          -5.1715    0.1085   -0.5737 H       1  UNL1        0.0308
     50 H          -5.0507   -0.4373    1.1620 H       1  UNL1        0.0308
     51 H          -6.4964    1.5070    1.1247 H       1  UNL1        0.0289
     52 H          -5.0024    1.7543    2.0296 H       1  UNL1        0.0289
     53 H          -5.7273    3.7359    0.7408 H       1  UNL1        0.0557
     54 H          -4.1163    3.2471    0.2229 H       1  UNL1        0.0557
     55 H          -6.2756    2.1326   -1.1967 H       1  UNL1        0.2094
     56 H          -1.3562    0.0224   -1.4905 H       1  UNL1        0.0622
     57 H          -0.4988   -2.1440   -2.3702 H       1  UNL1        0.0618
     58 H          -1.4605   -4.3050   -1.5695 H       1  UNL1        0.0618
     59 H          -3.2598   -4.2502    0.1028 H       1  UNL1        0.0618
     60 H          -4.0907   -2.1111    0.9731 H       1  UNL1        0.0622
@<TRIPOS>BOND
     1     1     2    1
     2     2     3    1
     3     3     4   ar
     4     4     5   ar
     5     5     6   ar
     6     6     7    1
     7     7     8   ar
     8     8     9   ar
     9     9    10   ar
    10    10    11   ar
    11    11    12    2
    12    11    13   ar
    13     6    14   ar
    14    14    15   ar
    15     2    16    1
    16    16    17    1
    17    17    18    1
    18    18    19    1
    19    19    20    1
    20    20    21    1
    21    21    22    1
    22    22    23    1
    23    19    24    1
    24    24    25   ar
    25    25    26   ar
    26    26    27   ar
    27    27    28   ar
    28    28    29   ar
    29    19    30    1
    30    30    31    1
    31    31    32    2
    32    15     3   ar
    33    31    16   am
    34    13     7   ar
    35    29    24   ar
    36     1    33    1
    37     1    34    1
    38     1    35    1
    39     2    36    1
    40     4    37    1
    41     5    38    1
    42     8    39    1
    43     9    40    1
    44    10    41    1
    45    13    42    1
    46    14    43    1
    47    15    44    1
    48    17    45    1
    49    17    46    1
    50    18    47    1
    51    18    48    1
    52    20    49    1
    53    20    50    1
    54    21    51    1
    55    21    52    1
    56    22    53    1
    57    22    54    1
    58    23    55    1
    59    25    56    1
    60    26    57    1
    61    27    58    1
    62    28    59    1
    63    29    60    1
