
     RDKit          3D

 60 63  0  0  0  0  0  0  0  0999 V2000
    0.8907    2.6749    2.1767 C   0  0  0  0  0  0  0  0  0  0  0  0
    0.6736    2.1094    0.8075 C   0  0  1  0  0  0  0  0  0  0  0  0
    1.7673    1.1703    0.4692 C   0  0  0  0  0  0  0  0  0  0  0  0
    2.6653    1.5344   -0.5474 C   0  0  0  0  0  0  0  0  0  0  0  0
    3.7235    0.7368   -0.9213 C   0  0  0  0  0  0  0  0  0  0  0  0
    3.9476   -0.4740   -0.3000 C   0  0  0  0  0  0  0  0  0  0  0  0
    5.0823   -1.3286   -0.7040 C   0  0  0  0  0  0  0  0  0  0  0  0
    6.2550   -0.7628   -1.1660 C   0  0  0  0  0  0  0  0  0  0  0  0
    7.3327   -1.5348   -1.5506 C   0  0  0  0  0  0  0  0  0  0  0  0
    7.2658   -2.8673   -1.4838 N   0  0  0  0  0  0  0  0  0  0  0  0
    6.1407   -3.4487   -1.0393 C   0  0  0  0  0  0  0  0  0  0  0  0
    6.0961   -4.7021   -0.9833 O   0  0  0  0  0  0  0  0  0  0  0  0
    5.0259   -2.7043   -0.6400 C   0  0  0  0  0  0  0  0  0  0  0  0
    3.0846   -0.8515    0.6960 C   0  0  0  0  0  0  0  0  0  0  0  0
    2.0122   -0.0333    1.0684 C   0  0  0  0  0  0  0  0  0  0  0  0
   -0.6612    1.5230    0.7361 N   0  0  0  0  0  0  0  0  0  0  0  0
   -1.1187    0.4303    1.5541 C   0  0  0  0  0  0  0  0  0  0  0  0
   -2.6326    0.5591    1.7225 C   0  0  0  0  0  0  0  0  0  0  0  0
   -3.2875    0.3802    0.3451 C   0  0  2  0  0  0  0  0  0  0  0  0
   -4.7780    0.3881    0.4324 C   0  0  0  0  0  0  0  0  0  0  0  0
   -5.3829    1.6262    0.9777 C   0  0  0  0  0  0  0  0  0  0  0  0
   -5.1530    2.8895    0.2375 C   0  0  0  0  0  0  0  0  0  0  0  0
   -5.6199    2.8566   -1.0748 O   0  0  0  0  0  0  0  0  0  0  0  0
   -2.7905   -0.9173   -0.1920 C   0  0  0  0  0  0  0  0  0  0  0  0
   -1.7637   -0.9195   -1.1451 C   0  0  0  0  0  0  0  0  0  0  0  0
   -1.2974   -2.1351   -1.6291 C   0  0  0  0  0  0  0  0  0  0  0  0
   -1.8106   -3.3462   -1.2039 C   0  0  0  0  0  0  0  0  0  0  0  0
   -2.8211   -3.3257   -0.2652 C   0  0  0  0  0  0  0  0  0  0  0  0
   -3.3104   -2.1091    0.2404 C   0  0  0  0  0  0  0  0  0  0  0  0
   -2.7803    1.4333   -0.5051 O   0  0  0  0  0  0  0  0  0  0  0  0
   -1.6029    2.0812   -0.1945 C   0  0  0  0  0  0  0  0  0  0  0  0
   -1.3255    3.1924   -0.7286 O   0  0  0  0  0  0  0  0  0  0  0  0
    0.3210    3.5779    2.3992 H   0  0  0  0  0  0  0  0  0  0  0  0
    1.9801    2.9553    2.2677 H   0  0  0  0  0  0  0  0  0  0  0  0
    0.7435    1.8687    2.9374 H   0  0  0  0  0  0  0  0  0  0  0  0
    0.7064    2.9850    0.0829 H   0  0  0  0  0  0  0  0  0  0  0  0
    2.5042    2.4734   -1.0393 H   0  0  0  0  0  0  0  0  0  0  0  0
    4.4123    1.0241   -1.7067 H   0  0  0  0  0  0  0  0  0  0  0  0
    6.2931    0.3272   -1.2146 H   0  0  0  0  0  0  0  0  0  0  0  0
    8.2394   -1.0507   -1.9094 H   0  0  0  0  0  0  0  0  0  0  0  0
    8.0793   -3.4604   -1.7735 H   0  0  0  0  0  0  0  0  0  0  0  0
    4.1288   -3.1776   -0.2855 H   0  0  0  0  0  0  0  0  0  0  0  0
    3.2346   -1.7897    1.1976 H   0  0  0  0  0  0  0  0  0  0  0  0
    1.3550   -0.3563    1.8697 H   0  0  0  0  0  0  0  0  0  0  0  0
   -0.8442   -0.5106    1.0833 H   0  0  0  0  0  0  0  0  0  0  0  0
   -0.6948    0.4647    2.5829 H   0  0  0  0  0  0  0  0  0  0  0  0
   -2.8274    1.5587    2.1368 H   0  0  0  0  0  0  0  0  0  0  0  0
   -2.9519   -0.2753    2.3776 H   0  0  0  0  0  0  0  0  0  0  0  0
   -5.1715    0.1085   -0.5737 H   0  0  0  0  0  0  0  0  0  0  0  0
   -5.0507   -0.4373    1.1620 H   0  0  0  0  0  0  0  0  0  0  0  0
   -6.4964    1.5070    1.1247 H   0  0  0  0  0  0  0  0  0  0  0  0
   -5.0024    1.7543    2.0296 H   0  0  0  0  0  0  0  0  0  0  0  0
   -5.7273    3.7359    0.7408 H   0  0  0  0  0  0  0  0  0  0  0  0
   -4.1163    3.2471    0.2229 H   0  0  0  0  0  0  0  0  0  0  0  0
   -6.2756    2.1326   -1.1967 H   0  0  0  0  0  0  0  0  0  0  0  0
   -1.3562    0.0224   -1.4905 H   0  0  0  0  0  0  0  0  0  0  0  0
   -0.4988   -2.1440   -2.3702 H   0  0  0  0  0  0  0  0  0  0  0  0
   -1.4605   -4.3050   -1.5695 H   0  0  0  0  0  0  0  0  0  0  0  0
   -3.2598   -4.2502    0.1028 H   0  0  0  0  0  0  0  0  0  0  0  0
   -4.0907   -2.1111    0.9731 H   0  0  0  0  0  0  0  0  0  0  0  0
  1  2  1  0
  2  3  1  0
  3  4  2  0
  4  5  1  0
  5  6  2  0
  6  7  1  0
  7  8  1  0
  8  9  2  0
  9 10  1  0
 10 11  1  0
 11 12  2  0
 11 13  1  0
  6 14  1  0
 14 15  2  0
  2 16  1  0
 16 17  1  0
 17 18  1  0
 18 19  1  0
 19 20  1  1
 20 21  1  0
 21 22  1  0
 22 23  1  0
 19 24  1  0
 24 25  2  0
 25 26  1  0
 26 27  2  0
 27 28  1  0
 28 29  2  0
 19 30  1  0
 30 31  1  0
 31 32  2  0
 15  3  1  0
 31 16  1  0
 13  7  2  0
 29 24  1  0
  1 33  1  0
  1 34  1  0
  1 35  1  0
  2 36  1  6
  4 37  1  0
  5 38  1  0
  8 39  1  0
  9 40  1  0
 10 41  1  0
 13 42  1  0
 14 43  1  0
 15 44  1  0
 17 45  1  0
 17 46  1  0
 18 47  1  0
 18 48  1  0
 20 49  1  0
 20 50  1  0
 21 51  1  0
 21 52  1  0
 22 53  1  0
 22 54  1  0
 23 55  1  0
 25 56  1  0
 26 57  1  0
 27 58  1  0
 28 59  1  0
 29 60  1  0
M  END
$$$$
