
     RDKit          3D

 46 48  0  0  0  0  0  0  0  0999 V2000
   -2.5957    0.9428    1.4608 C   0  0  0  0  0  0  0  0  0  0  0  0
   -3.6061    0.9892    0.3424 C   0  0  0  0  0  0  0  0  0  0  0  0
   -4.4613    2.2363    0.2315 C   0  0  0  0  0  0  0  0  0  0  0  0
   -4.2094   -0.3337   -0.0485 C   0  0  0  0  0  0  0  0  0  0  0  0
   -5.6711   -0.2845   -0.3189 C   0  0  0  0  0  0  0  0  0  0  0  0
   -6.4155   -1.3703   -0.4966 C   0  0  0  0  0  0  0  0  0  0  0  0
   -8.1351   -1.5148   -0.8220 Cl  0  0  0  0  0  0  0  0  0  0  0  0
   -6.7479   -3.0708   -0.6197 Cl  0  0  0  0  0  0  0  0  0  0  0  0
   -3.3063    0.3226   -0.9866 C   0  0  0  0  0  0  0  0  0  0  0  0
   -1.8924   -0.0821   -1.1517 C   0  0  0  0  0  0  0  0  0  0  0  0
   -1.3737   -0.6054   -0.1375 O   0  0  0  0  0  0  0  0  0  0  0  0
   -1.2273    0.1061   -2.3146 O   0  0  0  0  0  0  0  0  0  0  0  0
    0.1127   -0.2570   -2.5258 C   0  0  0  0  0  0  0  0  0  0  0  0
    1.0780    0.4143   -1.6233 C   0  0  0  0  0  0  0  0  0  0  0  0
    1.6287    0.0230   -0.4214 C   0  0  0  0  0  0  0  0  0  0  0  0
    2.5005    0.8230    0.2510 C   0  0  0  0  0  0  0  0  0  0  0  0
    2.9854    0.3111    1.4553 O   0  0  0  0  0  0  0  0  0  0  0  0
    4.1395   -0.4461    1.4543 C   0  0  0  0  0  0  0  0  0  0  0  0
    4.5538   -0.9176    2.6964 C   0  0  0  0  0  0  0  0  0  0  0  0
    5.6974   -1.6902    2.8337 C   0  0  0  0  0  0  0  0  0  0  0  0
    6.4547   -2.0097    1.7295 C   0  0  0  0  0  0  0  0  0  0  0  0
    6.0404   -1.5391    0.4925 C   0  0  0  0  0  0  0  0  0  0  0  0
    4.8949   -0.7669    0.3652 C   0  0  0  0  0  0  0  0  0  0  0  0
    2.8927    2.0533   -0.2019 C   0  0  0  0  0  0  0  0  0  0  0  0
    2.3725    2.4927   -1.3988 C   0  0  0  0  0  0  0  0  0  0  0  0
    1.4895    1.6764   -2.0741 C   0  0  0  0  0  0  0  0  0  0  0  0
   -1.5983    1.2966    1.1822 H   0  0  0  0  0  0  0  0  0  0  0  0
   -2.4690   -0.1061    1.8537 H   0  0  0  0  0  0  0  0  0  0  0  0
   -2.9844    1.6083    2.2599 H   0  0  0  0  0  0  0  0  0  0  0  0
   -5.4519    2.0891    0.7343 H   0  0  0  0  0  0  0  0  0  0  0  0
   -3.9028    3.0667    0.7084 H   0  0  0  0  0  0  0  0  0  0  0  0
   -4.6626    2.5164   -0.8199 H   0  0  0  0  0  0  0  0  0  0  0  0
   -3.9160   -1.2370    0.5474 H   0  0  0  0  0  0  0  0  0  0  0  0
   -6.3154    0.5836   -0.4077 H   0  0  0  0  0  0  0  0  0  0  0  0
   -3.7601    0.7719   -1.8991 H   0  0  0  0  0  0  0  0  0  0  0  0
    0.2235   -1.3807   -2.4139 H   0  0  0  0  0  0  0  0  0  0  0  0
    0.4211   -0.0594   -3.5869 H   0  0  0  0  0  0  0  0  0  0  0  0
    1.3015   -0.9527   -0.1049 H   0  0  0  0  0  0  0  0  0  0  0  0
    3.9822   -0.6883    3.6040 H   0  0  0  0  0  0  0  0  0  0  0  0
    6.0239   -2.0570    3.7830 H   0  0  0  0  0  0  0  0  0  0  0  0
    7.3529   -2.6034    1.7551 H   0  0  0  0  0  0  0  0  0  0  0  0
    6.6145   -1.7747   -0.3861 H   0  0  0  0  0  0  0  0  0  0  0  0
    4.5414   -0.3838   -0.5750 H   0  0  0  0  0  0  0  0  0  0  0  0
    3.5875    2.6709    0.3512 H   0  0  0  0  0  0  0  0  0  0  0  0
    2.6780    3.4492   -1.7504 H   0  0  0  0  0  0  0  0  0  0  0  0
    1.1350    2.1106   -3.0065 H   0  0  0  0  0  0  0  0  0  0  0  0
  1  2  1  0
  2  3  1  0
  2  4  1  0
  4  5  1  0
  5  6  2  3
  6  7  1  0
  6  8  1  0
  4  9  1  0
  9 10  1  0
 10 11  2  0
 10 12  1  0
 12 13  1  0
 13 14  1  0
 14 15  2  0
 15 16  1  0
 16 17  1  0
 17 18  1  0
 18 19  2  0
 19 20  1  0
 20 21  2  0
 21 22  1  0
 22 23  2  0
 16 24  2  0
 24 25  1  0
 25 26  2  0
  9  2  1  0
 26 14  1  0
 23 18  1  0
  1 27  1  0
  1 28  1  0
  1 29  1  0
  3 30  1  0
  3 31  1  0
  3 32  1  0
  4 33  1  0
  5 34  1  0
  9 35  1  0
 13 36  1  0
 13 37  1  0
 15 38  1  0
 19 39  1  0
 20 40  1  0
 21 41  1  0
 22 42  1  0
 23 43  1  0
 24 44  1  0
 25 45  1  0
 26 46  1  0
M  END
$$$$
