@<TRIPOS>MOLECULE
*****
 46 48 0 0 0
SMALL
GASTEIGER

@<TRIPOS>ATOM
      1 C          -2.5957    0.9428    1.4608 C.3     1  UNL1       -0.0585
      2 C          -3.6061    0.9892    0.3424 C.3     1  UNL1       -0.0143
      3 C          -4.4613    2.2363    0.2315 C.3     1  UNL1       -0.0585
      4 C          -4.2094   -0.3337   -0.0485 C.3     1  UNL1       -0.0011
      5 C          -5.6711   -0.2845   -0.3189 C.2     1  UNL1       -0.0499
      6 C          -6.4155   -1.3703   -0.4966 C.2     1  UNL1        0.1029
      7 CL         -8.1351   -1.5148   -0.8220 Cl      1  UNL1       -0.0708
      8 CL         -6.7479   -3.0708   -0.6197 Cl      1  UNL1       -0.0708
      9 C          -3.3063    0.3226   -0.9866 C.3     1  UNL1        0.0689
     10 C          -1.8924   -0.0821   -1.1517 C.2     1  UNL1        0.3116
     11 O          -1.3737   -0.6054   -0.1375 O.2     1  UNL1       -0.2505
     12 O          -1.2273    0.1061   -2.3146 O.3     1  UNL1       -0.4596
     13 C           0.1127   -0.2570   -2.5258 C.3     1  UNL1        0.1176
     14 C           1.0780    0.4143   -1.6233 C.ar    1  UNL1       -0.0068
     15 C           1.6287    0.0230   -0.4214 C.ar    1  UNL1       -0.0129
     16 C           2.5005    0.8230    0.2510 C.ar    1  UNL1        0.1288
     17 O           2.9854    0.3111    1.4553 O.3     1  UNL1       -0.4560
     18 C           4.1395   -0.4461    1.4543 C.ar    1  UNL1        0.1284
     19 C           4.5538   -0.9176    2.6964 C.ar    1  UNL1       -0.0193
     20 C           5.6974   -1.6902    2.8337 C.ar    1  UNL1       -0.0583
     21 C           6.4547   -2.0097    1.7295 C.ar    1  UNL1       -0.0615
     22 C           6.0404   -1.5391    0.4925 C.ar    1  UNL1       -0.0583
     23 C           4.8949   -0.7669    0.3652 C.ar    1  UNL1       -0.0193
     24 C           2.8927    2.0533   -0.2019 C.ar    1  UNL1       -0.0193
     25 C           2.3725    2.4927   -1.3988 C.ar    1  UNL1       -0.0579
     26 C           1.4895    1.6764   -2.0741 C.ar    1  UNL1       -0.0551
     27 H          -1.5983    1.2966    1.1822 H       1  UNL1        0.0235
     28 H          -2.4690   -0.1061    1.8537 H       1  UNL1        0.0235
     29 H          -2.9844    1.6083    2.2599 H       1  UNL1        0.0235
     30 H          -5.4519    2.0891    0.7343 H       1  UNL1        0.0235
     31 H          -3.9028    3.0667    0.7084 H       1  UNL1        0.0235
     32 H          -4.6626    2.5164   -0.8199 H       1  UNL1        0.0235
     33 H          -3.9160   -1.2370    0.5474 H       1  UNL1        0.0357
     34 H          -6.3154    0.5836   -0.4077 H       1  UNL1        0.0598
     35 H          -3.7601    0.7719   -1.8991 H       1  UNL1        0.0425
     36 H           0.2235   -1.3807   -2.4139 H       1  UNL1        0.0749
     37 H           0.4211   -0.0594   -3.5869 H       1  UNL1        0.0749
     38 H           1.3015   -0.9527   -0.1049 H       1  UNL1        0.0658
     39 H           3.9822   -0.6883    3.6040 H       1  UNL1        0.0654
     40 H           6.0239   -2.0570    3.7830 H       1  UNL1        0.0619
     41 H           7.3529   -2.6034    1.7551 H       1  UNL1        0.0618
     42 H           6.6145   -1.7747   -0.3861 H       1  UNL1        0.0619
     43 H           4.5414   -0.3838   -0.5750 H       1  UNL1        0.0654
     44 H           3.5875    2.6709    0.3512 H       1  UNL1        0.0654
     45 H           2.6780    3.4492   -1.7504 H       1  UNL1        0.0619
     46 H           1.1350    2.1106   -3.0065 H       1  UNL1        0.0621
@<TRIPOS>BOND
     1     1     2    1
     2     2     3    1
     3     2     4    1
     4     4     5    1
     5     5     6    2
     6     6     7    1
     7     6     8    1
     8     4     9    1
     9     9    10    1
    10    10    11    2
    11    10    12    1
    12    12    13    1
    13    13    14    1
    14    14    15   ar
    15    15    16   ar
    16    16    17    1
    17    17    18    1
    18    18    19   ar
    19    19    20   ar
    20    20    21   ar
    21    21    22   ar
    22    22    23   ar
    23    16    24   ar
    24    24    25   ar
    25    25    26   ar
    26     9     2    1
    27    26    14   ar
    28    23    18   ar
    29     1    27    1
    30     1    28    1
    31     1    29    1
    32     3    30    1
    33     3    31    1
    34     3    32    1
    35     4    33    1
    36     5    34    1
    37     9    35    1
    38    13    36    1
    39    13    37    1
    40    15    38    1
    41    19    39    1
    42    20    40    1
    43    21    41    1
    44    22    42    1
    45    23    43    1
    46    24    44    1
    47    25    45    1
    48    26    46    1
