@<TRIPOS>MOLECULE
*****
 27 29 0 0 0
SMALL
GASTEIGER

@<TRIPOS>ATOM
      1 O          -1.3980    3.1224   -0.6928 O.3     1  UNL1       -0.5059
      2 C          -1.7198    1.7987   -0.4615 C.ar    1  UNL1        0.1317
      3 C          -3.0694    1.4602   -0.4570 C.ar    1  UNL1       -0.0128
      4 C          -3.4601    0.1513   -0.2311 C.ar    1  UNL1        0.0229
      5 C          -2.4736   -0.7841   -0.0155 C.ar    1  UNL1        0.3157
      6 C          -1.1237   -0.4989   -0.0103 C.ar    1  UNL1        0.2193
      7 C          -0.7706    0.8154   -0.2386 C.ar    1  UNL1        0.1127
      8 C           0.5621    1.1672   -0.2463 C.ar    1  UNL1        0.2075
      9 O           0.8835    2.3655   -0.4547 O.2     1  UNL1       -0.2861
     10 C           1.4924    0.1757   -0.0227 C.ar    1  UNL1        0.1060
     11 C           2.8156    0.5650   -0.0377 C.ar    1  UNL1        0.1312
     12 O           3.2824    1.8375   -0.2533 O.3     1  UNL1       -0.5059
     13 C           3.7472   -0.4348    0.1873 C.ar    1  UNL1       -0.0192
     14 C           3.4028   -1.7535    0.4167 C.ar    1  UNL1       -0.0548
     15 C           2.0469   -2.0842    0.4197 C.ar    1  UNL1       -0.0184
     16 C           1.0843   -1.1231    0.2002 C.ar    1  UNL1        0.1431
     17 O          -0.2085   -1.4162    0.1989 O.2     1  UNL1       -0.4475
     18 N          -2.9106   -2.1198    0.2128 N.pl3   1  UNL1        0.0835
     19 O          -4.1287   -2.2786    0.8488 O.co2   1  UNL1       -0.5759
     20 O          -2.4306   -3.2452   -0.0368 O.2     1  UNL1        0.0416
     21 H          -0.9869    3.7072    0.0245 H       1  UNL1        0.2922
     22 H          -3.8765    2.1864   -0.6247 H       1  UNL1        0.0656
     23 H          -4.5213   -0.0947   -0.2313 H       1  UNL1        0.0688
     24 H           3.1365    2.3834   -1.0918 H       1  UNL1        0.2922
     25 H           4.8121   -0.2571    0.1999 H       1  UNL1        0.0654
     26 H           4.1123   -2.5343    0.5918 H       1  UNL1        0.0620
     27 H           1.7000   -3.1113    0.5948 H       1  UNL1        0.0654
@<TRIPOS>UNITY_ATOM_ATTR
18 1
charge 1
19 1
charge -1
@<TRIPOS>BOND
     1     1     2    1
     2     2     3   ar
     3     3     4   ar
     4     4     5   ar
     5     5     6   ar
     6     6     7   ar
     7     7     8   ar
     8     8     9    2
     9     8    10   ar
    10    10    11   ar
    11    11    12    1
    12    11    13   ar
    13    13    14   ar
    14    14    15   ar
    15    15    16   ar
    16    16    17   ar
    17     5    18    1
    18    18    19    1
    19    18    20    2
    20     7     2   ar
    21    16    10   ar
    22    17     6   ar
    23     1    21    1
    24     3    22    1
    25     4    23    1
    26    12    24    1
    27    13    25    1
    28    14    26    1
    29    15    27    1
